MODEL 1
REMARK VINA RESULT:     -12.1      0.000      0.000
REMARK  Name = 77993
REMARK  6 active torsions:
REMARK  status: ('A' for Active; 'I' for Inactive)
REMARK    1  A    between atoms: C_2  and  C_11
REMARK    2  A    between atoms: C_7  and  C_19
REMARK    3  A    between atoms: C_11  and  C_13
REMARK    4  A    between atoms: C_19  and  C_20
REMARK    5  A    between atoms: C_20  and  S_21
REMARK    6  A    between atoms: S_21  and  C_24
REMARK                            x       y       z     vdW  Elec       q    Type
REMARK                         _______ _______ _______ _____ _____    ______ ____
ROOT
ATOM      1  N   UNL     1      33.531 -23.058 -15.679  0.00  0.00    -0.312 N 
ATOM      2  C   UNL     1      35.597 -22.541 -15.128  0.00  0.00    -0.008 C 
ATOM      3  C   UNL     1      35.360 -22.013 -16.415  0.00  0.00    +0.010 C 
ATOM      4  C   UNL     1      34.472 -23.175 -14.691  0.00  0.00    +0.058 C 
ATOM      5  C   UNL     1      34.045 -22.353 -16.744  0.00  0.00    +0.048 C 
ATOM      6  C   UNL     1      36.123 -21.279 -17.345  0.00  0.00    -0.003 C 
ATOM      7  C   UNL     1      35.545 -20.913 -18.564  0.00  0.00    -0.020 C 
ATOM      8  C   UNL     1      33.455 -21.993 -17.959  0.00  0.00    +0.014 C 
ATOM      9  C   UNL     1      34.231 -21.266 -18.866  0.00  0.00    -0.003 C 
ATOM     10  H   UNL     1      32.618 -23.424 -15.634  0.00  0.00    +0.152 HD
ENDROOT
BRANCH   2  11
ATOM     11  C   UNL     1      36.875 -22.428 -14.356  0.00  0.00    +0.007 C 
BRANCH  11  13
ATOM     12  N   UNL     1      37.451 -23.660 -12.256  0.00  0.00    +0.387 N 
ATOM     13  C   UNL     1      37.286 -23.746 -13.714  0.00  0.00    -0.054 C 
ATOM     14  C   UNL     1      38.672 -24.199 -14.181  0.00  0.00    -0.023 C 
ATOM     15  C   UNL     1      39.284 -24.921 -12.987  0.00  0.00    -0.025 C 
ATOM     16  C   UNL     1      38.230 -24.846 -11.893  0.00  0.00    -0.077 C 
ATOM     17  C   UNL     1      36.184 -23.612 -11.535  0.00  0.00    -0.101 C 
ATOM     18  H   UNL     1      37.917 -22.790 -11.997  0.00  0.00    -0.080 HD
ENDBRANCH  11  13
ENDBRANCH   2  11
BRANCH   7  19
ATOM     19  C   UNL     1      36.348 -20.136 -19.555  0.00  0.00    +0.052 C 
BRANCH  19  20
ATOM     20  C   UNL     1      35.506 -19.394 -20.596  0.00  0.00    +0.161 C 
BRANCH  20  21
ATOM     21  S   UNL     1      36.174 -17.812 -21.004  0.00  0.00    +0.009 S 
ATOM     22  O   UNL     1      37.584 -17.967 -21.318  0.00  0.00    -0.169 OA
ATOM     23  O   UNL     1      35.751 -16.873 -19.979  0.00  0.00    -0.169 OA
BRANCH  21  24
ATOM     24  C   UNL     1      35.355 -17.377 -22.509  0.00  0.00    +0.106 C 
ATOM     25  C   UNL     1      34.721 -18.365 -23.244  0.00  0.00    +0.018 C 
ATOM     26  C   UNL     1      35.363 -16.057 -22.926  0.00  0.00    +0.018 C 
ATOM     27  C   UNL     1      34.074 -18.021 -24.431  0.00  0.00    +0.001 C 
ATOM     28  C   UNL     1      34.716 -15.714 -24.114  0.00  0.00    +0.001 C 
ATOM     29  C   UNL     1      34.072 -16.696 -24.866  0.00  0.00    +0.000 C 
ENDBRANCH  21  24
ENDBRANCH  20  21
ENDBRANCH  19  20
ENDBRANCH   7  19
TORSDOF 6
ENDMDL
MODEL 2
REMARK VINA RESULT:     -12.0      1.313      1.888
REMARK  Name = 77993
REMARK  6 active torsions:
REMARK  status: ('A' for Active; 'I' for Inactive)
REMARK    1  A    between atoms: C_2  and  C_11
REMARK    2  A    between atoms: C_7  and  C_19
REMARK    3  A    between atoms: C_11  and  C_13
REMARK    4  A    between atoms: C_19  and  C_20
REMARK    5  A    between atoms: C_20  and  S_21
REMARK    6  A    between atoms: S_21  and  C_24
REMARK                            x       y       z     vdW  Elec       q    Type
REMARK                         _______ _______ _______ _____ _____    ______ ____
ROOT
ATOM      1  N   UNL     1      33.807 -23.008 -15.777  0.00  0.00    -0.312 N 
ATOM      2  C   UNL     1      35.906 -22.433 -15.449  0.00  0.00    -0.008 C 
ATOM      3  C   UNL     1      35.510 -21.890 -16.690  0.00  0.00    +0.010 C 
ATOM      4  C   UNL     1      34.857 -23.112 -14.904  0.00  0.00    +0.058 C 
ATOM      5  C   UNL     1      34.178 -22.267 -16.877  0.00  0.00    +0.048 C 
ATOM      6  C   UNL     1      36.141 -21.114 -17.682  0.00  0.00    -0.003 C 
ATOM      7  C   UNL     1      35.419 -20.745 -18.822  0.00  0.00    -0.020 C 
ATOM      8  C   UNL     1      33.444 -21.905 -18.011  0.00  0.00    +0.014 C 
ATOM      9  C   UNL     1      34.091 -21.135 -18.983  0.00  0.00    -0.003 C 
ATOM     10  H   UNL     1      32.917 -23.404 -15.639  0.00  0.00    +0.152 HD
ENDROOT
BRANCH   2  11
ATOM     11  C   UNL     1      37.258 -22.292 -14.822  0.00  0.00    +0.007 C 
BRANCH  11  13
ATOM     12  N   UNL     1      37.900 -23.055 -12.528  0.00  0.00    +0.387 N 
ATOM     13  C   UNL     1      37.601 -23.461 -13.908  0.00  0.00    -0.054 C 
ATOM     14  C   UNL     1      38.893 -24.159 -14.339  0.00  0.00    -0.023 C 
ATOM     15  C   UNL     1      39.539 -24.646 -13.046  0.00  0.00    -0.025 C 
ATOM     16  C   UNL     1      38.596 -24.203 -11.939  0.00  0.00    -0.077 C 
ATOM     17  C   UNL     1      36.711 -22.702 -11.760  0.00  0.00    -0.101 C 
ATOM     18  H   UNL     1      38.465 -22.206 -12.515  0.00  0.00    -0.080 HD
ENDBRANCH  11  13
ENDBRANCH   2  11
BRANCH   7  19
ATOM     19  C   UNL     1      36.082 -19.924 -19.879  0.00  0.00    +0.052 C 
BRANCH  19  20
ATOM     20  C   UNL     1      35.309 -18.659 -20.263  0.00  0.00    +0.161 C 
BRANCH  20  21
ATOM     21  S   UNL     1      35.940 -17.898 -21.725  0.00  0.00    +0.009 S 
ATOM     22  O   UNL     1      35.264 -18.468 -22.877  0.00  0.00    -0.169 OA
ATOM     23  O   UNL     1      37.390 -17.917 -21.644  0.00  0.00    -0.169 OA
BRANCH  21  24
ATOM     24  C   UNL     1      35.410 -16.217 -21.594  0.00  0.00    +0.106 C 
ATOM     25  C   UNL     1      35.296 -15.452 -22.743  0.00  0.00    +0.018 C 
ATOM     26  C   UNL     1      35.117 -15.696 -20.345  0.00  0.00    +0.018 C 
ATOM     27  C   UNL     1      34.877 -14.126 -22.639  0.00  0.00    +0.001 C 
ATOM     28  C   UNL     1      34.698 -14.369 -20.242  0.00  0.00    +0.001 C 
ATOM     29  C   UNL     1      34.578 -13.585 -21.388  0.00  0.00    +0.000 C 
ENDBRANCH  21  24
ENDBRANCH  20  21
ENDBRANCH  19  20
ENDBRANCH   7  19
TORSDOF 6
ENDMDL
MODEL 3
REMARK VINA RESULT:     -11.2      4.702      9.229
REMARK  Name = 77993
REMARK  6 active torsions:
REMARK  status: ('A' for Active; 'I' for Inactive)
REMARK    1  A    between atoms: C_2  and  C_11
REMARK    2  A    between atoms: C_7  and  C_19
REMARK    3  A    between atoms: C_11  and  C_13
REMARK    4  A    between atoms: C_19  and  C_20
REMARK    5  A    between atoms: C_20  and  S_21
REMARK    6  A    between atoms: S_21  and  C_24
REMARK                            x       y       z     vdW  Elec       q    Type
REMARK                         _______ _______ _______ _____ _____    ______ ____
ROOT
ATOM      1  N   UNL     1      31.053 -22.092 -15.738  0.00  0.00    -0.312 N 
ATOM      2  C   UNL     1      32.959 -22.409 -16.792  0.00  0.00    -0.008 C 
ATOM      3  C   UNL     1      33.179 -22.700 -15.429  0.00  0.00    +0.010 C 
ATOM      4  C   UNL     1      31.658 -22.039 -16.966  0.00  0.00    +0.058 C 
ATOM      5  C   UNL     1      31.958 -22.493 -14.781  0.00  0.00    +0.048 C 
ATOM      6  C   UNL     1      34.287 -23.121 -14.669  0.00  0.00    -0.003 C 
ATOM      7  C   UNL     1      34.136 -23.318 -13.292  0.00  0.00    -0.020 C 
ATOM      8  C   UNL     1      31.792 -22.687 -13.406  0.00  0.00    +0.014 C 
ATOM      9  C   UNL     1      32.906 -23.103 -12.672  0.00  0.00    -0.003 C 
ATOM     10  H   UNL     1      30.109 -21.876 -15.565  0.00  0.00    +0.152 HD
ENDROOT
BRANCH   2  11
ATOM     11  C   UNL     1      33.983 -22.489 -17.882  0.00  0.00    +0.007 C 
BRANCH  11  13
ATOM     12  N   UNL     1      34.374 -20.690 -19.576  0.00  0.00    +0.387 N 
ATOM     13  C   UNL     1      34.607 -21.135 -18.194  0.00  0.00    -0.054 C 
ATOM     14  C   UNL     1      36.135 -21.180 -18.111  0.00  0.00    -0.023 C 
ATOM     15  C   UNL     1      36.626 -20.193 -19.164  0.00  0.00    -0.025 C 
ATOM     16  C   UNL     1      35.365 -19.635 -19.805  0.00  0.00    -0.077 C 
ATOM     17  C   UNL     1      33.018 -20.206 -19.805  0.00  0.00    -0.101 C 
ATOM     18  H   UNL     1      34.473 -21.468 -20.227  0.00  0.00    -0.080 HD
ENDBRANCH  11  13
ENDBRANCH   2  11
BRANCH   7  19
ATOM     19  C   UNL     1      35.307 -23.762 -12.479  0.00  0.00    +0.052 C 
BRANCH  19  20
ATOM     20  C   UNL     1      36.412 -22.710 -12.351  0.00  0.00    +0.161 C 
BRANCH  20  21
ATOM     21  S   UNL     1      37.767 -23.268 -11.366  0.00  0.00    +0.009 S 
ATOM     22  O   UNL     1      37.255 -24.122 -10.308  0.00  0.00    -0.169 OA
ATOM     23  O   UNL     1      38.587 -22.113 -11.044  0.00  0.00    -0.169 OA
BRANCH  21  24
ATOM     24  C   UNL     1      38.692 -24.303 -12.461  0.00  0.00    +0.106 C 
ATOM     25  C   UNL     1      38.126 -25.480 -12.920  0.00  0.00    +0.018 C 
ATOM     26  C   UNL     1      39.967 -23.916 -12.841  0.00  0.00    +0.018 C 
ATOM     27  C   UNL     1      38.856 -26.295 -13.785  0.00  0.00    +0.001 C 
ATOM     28  C   UNL     1      40.697 -24.732 -13.706  0.00  0.00    +0.001 C 
ATOM     29  C   UNL     1      40.142 -25.921 -14.177  0.00  0.00    +0.000 C 
ENDBRANCH  21  24
ENDBRANCH  20  21
ENDBRANCH  19  20
ENDBRANCH   7  19
TORSDOF 6
ENDMDL
MODEL 4
REMARK VINA RESULT:     -11.1      4.295      9.432
REMARK  Name = 77993
REMARK  6 active torsions:
REMARK  status: ('A' for Active; 'I' for Inactive)
REMARK    1  A    between atoms: C_2  and  C_11
REMARK    2  A    between atoms: C_7  and  C_19
REMARK    3  A    between atoms: C_11  and  C_13
REMARK    4  A    between atoms: C_19  and  C_20
REMARK    5  A    between atoms: C_20  and  S_21
REMARK    6  A    between atoms: S_21  and  C_24
REMARK                            x       y       z     vdW  Elec       q    Type
REMARK                         _______ _______ _______ _____ _____    ______ ____
ROOT
ATOM      1  N   UNL     1      32.677 -22.280 -17.560  0.00  0.00    -0.312 N 
ATOM      2  C   UNL     1      34.651 -21.685 -18.328  0.00  0.00    -0.008 C 
ATOM      3  C   UNL     1      34.807 -21.991 -16.959  0.00  0.00    +0.010 C 
ATOM      4  C   UNL     1      33.347 -21.867 -18.680  0.00  0.00    +0.058 C 
ATOM      5  C   UNL     1      33.544 -22.365 -16.493  0.00  0.00    +0.048 C 
ATOM      6  C   UNL     1      35.889 -21.990 -16.057  0.00  0.00    -0.003 C 
ATOM      7  C   UNL     1      35.669 -22.363 -14.727  0.00  0.00    -0.020 C 
ATOM      8  C   UNL     1      33.310 -22.740 -15.167  0.00  0.00    +0.014 C 
ATOM      9  C   UNL     1      34.398 -22.732 -14.290  0.00  0.00    -0.003 C 
ATOM     10  H   UNL     1      31.716 -22.488 -17.522  0.00  0.00    +0.152 HD
ENDROOT
BRANCH   2  11
ATOM     11  C   UNL     1      35.738 -21.234 -19.254  0.00  0.00    +0.007 C 
BRANCH  11  13
ATOM     12  N   UNL     1      34.910 -19.388 -20.726  0.00  0.00    +0.387 N 
ATOM     13  C   UNL     1      35.685 -19.736 -19.527  0.00  0.00    -0.054 C 
ATOM     14  C   UNL     1      37.070 -19.167 -19.846  0.00  0.00    -0.023 C 
ATOM     15  C   UNL     1      36.823 -18.041 -20.843  0.00  0.00    -0.025 C 
ATOM     16  C   UNL     1      35.317 -18.019 -21.055  0.00  0.00    -0.077 C 
ATOM     17  C   UNL     1      33.469 -19.483 -20.529  0.00  0.00    -0.101 C 
ATOM     18  H   UNL     1      35.101 -20.045 -21.482  0.00  0.00    -0.080 HD
ENDBRANCH  11  13
ENDBRANCH   2  11
BRANCH   7  19
ATOM     19  C   UNL     1      36.812 -22.364 -13.765  0.00  0.00    +0.052 C 
BRANCH  19  20
ATOM     20  C   UNL     1      36.413 -22.691 -12.323  0.00  0.00    +0.161 C 
BRANCH  20  21
ATOM     21  S   UNL     1      37.779 -23.245 -11.352  0.00  0.00    +0.009 S 
ATOM     22  O   UNL     1      37.277 -24.075 -10.271  0.00  0.00    -0.169 OA
ATOM     23  O   UNL     1      38.615 -22.092 -11.063  0.00  0.00    -0.169 OA
BRANCH  21  24
ATOM     24  C   UNL     1      38.676 -24.306 -12.445  0.00  0.00    +0.106 C 
ATOM     25  C   UNL     1      39.958 -23.952 -12.831  0.00  0.00    +0.018 C 
ATOM     26  C   UNL     1      38.081 -25.473 -12.894  0.00  0.00    +0.018 C 
ATOM     27  C   UNL     1      40.665 -24.790 -13.693  0.00  0.00    +0.001 C 
ATOM     28  C   UNL     1      38.789 -26.311 -13.756  0.00  0.00    +0.001 C 
ATOM     29  C   UNL     1      40.080 -25.969 -14.155  0.00  0.00    +0.000 C 
ENDBRANCH  21  24
ENDBRANCH  20  21
ENDBRANCH  19  20
ENDBRANCH   7  19
TORSDOF 6
ENDMDL
MODEL 5
REMARK VINA RESULT:     -11.0      1.854      2.688
REMARK  Name = 77993
REMARK  6 active torsions:
REMARK  status: ('A' for Active; 'I' for Inactive)
REMARK    1  A    between atoms: C_2  and  C_11
REMARK    2  A    between atoms: C_7  and  C_19
REMARK    3  A    between atoms: C_11  and  C_13
REMARK    4  A    between atoms: C_19  and  C_20
REMARK    5  A    between atoms: C_20  and  S_21
REMARK    6  A    between atoms: S_21  and  C_24
REMARK                            x       y       z     vdW  Elec       q    Type
REMARK                         _______ _______ _______ _____ _____    ______ ____
ROOT
ATOM      1  N   UNL     1      31.902 -22.028 -16.927  0.00  0.00    -0.312 N 
ATOM      2  C   UNL     1      33.857 -22.811 -16.292  0.00  0.00    -0.008 C 
ATOM      3  C   UNL     1      34.086 -21.942 -17.380  0.00  0.00    +0.010 C 
ATOM      4  C   UNL     1      32.521 -22.854 -16.027  0.00  0.00    +0.058 C 
ATOM      5  C   UNL     1      32.833 -21.457 -17.766  0.00  0.00    +0.048 C 
ATOM      6  C   UNL     1      35.226 -21.510 -18.085  0.00  0.00    -0.003 C 
ATOM      7  C   UNL     1      35.073 -20.611 -19.146  0.00  0.00    -0.020 C 
ATOM      8  C   UNL     1      32.666 -20.559 -18.824  0.00  0.00    +0.014 C 
ATOM      9  C   UNL     1      33.811 -20.144 -19.509  0.00  0.00    -0.003 C 
ATOM     10  H   UNL     1      30.932 -21.864 -16.969  0.00  0.00    +0.152 HD
ENDROOT
BRANCH   2  11
ATOM     11  C   UNL     1      34.908 -23.571 -15.542  0.00  0.00    +0.007 C 
BRANCH  11  13
ATOM     12  N   UNL     1      36.871 -22.880 -14.154  0.00  0.00    +0.387 N 
ATOM     13  C   UNL     1      35.412 -22.814 -14.321  0.00  0.00    -0.054 C 
ATOM     14  C   UNL     1      34.899 -23.432 -13.017  0.00  0.00    -0.023 C 
ATOM     15  C   UNL     1      36.013 -23.211 -12.001  0.00  0.00    -0.025 C 
ATOM     16  C   UNL     1      37.111 -22.486 -12.763  0.00  0.00    -0.077 C 
ATOM     17  C   UNL     1      37.596 -22.021 -15.084  0.00  0.00    -0.101 C 
ATOM     18  H   UNL     1      37.216 -23.817 -14.361  0.00  0.00    -0.080 HD
ENDBRANCH  11  13
ENDBRANCH   2  11
BRANCH   7  19
ATOM     19  C   UNL     1      36.278 -20.149 -19.898  0.00  0.00    +0.052 C 
BRANCH  19  20
ATOM     20  C   UNL     1      36.421 -18.627 -19.973  0.00  0.00    +0.161 C 
BRANCH  20  21
ATOM     21  S   UNL     1      36.271 -18.014 -21.622  0.00  0.00    +0.009 S 
ATOM     22  O   UNL     1      35.288 -18.816 -22.331  0.00  0.00    -0.169 OA
ATOM     23  O   UNL     1      37.611 -17.854 -22.160  0.00  0.00    -0.169 OA
BRANCH  21  24
ATOM     24  C   UNL     1      35.572 -16.403 -21.417  0.00  0.00    +0.106 C 
ATOM     25  C   UNL     1      35.236 -15.968 -20.147  0.00  0.00    +0.018 C 
ATOM     26  C   UNL     1      35.375 -15.605 -22.532  0.00  0.00    +0.018 C 
ATOM     27  C   UNL     1      34.685 -14.697 -19.985  0.00  0.00    +0.001 C 
ATOM     28  C   UNL     1      34.825 -14.333 -22.370  0.00  0.00    +0.001 C 
ATOM     29  C   UNL     1      34.480 -13.880 -21.097  0.00  0.00    +0.000 C 
ENDBRANCH  21  24
ENDBRANCH  20  21
ENDBRANCH  19  20
ENDBRANCH   7  19
TORSDOF 6
ENDMDL
MODEL 6
REMARK VINA RESULT:     -10.8      6.061     11.841
REMARK  Name = 77993
REMARK  6 active torsions:
REMARK  status: ('A' for Active; 'I' for Inactive)
REMARK    1  A    between atoms: C_2  and  C_11
REMARK    2  A    between atoms: C_7  and  C_19
REMARK    3  A    between atoms: C_11  and  C_13
REMARK    4  A    between atoms: C_19  and  C_20
REMARK    5  A    between atoms: C_20  and  S_21
REMARK    6  A    between atoms: S_21  and  C_24
REMARK                            x       y       z     vdW  Elec       q    Type
REMARK                         _______ _______ _______ _____ _____    ______ ____
ROOT
ATOM      1  N   UNL     1      31.198 -11.247 -19.917  0.00  0.00    -0.312 N 
ATOM      2  C   UNL     1      32.253 -10.714 -21.773  0.00  0.00    -0.008 C 
ATOM      3  C   UNL     1      32.776 -11.948 -21.332  0.00  0.00    +0.010 C 
ATOM      4  C   UNL     1      31.292 -10.299 -20.900  0.00  0.00    +0.058 C 
ATOM      5  C   UNL     1      32.093 -12.267 -20.155  0.00  0.00    +0.048 C 
ATOM      6  C   UNL     1      33.761 -12.837 -21.805  0.00  0.00    -0.003 C 
ATOM      7  C   UNL     1      34.027 -14.007 -21.087  0.00  0.00    -0.020 C 
ATOM      8  C   UNL     1      32.348 -13.433 -19.426  0.00  0.00    +0.014 C 
ATOM      9  C   UNL     1      33.331 -14.299 -19.915  0.00  0.00    -0.003 C 
ATOM     10  H   UNL     1      30.581 -11.207 -19.152  0.00  0.00    +0.152 HD
ENDROOT
BRANCH   2  11
ATOM     11  C   UNL     1      32.679  -9.971 -23.002  0.00  0.00    +0.007 C 
BRANCH  11  13
ATOM     12  N   UNL     1      34.150  -7.948 -22.990  0.00  0.00    +0.387 N 
ATOM     13  C   UNL     1      34.091  -9.413 -22.884  0.00  0.00    -0.054 C 
ATOM     14  C   UNL     1      34.981  -9.869 -24.043  0.00  0.00    -0.023 C 
ATOM     15  C   UNL     1      35.940  -8.711 -24.294  0.00  0.00    -0.025 C 
ATOM     16  C   UNL     1      35.555  -7.647 -23.278  0.00  0.00    -0.077 C 
ATOM     17  C   UNL     1      33.694  -7.264 -21.786  0.00  0.00    -0.101 C 
ATOM     18  H   UNL     1      33.520  -7.614 -23.719  0.00  0.00    -0.080 HD
ENDBRANCH  11  13
ENDBRANCH   2  11
BRANCH   7  19
ATOM     19  C   UNL     1      35.071 -14.954 -21.582  0.00  0.00    +0.052 C 
BRANCH  19  20
ATOM     20  C   UNL     1      35.297 -16.164 -20.672  0.00  0.00    +0.161 C 
BRANCH  20  21
ATOM     21  S   UNL     1      35.746 -17.614 -21.575  0.00  0.00    +0.009 S 
ATOM     22  O   UNL     1      37.192 -17.648 -21.715  0.00  0.00    -0.169 OA
ATOM     23  O   UNL     1      34.894 -17.687 -22.749  0.00  0.00    -0.169 OA
BRANCH  21  24
ATOM     24  C   UNL     1      35.301 -18.942 -20.497  0.00  0.00    +0.106 C 
ATOM     25  C   UNL     1      36.296 -19.631 -19.824  0.00  0.00    +0.018 C 
ATOM     26  C   UNL     1      33.964 -19.270 -20.346  0.00  0.00    +0.018 C 
ATOM     27  C   UNL     1      35.944 -20.679 -18.974  0.00  0.00    +0.001 C 
ATOM     28  C   UNL     1      33.612 -20.319 -19.495  0.00  0.00    +0.001 C 
ATOM     29  C   UNL     1      34.601 -21.022 -18.809  0.00  0.00    +0.000 C 
ENDBRANCH  21  24
ENDBRANCH  20  21
ENDBRANCH  19  20
ENDBRANCH   7  19
TORSDOF 6
ENDMDL
MODEL 7
REMARK VINA RESULT:     -10.6      5.481      8.950
REMARK  Name = 77993
REMARK  6 active torsions:
REMARK  status: ('A' for Active; 'I' for Inactive)
REMARK    1  A    between atoms: C_2  and  C_11
REMARK    2  A    between atoms: C_7  and  C_19
REMARK    3  A    between atoms: C_11  and  C_13
REMARK    4  A    between atoms: C_19  and  C_20
REMARK    5  A    between atoms: C_20  and  S_21
REMARK    6  A    between atoms: S_21  and  C_24
REMARK                            x       y       z     vdW  Elec       q    Type
REMARK                         _______ _______ _______ _____ _____    ______ ____
ROOT
ATOM      1  N   UNL     1      34.961 -21.424 -18.651  0.00  0.00    -0.312 N 
ATOM      2  C   UNL     1      33.754 -22.569 -17.211  0.00  0.00    -0.008 C 
ATOM      3  C   UNL     1      34.937 -22.176 -16.549  0.00  0.00    +0.010 C 
ATOM      4  C   UNL     1      33.782 -22.104 -18.491  0.00  0.00    +0.058 C 
ATOM      5  C   UNL     1      35.686 -21.452 -17.480  0.00  0.00    +0.048 C 
ATOM      6  C   UNL     1      35.458 -22.357 -15.253  0.00  0.00    -0.003 C 
ATOM      7  C   UNL     1      36.705 -21.808 -14.936  0.00  0.00    -0.020 C 
ATOM      8  C   UNL     1      36.934 -20.898 -17.177  0.00  0.00    +0.014 C 
ATOM      9  C   UNL     1      37.431 -21.091 -15.885  0.00  0.00    -0.003 C 
ATOM     10  H   UNL     1      35.248 -20.980 -19.480  0.00  0.00    +0.152 HD
ENDROOT
BRANCH   2  11
ATOM     11  C   UNL     1      32.639 -23.370 -16.611  0.00  0.00    +0.007 C 
BRANCH  11  13
ATOM     12  N   UNL     1      31.615 -23.491 -14.332  0.00  0.00    +0.387 N 
ATOM     13  C   UNL     1      31.936 -22.631 -15.480  0.00  0.00    -0.054 C 
ATOM     14  C   UNL     1      30.559 -22.116 -15.907  0.00  0.00    -0.023 C 
ATOM     15  C   UNL     1      29.694 -22.189 -14.654  0.00  0.00    -0.025 C 
ATOM     16  C   UNL     1      30.607 -22.746 -13.573  0.00  0.00    -0.077 C 
ATOM     17  C   UNL     1      32.775 -23.809 -13.508  0.00  0.00    -0.101 C 
ATOM     18  H   UNL     1      31.276 -24.400 -14.645  0.00  0.00    -0.080 HD
ENDBRANCH  11  13
ENDBRANCH   2  11
BRANCH   7  19
ATOM     19  C   UNL     1      37.264 -21.996 -13.564  0.00  0.00    +0.052 C 
BRANCH  19  20
ATOM     20  C   UNL     1      36.344 -22.770 -12.616  0.00  0.00    +0.161 C 
BRANCH  20  21
ATOM     21  S   UNL     1      37.238 -23.810 -11.504  0.00  0.00    +0.009 S 
ATOM     22  O   UNL     1      36.344 -24.843 -11.010  0.00  0.00    -0.169 OA
ATOM     23  O   UNL     1      37.953 -22.953 -10.573  0.00  0.00    -0.169 OA
BRANCH  21  24
ATOM     24  C   UNL     1      38.432 -24.608 -12.534  0.00  0.00    +0.106 C 
ATOM     25  C   UNL     1      38.087 -25.778 -13.189  0.00  0.00    +0.018 C 
ATOM     26  C   UNL     1      39.692 -24.049 -12.667  0.00  0.00    +0.018 C 
ATOM     27  C   UNL     1      39.029 -26.408 -14.001  0.00  0.00    +0.001 C 
ATOM     28  C   UNL     1      40.634 -24.679 -13.480  0.00  0.00    +0.001 C 
ATOM     29  C   UNL     1      40.303 -25.858 -14.147  0.00  0.00    +0.000 C 
ENDBRANCH  21  24
ENDBRANCH  20  21
ENDBRANCH  19  20
ENDBRANCH   7  19
TORSDOF 6
ENDMDL
MODEL 8
REMARK VINA RESULT:     -10.4      4.289      9.379
REMARK  Name = 77993
REMARK  6 active torsions:
REMARK  status: ('A' for Active; 'I' for Inactive)
REMARK    1  A    between atoms: C_2  and  C_11
REMARK    2  A    between atoms: C_7  and  C_19
REMARK    3  A    between atoms: C_11  and  C_13
REMARK    4  A    between atoms: C_19  and  C_20
REMARK    5  A    between atoms: C_20  and  S_21
REMARK    6  A    between atoms: S_21  and  C_24
REMARK                            x       y       z     vdW  Elec       q    Type
REMARK                         _______ _______ _______ _____ _____    ______ ____
ROOT
ATOM      1  N   UNL     1      32.457 -22.539 -15.887  0.00  0.00    -0.312 N 
ATOM      2  C   UNL     1      33.838 -22.153 -17.555  0.00  0.00    -0.008 C 
ATOM      3  C   UNL     1      34.621 -22.350 -16.398  0.00  0.00    +0.010 C 
ATOM      4  C   UNL     1      32.520 -22.271 -17.229  0.00  0.00    +0.058 C 
ATOM      5  C   UNL     1      33.725 -22.593 -15.353  0.00  0.00    +0.048 C 
ATOM      6  C   UNL     1      36.002 -22.349 -16.119  0.00  0.00    -0.003 C 
ATOM      7  C   UNL     1      36.435 -22.590 -14.811  0.00  0.00    -0.020 C 
ATOM      8  C   UNL     1      34.143 -22.835 -14.041  0.00  0.00    +0.014 C 
ATOM      9  C   UNL     1      35.518 -22.828 -13.789  0.00  0.00    -0.003 C 
ATOM     10  H   UNL     1      31.625 -22.674 -15.377  0.00  0.00    +0.152 HD
ENDROOT
BRANCH   2  11
ATOM     11  C   UNL     1      34.362 -21.861 -18.928  0.00  0.00    +0.007 C 
BRANCH  11  13
ATOM     12  N   UNL     1      34.202 -19.783 -20.311  0.00  0.00    +0.387 N 
ATOM     13  C   UNL     1      34.760 -20.401 -19.100  0.00  0.00    -0.054 C 
ATOM     14  C   UNL     1      36.268 -20.244 -19.308  0.00  0.00    -0.023 C 
ATOM     15  C   UNL     1      36.424 -19.046 -20.238  0.00  0.00    -0.025 C 
ATOM     16  C   UNL     1      35.007 -18.577 -20.524  0.00  0.00    -0.077 C 
ATOM     17  C   UNL     1      32.784 -19.464 -20.195  0.00  0.00    -0.101 C 
ATOM     18  H   UNL     1      34.248 -20.428 -21.099  0.00  0.00    -0.080 HD
ENDBRANCH  11  13
ENDBRANCH   2  11
BRANCH   7  19
ATOM     19  C   UNL     1      37.897 -22.589 -14.508  0.00  0.00    +0.052 C 
BRANCH  19  20
ATOM     20  C   UNL     1      38.582 -23.940 -14.734  0.00  0.00    +0.161 C 
BRANCH  20  21
ATOM     21  S   UNL     1      39.230 -24.627 -13.243  0.00  0.00    +0.009 S 
ATOM     22  O   UNL     1      40.490 -23.975 -12.936  0.00  0.00    -0.169 OA
ATOM     23  O   UNL     1      39.162 -26.074 -13.356  0.00  0.00    -0.169 OA
BRANCH  21  24
ATOM     24  C   UNL     1      38.073 -24.125 -12.004  0.00  0.00    +0.106 C 
ATOM     25  C   UNL     1      37.024 -24.967 -11.676  0.00  0.00    +0.018 C 
ATOM     26  C   UNL     1      38.238 -22.898 -11.383  0.00  0.00    +0.018 C 
ATOM     27  C   UNL     1      36.112 -24.570 -10.698  0.00  0.00    +0.001 C 
ATOM     28  C   UNL     1      37.326 -22.502 -10.405  0.00  0.00    +0.001 C 
ATOM     29  C   UNL     1      36.264 -23.337 -10.063  0.00  0.00    +0.000 C 
ENDBRANCH  21  24
ENDBRANCH  20  21
ENDBRANCH  19  20
ENDBRANCH   7  19
TORSDOF 6
ENDMDL
MODEL 9
REMARK VINA RESULT:     -10.2      8.810     12.374
REMARK  Name = 77993
REMARK  6 active torsions:
REMARK  status: ('A' for Active; 'I' for Inactive)
REMARK    1  A    between atoms: C_2  and  C_11
REMARK    2  A    between atoms: C_7  and  C_19
REMARK    3  A    between atoms: C_11  and  C_13
REMARK    4  A    between atoms: C_19  and  C_20
REMARK    5  A    between atoms: C_20  and  S_21
REMARK    6  A    between atoms: S_21  and  C_24
REMARK                            x       y       z     vdW  Elec       q    Type
REMARK                         _______ _______ _______ _____ _____    ______ ____
ROOT
ATOM      1  N   UNL     1      32.282 -13.311 -19.192  0.00  0.00    -0.312 N 
ATOM      2  C   UNL     1      33.607 -13.155 -20.942  0.00  0.00    -0.008 C 
ATOM      3  C   UNL     1      32.789 -12.005 -20.930  0.00  0.00    +0.010 C 
ATOM      4  C   UNL     1      33.287 -13.943 -19.877  0.00  0.00    +0.058 C 
ATOM      5  C   UNL     1      31.958 -12.125 -19.813  0.00  0.00    +0.048 C 
ATOM      6  C   UNL     1      32.661 -10.867 -21.750  0.00  0.00    -0.003 C 
ATOM      7  C   UNL     1      31.711  -9.894 -21.424  0.00  0.00    -0.020 C 
ATOM      8  C   UNL     1      31.004 -11.161 -19.475  0.00  0.00    +0.014 C 
ATOM      9  C   UNL     1      30.895 -10.040 -20.304  0.00  0.00    -0.003 C 
ATOM     10  H   UNL     1      31.855 -13.654 -18.375  0.00  0.00    +0.152 HD
ENDROOT
BRANCH   2  11
ATOM     11  C   UNL     1      34.660 -13.470 -21.959  0.00  0.00    +0.007 C 
BRANCH  11  13
ATOM     12  N   UNL     1      35.301 -15.411 -23.401  0.00  0.00    +0.387 N 
ATOM     13  C   UNL     1      34.211 -14.533 -22.953  0.00  0.00    -0.054 C 
ATOM     14  C   UNL     1      33.719 -13.914 -24.264  0.00  0.00    -0.023 C 
ATOM     15  C   UNL     1      34.100 -14.914 -25.349  0.00  0.00    -0.025 C 
ATOM     16  C   UNL     1      34.793 -16.052 -24.618  0.00  0.00    -0.077 C 
ATOM     17  C   UNL     1      35.693 -16.399 -22.402  0.00  0.00    -0.101 C 
ATOM     18  H   UNL     1      36.152 -14.875 -23.567  0.00  0.00    -0.080 HD
ENDBRANCH  11  13
ENDBRANCH   2  11
BRANCH   7  19
ATOM     19  C   UNL     1      31.569  -8.685 -22.290  0.00  0.00    +0.052 C 
BRANCH  19  20
ATOM     20  C   UNL     1      32.700  -8.511 -23.308  0.00  0.00    +0.161 C 
BRANCH  20  21
ATOM     21  S   UNL     1      33.684  -7.081 -22.988  0.00  0.00    +0.009 S 
ATOM     22  O   UNL     1      33.406  -6.084 -24.007  0.00  0.00    -0.169 OA
ATOM     23  O   UNL     1      35.047  -7.525 -22.751  0.00  0.00    -0.169 OA
BRANCH  21  24
ATOM     24  C   UNL     1      33.044  -6.455 -21.464  0.00  0.00    +0.106 C 
ATOM     25  C   UNL     1      33.444  -7.036 -20.272  0.00  0.00    +0.018 C 
ATOM     26  C   UNL     1      32.154  -5.394 -21.490  0.00  0.00    +0.018 C 
ATOM     27  C   UNL     1      32.939  -6.541 -19.070  0.00  0.00    +0.001 C 
ATOM     28  C   UNL     1      31.649  -4.900 -20.287  0.00  0.00    +0.001 C 
ATOM     29  C   UNL     1      32.041  -5.472 -19.078  0.00  0.00    +0.000 C 
ENDBRANCH  21  24
ENDBRANCH  20  21
ENDBRANCH  19  20
ENDBRANCH   7  19
TORSDOF 6
ENDMDL
