MODEL 1
REMARK VINA RESULT:     -11.2      0.000      0.000
REMARK  Name = 449087
REMARK  3 active torsions:
REMARK  status: ('A' for Active; 'I' for Inactive)
REMARK    1  A    between atoms: C_5  and  C_11
REMARK    2  A    between atoms: C_8  and  C_14
REMARK    3  A    between atoms: C_14  and  C_15
REMARK                            x       y       z     vdW  Elec       q    Type
REMARK                         _______ _______ _______ _____ _____    ______ ____
ROOT
ATOM      1  O   UNL     1      35.649 -15.928 -21.202  0.00  0.00    -0.274 OA
ATOM      2  N   UNL     1      34.017 -14.353 -25.526  0.00  0.00    -0.239 N 
ATOM      3  N   UNL     1      34.540 -15.578 -25.345  0.00  0.00    -0.166 NA
ATOM      4  N   UNL     1      35.421 -16.676 -23.417  0.00  0.00    -0.268 N 
ATOM      5  C   UNL     1      33.987 -13.594 -24.392  0.00  0.00    +0.045 C 
ATOM      6  C   UNL     1      34.525 -14.377 -23.401  0.00  0.00    +0.048 C 
ATOM      7  C   UNL     1      34.841 -15.572 -24.054  0.00  0.00    +0.152 C 
ATOM      8  C   UNL     1      35.777 -16.779 -22.075  0.00  0.00    +0.232 C 
ATOM      9  H   UNL     1      33.687 -14.033 -26.396  0.00  0.00    +0.174 HD
ATOM     10  H   UNL     1      35.597 -17.465 -23.980  0.00  0.00    +0.156 HD
ENDROOT
BRANCH   5  11
ATOM     11  C   UNL     1      33.459 -12.172 -24.262  0.00  0.00    +0.037 C 
ATOM     12  C   UNL     1      34.407 -11.069 -23.860  0.00  0.00    +0.006 C 
ATOM     13  C   UNL     1      33.888 -11.133 -25.267  0.00  0.00    +0.006 C 
ENDBRANCH   5  11
BRANCH   8  14
ATOM     14  C   UNL     1      36.380 -18.150 -21.778  0.00  0.00    +0.112 C 
BRANCH  14  15
ATOM     15  C   UNL     1      35.557 -18.987 -20.857  0.00  0.00    -0.013 C 
ATOM     16  C   UNL     1      35.411 -20.498 -18.956  0.00  0.00    -0.000 C 
ATOM     17  C   UNL     1      36.172 -19.706 -19.831  0.00  0.00    -0.004 C 
ATOM     18  C   UNL     1      34.007 -20.560 -19.122  0.00  0.00    -0.000 C 
ATOM     19  C   UNL     1      34.176 -19.048 -21.019  0.00  0.00    -0.004 C 
ATOM     20  C   UNL     1      33.405 -19.829 -20.159  0.00  0.00    -0.000 C 
ATOM     21  C   UNL     1      36.014 -21.229 -17.919  0.00  0.00    -0.000 C 
ATOM     22  C   UNL     1      33.246 -21.352 -18.245  0.00  0.00    -0.000 C 
ATOM     23  C   UNL     1      35.242 -22.011 -17.058  0.00  0.00    -0.000 C 
ATOM     24  C   UNL     1      33.862 -22.072 -17.221  0.00  0.00    -0.000 C 
ENDBRANCH  14  15
ENDBRANCH   8  14
TORSDOF 3
ENDMDL
MODEL 2
REMARK VINA RESULT:     -11.2      2.691      3.352
REMARK  Name = 449087
REMARK  3 active torsions:
REMARK  status: ('A' for Active; 'I' for Inactive)
REMARK    1  A    between atoms: C_5  and  C_11
REMARK    2  A    between atoms: C_8  and  C_14
REMARK    3  A    between atoms: C_14  and  C_15
REMARK                            x       y       z     vdW  Elec       q    Type
REMARK                         _______ _______ _______ _____ _____    ______ ____
ROOT
ATOM      1  O   UNL     1      34.940 -15.249 -20.017  0.00  0.00    -0.274 OA
ATOM      2  N   UNL     1      32.746 -11.593 -22.396  0.00  0.00    -0.239 N 
ATOM      3  N   UNL     1      33.375 -12.601 -23.026  0.00  0.00    -0.166 NA
ATOM      4  N   UNL     1      34.535 -14.522 -22.214  0.00  0.00    -0.268 N 
ATOM      5  C   UNL     1      32.781 -11.687 -21.036  0.00  0.00    +0.045 C 
ATOM      6  C   UNL     1      33.478 -12.837 -20.755  0.00  0.00    +0.048 C 
ATOM      7  C   UNL     1      33.810 -13.341 -22.016  0.00  0.00    +0.152 C 
ATOM      8  C   UNL     1      35.038 -15.373 -21.232  0.00  0.00    +0.232 C 
ATOM      9  H   UNL     1      32.303 -10.855 -22.872  0.00  0.00    +0.174 HD
ATOM     10  H   UNL     1      34.708 -14.780 -23.148  0.00  0.00    +0.156 HD
ENDROOT
BRANCH   5  11
ATOM     11  C   UNL     1      32.166 -10.714 -20.039  0.00  0.00    +0.037 C 
ATOM     12  C   UNL     1      30.684 -10.781 -19.764  0.00  0.00    +0.006 C 
ATOM     13  C   UNL     1      31.660 -11.235 -18.718  0.00  0.00    +0.006 C 
ENDBRANCH   5  11
BRANCH   8  14
ATOM     14  C   UNL     1      35.769 -16.556 -21.863  0.00  0.00    +0.112 C 
BRANCH  14  15
ATOM     15  C   UNL     1      35.774 -17.785 -21.017  0.00  0.00    -0.013 C 
ATOM     16  C   UNL     1      34.560 -19.566 -19.891  0.00  0.00    -0.000 C 
ATOM     17  C   UNL     1      34.571 -18.409 -20.686  0.00  0.00    -0.004 C 
ATOM     18  C   UNL     1      35.785 -20.100 -19.427  0.00  0.00    -0.000 C 
ATOM     19  C   UNL     1      36.980 -18.310 -20.562  0.00  0.00    -0.004 C 
ATOM     20  C   UNL     1      36.987 -19.460 -19.772  0.00  0.00    -0.000 C 
ATOM     21  C   UNL     1      33.357 -20.206 -19.547  0.00  0.00    -0.000 C 
ATOM     22  C   UNL     1      35.774 -21.258 -18.633  0.00  0.00    -0.000 C 
ATOM     23  C   UNL     1      33.365 -21.356 -18.756  0.00  0.00    -0.000 C 
ATOM     24  C   UNL     1      34.570 -21.881 -18.300  0.00  0.00    -0.000 C 
ENDBRANCH  14  15
ENDBRANCH   8  14
TORSDOF 3
ENDMDL
MODEL 3
REMARK VINA RESULT:     -11.1      3.742      8.806
REMARK  Name = 449087
REMARK  3 active torsions:
REMARK  status: ('A' for Active; 'I' for Inactive)
REMARK    1  A    between atoms: C_5  and  C_11
REMARK    2  A    between atoms: C_8  and  C_14
REMARK    3  A    between atoms: C_14  and  C_15
REMARK                            x       y       z     vdW  Elec       q    Type
REMARK                         _______ _______ _______ _____ _____    ______ ____
ROOT
ATOM      1  O   UNL     1      33.863 -20.071 -19.846  0.00  0.00    -0.274 OA
ATOM      2  N   UNL     1      34.303 -22.899 -15.891  0.00  0.00    -0.239 N 
ATOM      3  N   UNL     1      35.360 -22.370 -16.531  0.00  0.00    -0.166 NA
ATOM      4  N   UNL     1      35.530 -20.968 -18.455  0.00  0.00    -0.268 N 
ATOM      5  C   UNL     1      33.101 -22.575 -16.449  0.00  0.00    +0.045 C 
ATOM      6  C   UNL     1      33.392 -21.776 -17.528  0.00  0.00    +0.048 C 
ATOM      7  C   UNL     1      34.787 -21.695 -17.517  0.00  0.00    +0.152 C 
ATOM      8  C   UNL     1      35.037 -20.227 -19.525  0.00  0.00    +0.232 C 
ATOM      9  H   UNL     1      34.388 -23.470 -15.094  0.00  0.00    +0.174 HD
ATOM     10  H   UNL     1      36.509 -20.983 -18.346  0.00  0.00    +0.156 HD
ENDROOT
BRANCH   5  11
ATOM     11  C   UNL     1      31.725 -23.010 -15.967  0.00  0.00    +0.037 C 
ATOM     12  C   UNL     1      31.162 -22.406 -14.704  0.00  0.00    +0.006 C 
ATOM     13  C   UNL     1      30.577 -22.034 -16.035  0.00  0.00    +0.006 C 
ENDBRANCH   5  11
BRANCH   8  14
ATOM     14  C   UNL     1      36.177 -19.582 -20.310  0.00  0.00    +0.112 C 
BRANCH  14  15
ATOM     15  C   UNL     1      35.808 -18.294 -20.967  0.00  0.00    -0.013 C 
ATOM     16  C   UNL     1      35.204 -15.944 -20.792  0.00  0.00    -0.000 C 
ATOM     17  C   UNL     1      35.553 -17.164 -20.190  0.00  0.00    -0.004 C 
ATOM     18  C   UNL     1      35.115 -15.869 -22.202  0.00  0.00    -0.000 C 
ATOM     19  C   UNL     1      35.720 -18.220 -22.354  0.00  0.00    -0.004 C 
ATOM     20  C   UNL     1      35.376 -17.017 -22.969  0.00  0.00    -0.000 C 
ATOM     21  C   UNL     1      34.943 -14.797 -20.025  0.00  0.00    -0.000 C 
ATOM     22  C   UNL     1      34.767 -14.649 -22.805  0.00  0.00    -0.000 C 
ATOM     23  C   UNL     1      34.598 -13.593 -20.641  0.00  0.00    -0.000 C 
ATOM     24  C   UNL     1      34.510 -13.519 -22.028  0.00  0.00    -0.000 C 
ENDBRANCH  14  15
ENDBRANCH   8  14
TORSDOF 3
ENDMDL
MODEL 4
REMARK VINA RESULT:     -11.1      5.921     10.706
REMARK  Name = 449087
REMARK  3 active torsions:
REMARK  status: ('A' for Active; 'I' for Inactive)
REMARK    1  A    between atoms: C_5  and  C_11
REMARK    2  A    between atoms: C_8  and  C_14
REMARK    3  A    between atoms: C_14  and  C_15
REMARK                            x       y       z     vdW  Elec       q    Type
REMARK                         _______ _______ _______ _____ _____    ______ ____
ROOT
ATOM      1  O   UNL     1      35.601 -22.434 -16.583  0.00  0.00    -0.274 OA
ATOM      2  N   UNL     1      34.804 -23.970 -12.018  0.00  0.00    -0.239 N 
ATOM      3  N   UNL     1      33.811 -23.722 -12.888  0.00  0.00    -0.166 NA
ATOM      4  N   UNL     1      33.816 -22.976 -15.155  0.00  0.00    -0.268 N 
ATOM      5  C   UNL     1      36.051 -23.752 -12.527  0.00  0.00    +0.045 C 
ATOM      6  C   UNL     1      35.860 -23.334 -13.822  0.00  0.00    +0.048 C 
ATOM      7  C   UNL     1      34.470 -23.339 -13.972  0.00  0.00    +0.152 C 
ATOM      8  C   UNL     1      34.404 -22.560 -16.347  0.00  0.00    +0.232 C 
ATOM      9  H   UNL     1      34.647 -24.280 -11.097  0.00  0.00    +0.174 HD
ATOM     10  H   UNL     1      32.832 -23.020 -15.144  0.00  0.00    +0.156 HD
ENDROOT
BRANCH   5  11
ATOM     11  C   UNL     1      37.377 -23.939 -11.803  0.00  0.00    +0.037 C 
ATOM     12  C   UNL     1      37.984 -25.318 -11.725  0.00  0.00    +0.006 C 
ATOM     13  C   UNL     1      38.611 -24.274 -12.603  0.00  0.00    +0.006 C 
ENDBRANCH   5  11
BRANCH   8  14
ATOM     14  C   UNL     1      33.341 -22.259 -17.400  0.00  0.00    +0.112 C 
BRANCH  14  15
ATOM     15  C   UNL     1      33.758 -21.240 -18.407  0.00  0.00    -0.013 C 
ATOM     16  C   UNL     1      35.517 -19.971 -19.508  0.00  0.00    -0.000 C 
ATOM     17  C   UNL     1      35.108 -20.928 -18.565  0.00  0.00    -0.004 C 
ATOM     18  C   UNL     1      34.543 -19.323 -20.304  0.00  0.00    -0.000 C 
ATOM     19  C   UNL     1      32.800 -20.602 -19.190  0.00  0.00    -0.004 C 
ATOM     20  C   UNL     1      33.188 -19.650 -20.132  0.00  0.00    -0.000 C 
ATOM     21  C   UNL     1      36.872 -19.643 -19.679  0.00  0.00    -0.000 C 
ATOM     22  C   UNL     1      34.952 -18.366 -21.248  0.00  0.00    -0.000 C 
ATOM     23  C   UNL     1      37.260 -18.690 -20.622  0.00  0.00    -0.000 C 
ATOM     24  C   UNL     1      36.302 -18.053 -21.404  0.00  0.00    -0.000 C 
ENDBRANCH  14  15
ENDBRANCH   8  14
TORSDOF 3
ENDMDL
MODEL 5
REMARK VINA RESULT:     -11.0      2.208      2.716
REMARK  Name = 449087
REMARK  3 active torsions:
REMARK  status: ('A' for Active; 'I' for Inactive)
REMARK    1  A    between atoms: C_5  and  C_11
REMARK    2  A    between atoms: C_8  and  C_14
REMARK    3  A    between atoms: C_14  and  C_15
REMARK                            x       y       z     vdW  Elec       q    Type
REMARK                         _______ _______ _______ _____ _____    ______ ____
ROOT
ATOM      1  O   UNL     1      36.443 -18.198 -22.235  0.00  0.00    -0.274 OA
ATOM      2  N   UNL     1      34.613 -14.093 -20.326  0.00  0.00    -0.239 N 
ATOM      3  N   UNL     1      34.982 -15.145 -19.576  0.00  0.00    -0.166 NA
ATOM      4  N   UNL     1      35.899 -17.275 -20.144  0.00  0.00    -0.268 N 
ATOM      5  C   UNL     1      34.796 -14.280 -21.665  0.00  0.00    +0.045 C 
ATOM      6  C   UNL     1      35.323 -15.540 -21.800  0.00  0.00    +0.048 C 
ATOM      7  C   UNL     1      35.408 -16.009 -20.487  0.00  0.00    +0.152 C 
ATOM      8  C   UNL     1      36.370 -18.257 -21.012  0.00  0.00    +0.232 C 
ATOM      9  H   UNL     1      34.244 -13.264 -19.945  0.00  0.00    +0.174 HD
ATOM     10  H   UNL     1      35.913 -17.495 -19.184  0.00  0.00    +0.156 HD
ENDROOT
BRANCH   5  11
ATOM     11  C   UNL     1      34.480 -13.286 -22.775  0.00  0.00    +0.037 C 
ATOM     12  C   UNL     1      33.470 -13.659 -23.832  0.00  0.00    +0.006 C 
ATOM     13  C   UNL     1      33.128 -12.620 -22.804  0.00  0.00    +0.006 C 
ENDBRANCH   5  11
BRANCH   8  14
ATOM     14  C   UNL     1      36.817 -19.495 -20.239  0.00  0.00    +0.112 C 
BRANCH  14  15
ATOM     15  C   UNL     1      35.725 -20.151 -19.463  0.00  0.00    -0.013 C 
ATOM     16  C   UNL     1      35.012 -21.511 -17.576  0.00  0.00    -0.000 C 
ATOM     17  C   UNL     1      36.029 -20.887 -18.317  0.00  0.00    -0.004 C 
ATOM     18  C   UNL     1      33.669 -21.385 -18.001  0.00  0.00    -0.000 C 
ATOM     19  C   UNL     1      34.403 -20.027 -19.881  0.00  0.00    -0.004 C 
ATOM     20  C   UNL     1      33.381 -20.640 -19.156  0.00  0.00    -0.000 C 
ATOM     21  C   UNL     1      35.301 -22.256 -16.421  0.00  0.00    -0.000 C 
ATOM     22  C   UNL     1      32.652 -22.008 -17.259  0.00  0.00    -0.000 C 
ATOM     23  C   UNL     1      34.278 -22.869 -15.696  0.00  0.00    -0.000 C 
ATOM     24  C   UNL     1      32.956 -22.746 -16.114  0.00  0.00    -0.000 C 
ENDBRANCH  14  15
ENDBRANCH   8  14
TORSDOF 3
ENDMDL
MODEL 6
REMARK VINA RESULT:     -10.9      3.945      8.998
REMARK  Name = 449087
REMARK  3 active torsions:
REMARK  status: ('A' for Active; 'I' for Inactive)
REMARK    1  A    between atoms: C_5  and  C_11
REMARK    2  A    between atoms: C_8  and  C_14
REMARK    3  A    between atoms: C_14  and  C_15
REMARK                            x       y       z     vdW  Elec       q    Type
REMARK                         _______ _______ _______ _____ _____    ______ ____
ROOT
ATOM      1  O   UNL     1      33.668 -20.398 -19.606  0.00  0.00    -0.274 OA
ATOM      2  N   UNL     1      33.851 -23.114 -15.552  0.00  0.00    -0.239 N 
ATOM      3  N   UNL     1      34.952 -22.677 -16.188  0.00  0.00    -0.166 NA
ATOM      4  N   UNL     1      35.248 -21.355 -18.154  0.00  0.00    -0.268 N 
ATOM      5  C   UNL     1      32.684 -22.730 -16.144  0.00  0.00    +0.045 C 
ATOM      6  C   UNL     1      33.045 -21.989 -17.242  0.00  0.00    +0.048 C 
ATOM      7  C   UNL     1      34.442 -21.999 -17.207  0.00  0.00    +0.152 C 
ATOM      8  C   UNL     1      34.823 -20.620 -19.257  0.00  0.00    +0.232 C 
ATOM      9  H   UNL     1      33.884 -23.661 -14.735  0.00  0.00    +0.174 HD
ATOM     10  H   UNL     1      36.221 -21.430 -18.025  0.00  0.00    +0.156 HD
ENDROOT
BRANCH   5  11
ATOM     11  C   UNL     1      31.273 -23.058 -15.674  0.00  0.00    +0.037 C 
ATOM     12  C   UNL     1      30.692 -22.300 -14.506  0.00  0.00    +0.006 C 
ATOM     13  C   UNL     1      30.172 -22.050 -15.892  0.00  0.00    +0.006 C 
ENDBRANCH   5  11
BRANCH   8  14
ATOM     14  C   UNL     1      36.016 -20.078 -20.040  0.00  0.00    +0.112 C 
BRANCH  14  15
ATOM     15  C   UNL     1      35.703 -18.877 -20.868  0.00  0.00    -0.013 C 
ATOM     16  C   UNL     1      34.855 -17.911 -22.932  0.00  0.00    -0.000 C 
ATOM     17  C   UNL     1      35.155 -19.031 -22.141  0.00  0.00    -0.004 C 
ATOM     18  C   UNL     1      35.112 -16.615 -22.424  0.00  0.00    -0.000 C 
ATOM     19  C   UNL     1      35.956 -17.603 -20.368  0.00  0.00    -0.004 C 
ATOM     20  C   UNL     1      35.663 -16.479 -21.140  0.00  0.00    -0.000 C 
ATOM     21  C   UNL     1      34.304 -18.048 -24.217  0.00  0.00    -0.000 C 
ATOM     22  C   UNL     1      34.810 -15.494 -23.216  0.00  0.00    -0.000 C 
ATOM     23  C   UNL     1      34.011 -16.923 -24.990  0.00  0.00    -0.000 C 
ATOM     24  C   UNL     1      34.264 -15.649 -24.490  0.00  0.00    -0.000 C 
ENDBRANCH  14  15
ENDBRANCH   8  14
TORSDOF 3
ENDMDL
MODEL 7
REMARK VINA RESULT:     -10.9      2.704      8.365
REMARK  Name = 449087
REMARK  3 active torsions:
REMARK  status: ('A' for Active; 'I' for Inactive)
REMARK    1  A    between atoms: C_5  and  C_11
REMARK    2  A    between atoms: C_8  and  C_14
REMARK    3  A    between atoms: C_14  and  C_15
REMARK                            x       y       z     vdW  Elec       q    Type
REMARK                         _______ _______ _______ _____ _____    ______ ____
ROOT
ATOM      1  O   UNL     1      37.057 -19.326 -19.958  0.00  0.00    -0.274 OA
ATOM      2  N   UNL     1      32.669 -21.175 -18.881  0.00  0.00    -0.239 N 
ATOM      3  N   UNL     1      32.846 -20.192 -19.781  0.00  0.00    -0.166 NA
ATOM      4  N   UNL     1      34.800 -19.060 -20.553  0.00  0.00    -0.268 N 
ATOM      5  C   UNL     1      33.826 -21.604 -18.299  0.00  0.00    +0.045 C 
ATOM      6  C   UNL     1      34.829 -20.851 -18.858  0.00  0.00    +0.048 C 
ATOM      7  C   UNL     1      34.159 -20.011 -19.751  0.00  0.00    +0.152 C 
ATOM      8  C   UNL     1      36.165 -18.787 -20.604  0.00  0.00    +0.232 C 
ATOM      9  H   UNL     1      31.786 -21.550 -18.662  0.00  0.00    +0.174 HD
ATOM     10  H   UNL     1      34.224 -18.525 -21.147  0.00  0.00    +0.156 HD
ENDROOT
BRANCH   5  11
ATOM     11  C   UNL     1      33.966 -22.697 -17.248  0.00  0.00    +0.037 C 
ATOM     12  C   UNL     1      34.468 -22.335 -15.872  0.00  0.00    +0.006 C 
ATOM     13  C   UNL     1      33.027 -22.708 -16.068  0.00  0.00    +0.006 C 
ENDBRANCH   5  11
BRANCH   8  14
ATOM     14  C   UNL     1      36.459 -17.677 -21.610  0.00  0.00    +0.112 C 
BRANCH  14  15
ATOM     15  C   UNL     1      35.689 -16.422 -21.370  0.00  0.00    -0.013 C 
ATOM     16  C   UNL     1      34.589 -14.433 -22.235  0.00  0.00    -0.000 C 
ATOM     17  C   UNL     1      35.313 -15.617 -22.446  0.00  0.00    -0.004 C 
ATOM     18  C   UNL     1      34.239 -14.060 -20.916  0.00  0.00    -0.000 C 
ATOM     19  C   UNL     1      35.345 -16.055 -20.072  0.00  0.00    -0.004 C 
ATOM     20  C   UNL     1      34.625 -14.882 -19.845  0.00  0.00    -0.000 C 
ATOM     21  C   UNL     1      34.203 -13.610 -23.307  0.00  0.00    -0.000 C 
ATOM     22  C   UNL     1      33.514 -12.875 -20.706  0.00  0.00    -0.000 C 
ATOM     23  C   UNL     1      33.483 -12.437 -23.080  0.00  0.00    -0.000 C 
ATOM     24  C   UNL     1      33.139 -12.070 -21.782  0.00  0.00    -0.000 C 
ENDBRANCH  14  15
ENDBRANCH   8  14
TORSDOF 3
ENDMDL
MODEL 8
REMARK VINA RESULT:     -10.7      1.576      2.185
REMARK  Name = 449087
REMARK  3 active torsions:
REMARK  status: ('A' for Active; 'I' for Inactive)
REMARK    1  A    between atoms: C_5  and  C_11
REMARK    2  A    between atoms: C_8  and  C_14
REMARK    3  A    between atoms: C_14  and  C_15
REMARK                            x       y       z     vdW  Elec       q    Type
REMARK                         _______ _______ _______ _____ _____    ______ ____
ROOT
ATOM      1  O   UNL     1      35.914 -17.257 -19.750  0.00  0.00    -0.274 OA
ATOM      2  N   UNL     1      34.742 -14.924 -23.876  0.00  0.00    -0.239 N 
ATOM      3  N   UNL     1      35.185 -16.193 -23.855  0.00  0.00    -0.166 NA
ATOM      4  N   UNL     1      35.841 -17.632 -22.068  0.00  0.00    -0.268 N 
ATOM      5  C   UNL     1      34.653 -14.352 -22.641  0.00  0.00    +0.045 C 
ATOM      6  C   UNL     1      35.063 -15.313 -21.750  0.00  0.00    +0.048 C 
ATOM      7  C   UNL     1      35.374 -16.408 -22.561  0.00  0.00    +0.152 C 
ATOM      8  C   UNL     1      36.074 -17.967 -20.736  0.00  0.00    +0.232 C 
ATOM      9  H   UNL     1      34.505 -14.451 -24.706  0.00  0.00    +0.174 HD
ATOM     10  H   UNL     1      36.025 -18.333 -22.735  0.00  0.00    +0.156 HD
ENDROOT
BRANCH   5  11
ATOM     11  C   UNL     1      34.187 -12.937 -22.324  0.00  0.00    +0.037 C 
ATOM     12  C   UNL     1      32.710 -12.659 -22.201  0.00  0.00    +0.006 C 
ATOM     13  C   UNL     1      33.577 -12.648 -20.976  0.00  0.00    +0.006 C 
ENDBRANCH   5  11
BRANCH   8  14
ATOM     14  C   UNL     1      36.580 -19.403 -20.619  0.00  0.00    +0.112 C 
BRANCH  14  15
ATOM     15  C   UNL     1      35.913 -20.194 -19.543  0.00  0.00    -0.013 C 
ATOM     16  C   UNL     1      36.019 -21.322 -17.391  0.00  0.00    -0.000 C 
ATOM     17  C   UNL     1      36.633 -20.578 -18.412  0.00  0.00    -0.004 C 
ATOM     18  C   UNL     1      34.656 -21.680 -17.519  0.00  0.00    -0.000 C 
ATOM     19  C   UNL     1      34.572 -20.546 -19.669  0.00  0.00    -0.004 C 
ATOM     20  C   UNL     1      33.947 -21.284 -18.665  0.00  0.00    -0.000 C 
ATOM     21  C   UNL     1      36.729 -21.719 -16.246  0.00  0.00    -0.000 C 
ATOM     22  C   UNL     1      34.043 -22.425 -16.498  0.00  0.00    -0.000 C 
ATOM     23  C   UNL     1      36.104 -22.458 -15.241  0.00  0.00    -0.000 C 
ATOM     24  C   UNL     1      34.763 -22.810 -15.367  0.00  0.00    -0.000 C 
ENDBRANCH  14  15
ENDBRANCH   8  14
TORSDOF 3
ENDMDL
MODEL 9
REMARK VINA RESULT:     -10.6      5.960     11.014
REMARK  Name = 449087
REMARK  3 active torsions:
REMARK  status: ('A' for Active; 'I' for Inactive)
REMARK    1  A    between atoms: C_5  and  C_11
REMARK    2  A    between atoms: C_8  and  C_14
REMARK    3  A    between atoms: C_14  and  C_15
REMARK                            x       y       z     vdW  Elec       q    Type
REMARK                         _______ _______ _______ _____ _____    ______ ____
ROOT
ATOM      1  O   UNL     1      34.059 -21.989 -14.763  0.00  0.00    -0.274 OA
ATOM      2  N   UNL     1      36.876 -25.847 -13.755  0.00  0.00    -0.239 N 
ATOM      3  N   UNL     1      36.336 -25.635 -14.967  0.00  0.00    -0.166 NA
ATOM      4  N   UNL     1      34.937 -23.897 -15.816  0.00  0.00    -0.268 N 
ATOM      5  C   UNL     1      36.564 -24.888 -12.837  0.00  0.00    +0.045 C 
ATOM      6  C   UNL     1      35.765 -23.985 -13.494  0.00  0.00    +0.048 C 
ATOM      7  C   UNL     1      35.668 -24.504 -14.788  0.00  0.00    +0.152 C 
ATOM      8  C   UNL     1      34.202 -22.716 -15.740  0.00  0.00    +0.232 C 
ATOM      9  H   UNL     1      37.445 -26.624 -13.549  0.00  0.00    +0.174 HD
ATOM     10  H   UNL     1      34.942 -24.354 -16.688  0.00  0.00    +0.156 HD
ENDROOT
BRANCH   5  11
ATOM     11  C   UNL     1      37.015 -24.837 -11.384  0.00  0.00    +0.037 C 
ATOM     12  C   UNL     1      38.086 -23.854 -10.980  0.00  0.00    +0.006 C 
ATOM     13  C   UNL     1      36.666 -23.632 -10.547  0.00  0.00    +0.006 C 
ENDBRANCH   5  11
BRANCH   8  14
ATOM     14  C   UNL     1      33.552 -22.394 -17.083  0.00  0.00    +0.112 C 
BRANCH  14  15
ATOM     15  C   UNL     1      34.375 -21.507 -17.956  0.00  0.00    -0.013 C 
ATOM     16  C   UNL     1      34.530 -19.946 -19.815  0.00  0.00    -0.000 C 
ATOM     17  C   UNL     1      33.769 -20.785 -18.985  0.00  0.00    -0.004 C 
ATOM     18  C   UNL     1      35.924 -19.836 -19.598  0.00  0.00    -0.000 C 
ATOM     19  C   UNL     1      35.746 -21.399 -17.743  0.00  0.00    -0.004 C 
ATOM     20  C   UNL     1      36.517 -20.569 -18.558  0.00  0.00    -0.000 C 
ATOM     21  C   UNL     1      33.937 -19.212 -20.856  0.00  0.00    -0.000 C 
ATOM     22  C   UNL     1      36.684 -18.996 -20.429  0.00  0.00    -0.000 C 
ATOM     23  C   UNL     1      34.708 -18.383 -21.672  0.00  0.00    -0.000 C 
ATOM     24  C   UNL     1      36.079 -18.275 -21.458  0.00  0.00    -0.000 C 
ENDBRANCH  14  15
ENDBRANCH   8  14
TORSDOF 3
ENDMDL
