MODEL 1
REMARK VINA RESULT:     -11.9      0.000      0.000
REMARK  Name = 5291
REMARK  6 active torsions:
REMARK  status: ('A' for Active; 'I' for Inactive)
REMARK    1  A    between atoms: C_1  and  N_23
REMARK    2  A    between atoms: C_2  and  N_8
REMARK    3  A    between atoms: C_12  and  C_17
REMARK    4  A    between atoms: C_24  and  C_31
REMARK    5  A    between atoms: C_26  and  C_32
REMARK    6  A    between atoms: C_32  and  N_33
REMARK                            x       y       z     vdW  Elec       q    Type
REMARK                         _______ _______ _______ _____ _____    ______ ____
ROOT
ATOM      1  C   UNL     1      34.402 -19.606 -19.937  0.00  0.00    +0.052 C 
ATOM      2  C   UNL     1      33.227 -21.186 -18.570  0.00  0.00    +0.055 C 
ATOM      3  C   UNL     1      33.269 -19.954 -19.222  0.00  0.00    +0.030 C 
ATOM      4  C   UNL     1      34.319 -22.050 -18.642  0.00  0.00    -0.008 C 
ATOM      5  C   UNL     1      35.494 -20.451 -20.019  0.00  0.00    +0.014 C 
ATOM      6  C   UNL     1      35.453 -21.683 -19.366  0.00  0.00    -0.002 C 
ATOM      7  C   UNL     1      34.302 -23.376 -17.952  0.00  0.00    +0.032 C 
ENDROOT
BRANCH   2   8
ATOM      8  N   UNL     1      32.071 -21.543 -17.841  0.00  0.00    -0.248 N 
ATOM      9  N   UNL     1      32.997 -22.265 -15.809  0.00  0.00    -0.337 NA
ATOM     10  N   UNL     1      30.613 -22.288 -16.159  0.00  0.00    -0.170 NA
ATOM     11  C   UNL     1      31.885 -22.056 -16.543  0.00  0.00    +0.149 C 
ATOM     12  C   UNL     1      32.783 -22.758 -14.571  0.00  0.00    +0.147 C 
ATOM     13  C   UNL     1      31.530 -23.036 -14.063  0.00  0.00    +0.055 C 
ATOM     14  C   UNL     1      30.472 -22.780 -14.910  0.00  0.00    +0.114 C 
ATOM     15  H   UNL     1      31.232 -21.406 -18.336  0.00  0.00    +0.165 HD
BRANCH  12  17
ATOM     16  N   UNL     1      34.973 -23.767 -11.729  0.00  0.00    -0.242 NA
ATOM     17  C   UNL     1      33.973 -22.981 -13.786  0.00  0.00    +0.050 C 
ATOM     18  C   UNL     1      35.231 -22.649 -14.279  0.00  0.00    +0.006 C 
ATOM     19  C   UNL     1      33.900 -23.532 -12.517  0.00  0.00    +0.101 C 
ATOM     20  C   UNL     1      36.359 -22.876 -13.499  0.00  0.00    +0.021 C 
ATOM     21  C   UNL     1      36.178 -23.432 -12.243  0.00  0.00    +0.099 C 
ENDBRANCH  12  17
ENDBRANCH   2   8
BRANCH   1  23
ATOM     22  O   UNL     1      36.491 -17.455 -19.888  0.00  0.00    -0.270 OA
ATOM     23  N   UNL     1      34.444 -18.355 -20.600  0.00  0.00    -0.280 N 
ATOM     24  C   UNL     1      35.444 -17.373 -20.551  0.00  0.00    +0.249 C 
ATOM     25  H   UNL     1      33.669 -18.148 -21.172  0.00  0.00    +0.155 HD
BRANCH  24  31
ATOM     26  C   UNL     1      34.704 -13.872 -22.806  0.00  0.00    -0.043 C 
ATOM     27  C   UNL     1      34.708 -13.803 -21.420  0.00  0.00    -0.006 C 
ATOM     28  C   UNL     1      34.939 -15.071 -23.463  0.00  0.00    -0.006 C 
ATOM     29  C   UNL     1      34.953 -14.958 -20.677  0.00  0.00    +0.004 C 
ATOM     30  C   UNL     1      35.184 -16.226 -22.720  0.00  0.00    +0.004 C 
ATOM     31  C   UNL     1      35.191 -16.169 -21.327  0.00  0.00    +0.054 C 
BRANCH  26  32
ATOM     32  C   UNL     1      34.441 -12.626 -23.609  0.00  0.00    -0.050 C 
BRANCH  32  33
ATOM     33  N   UNL     1      34.019 -11.511 -22.763  0.00  0.00    +0.387 N 
ATOM     34  N   UNL     1      32.280  -9.301 -22.089  0.00  0.00    +0.383 N 
ATOM     35  C   UNL     1      32.667 -11.738 -22.238  0.00  0.00    -0.100 C 
ATOM     36  C   UNL     1      34.076 -10.245 -23.502  0.00  0.00    -0.100 C 
ATOM     37  C   UNL     1      32.224 -10.569 -21.351  0.00  0.00    -0.101 C 
ATOM     38  C   UNL     1      33.632  -9.075 -22.617  0.00  0.00    -0.101 C 
ATOM     39  C   UNL     1      31.860  -8.188 -21.242  0.00  0.00    -0.101 C 
ATOM     40  H   UNL     1      34.664 -11.453 -21.975  0.00  0.00    -0.079 HD
ATOM     41  H   UNL     1      31.634  -9.359 -22.877  0.00  0.00    -0.080 HD
ENDBRANCH  32  33
ENDBRANCH  26  32
ENDBRANCH  24  31
ENDBRANCH   1  23
TORSDOF 6
ENDMDL
MODEL 2
REMARK VINA RESULT:     -11.4      1.244      1.536
REMARK  Name = 5291
REMARK  6 active torsions:
REMARK  status: ('A' for Active; 'I' for Inactive)
REMARK    1  A    between atoms: C_1  and  N_23
REMARK    2  A    between atoms: C_2  and  N_8
REMARK    3  A    between atoms: C_12  and  C_17
REMARK    4  A    between atoms: C_24  and  C_31
REMARK    5  A    between atoms: C_26  and  C_32
REMARK    6  A    between atoms: C_32  and  N_33
REMARK                            x       y       z     vdW  Elec       q    Type
REMARK                         _______ _______ _______ _____ _____    ______ ____
ROOT
ATOM      1  C   UNL     1      35.028 -18.508 -20.439  0.00  0.00    +0.052 C 
ATOM      2  C   UNL     1      34.094 -20.366 -19.246  0.00  0.00    +0.055 C 
ATOM      3  C   UNL     1      33.947 -19.097 -19.805  0.00  0.00    +0.030 C 
ATOM      4  C   UNL     1      35.320 -21.027 -19.330  0.00  0.00    -0.008 C 
ATOM      5  C   UNL     1      36.251 -19.149 -20.531  0.00  0.00    +0.014 C 
ATOM      6  C   UNL     1      36.398 -20.419 -19.971  0.00  0.00    -0.002 C 
ATOM      7  C   UNL     1      35.506 -22.387 -18.739  0.00  0.00    +0.032 C 
ENDROOT
BRANCH   2   8
ATOM      8  N   UNL     1      32.992 -20.969 -18.600  0.00  0.00    -0.248 N 
ATOM      9  N   UNL     1      33.997 -21.841 -16.666  0.00  0.00    -0.337 NA
ATOM     10  N   UNL     1      31.638 -22.124 -17.071  0.00  0.00    -0.170 NA
ATOM     11  C   UNL     1      32.870 -21.677 -17.390  0.00  0.00    +0.149 C 
ATOM     12  C   UNL     1      33.844 -22.524 -15.513  0.00  0.00    +0.147 C 
ATOM     13  C   UNL     1      32.637 -23.031 -15.077  0.00  0.00    +0.055 C 
ATOM     14  C   UNL     1      31.557 -22.799 -15.904  0.00  0.00    +0.114 C 
ATOM     15  H   UNL     1      32.145 -20.874 -19.091  0.00  0.00    +0.165 HD
BRANCH  12  17
ATOM     16  N   UNL     1      36.109 -23.500 -12.719  0.00  0.00    -0.242 NA
ATOM     17  C   UNL     1      35.049 -22.698 -14.739  0.00  0.00    +0.050 C 
ATOM     18  C   UNL     1      36.280 -22.262 -15.219  0.00  0.00    +0.006 C 
ATOM     19  C   UNL     1      35.019 -23.306 -13.494  0.00  0.00    +0.101 C 
ATOM     20  C   UNL     1      37.424 -22.443 -14.450  0.00  0.00    +0.021 C 
ATOM     21  C   UNL     1      37.286 -23.063 -13.219  0.00  0.00    +0.099 C 
ENDBRANCH  12  17
ENDBRANCH   2   8
BRANCH   1  23
ATOM     22  O   UNL     1      35.584 -15.800 -19.276  0.00  0.00    -0.270 OA
ATOM     23  N   UNL     1      34.878 -17.220 -21.007  0.00  0.00    -0.280 N 
ATOM     24  C   UNL     1      35.151 -15.972 -20.427  0.00  0.00    +0.249 C 
ATOM     25  H   UNL     1      34.538 -17.196 -21.931  0.00  0.00    +0.155 HD
BRANCH  24  31
ATOM     26  C   UNL     1      34.327 -12.595 -22.838  0.00  0.00    -0.043 C 
ATOM     27  C   UNL     1      34.266 -12.479 -21.457  0.00  0.00    -0.006 C 
ATOM     28  C   UNL     1      34.655 -13.802 -23.441  0.00  0.00    -0.006 C 
ATOM     29  C   UNL     1      34.538 -13.593 -20.662  0.00  0.00    +0.004 C 
ATOM     30  C   UNL     1      34.927 -14.915 -22.646  0.00  0.00    +0.004 C 
ATOM     31  C   UNL     1      34.869 -14.811 -21.257  0.00  0.00    +0.054 C 
BRANCH  26  32
ATOM     32  C   UNL     1      34.034 -11.394 -23.697  0.00  0.00    -0.050 C 
BRANCH  32  33
ATOM     33  N   UNL     1      33.937 -10.169 -22.905  0.00  0.00    +0.387 N 
ATOM     34  N   UNL     1      33.061  -7.449 -22.462  0.00  0.00    +0.383 N 
ATOM     35  C   UNL     1      32.536  -9.861 -22.591  0.00  0.00    -0.100 C 
ATOM     36  C   UNL     1      34.564  -9.043 -23.607  0.00  0.00    -0.100 C 
ATOM     37  C   UNL     1      32.434  -8.576 -21.761  0.00  0.00    -0.101 C 
ATOM     38  C   UNL     1      34.462  -7.757 -22.779  0.00  0.00    -0.101 C 
ATOM     39  C   UNL     1      32.965  -6.226 -21.669  0.00  0.00    -0.101 C 
ATOM     40  H   UNL     1      34.437 -10.321 -22.029  0.00  0.00    -0.079 HD
ATOM     41  H   UNL     1      32.561  -7.297 -23.338  0.00  0.00    -0.080 HD
ENDBRANCH  32  33
ENDBRANCH  26  32
ENDBRANCH  24  31
ENDBRANCH   1  23
TORSDOF 6
ENDMDL
MODEL 3
REMARK VINA RESULT:     -11.2      1.656      2.813
REMARK  Name = 5291
REMARK  6 active torsions:
REMARK  status: ('A' for Active; 'I' for Inactive)
REMARK    1  A    between atoms: C_1  and  N_23
REMARK    2  A    between atoms: C_2  and  N_8
REMARK    3  A    between atoms: C_12  and  C_17
REMARK    4  A    between atoms: C_24  and  C_31
REMARK    5  A    between atoms: C_26  and  C_32
REMARK    6  A    between atoms: C_32  and  N_33
REMARK                            x       y       z     vdW  Elec       q    Type
REMARK                         _______ _______ _______ _____ _____    ______ ____
ROOT
ATOM      1  C   UNL     1      34.452 -18.948 -20.254  0.00  0.00    +0.052 C 
ATOM      2  C   UNL     1      35.497 -20.569 -18.831  0.00  0.00    +0.055 C 
ATOM      3  C   UNL     1      35.528 -19.332 -19.472  0.00  0.00    +0.030 C 
ATOM      4  C   UNL     1      34.391 -21.406 -18.982  0.00  0.00    -0.008 C 
ATOM      5  C   UNL     1      33.346 -19.766 -20.415  0.00  0.00    +0.014 C 
ATOM      6  C   UNL     1      33.316 -21.004 -19.774  0.00  0.00    -0.002 C 
ATOM      7  C   UNL     1      34.332 -22.738 -18.307  0.00  0.00    +0.032 C 
ENDROOT
BRANCH   2   8
ATOM      8  N   UNL     1      36.594 -20.961 -18.031  0.00  0.00    -0.248 N 
ATOM      9  N   UNL     1      35.513 -21.872 -16.158  0.00  0.00    -0.337 NA
ATOM     10  N   UNL     1      37.918 -21.812 -16.291  0.00  0.00    -0.170 NA
ATOM     11  C   UNL     1      36.679 -21.577 -16.769  0.00  0.00    +0.149 C 
ATOM     12  C   UNL     1      35.630 -22.460 -14.950  0.00  0.00    +0.147 C 
ATOM     13  C   UNL     1      36.841 -22.753 -14.354  0.00  0.00    +0.055 C 
ATOM     14  C   UNL     1      37.962 -22.403 -15.078  0.00  0.00    +0.114 C 
ATOM     15  H   UNL     1      37.469 -20.767 -18.437  0.00  0.00    +0.165 HD
BRANCH  12  17
ATOM     16  N   UNL     1      33.226 -23.786 -12.429  0.00  0.00    -0.242 NA
ATOM     17  C   UNL     1      34.382 -22.776 -14.297  0.00  0.00    +0.050 C 
ATOM     18  C   UNL     1      33.165 -22.403 -14.858  0.00  0.00    +0.006 C 
ATOM     19  C   UNL     1      34.358 -23.459 -13.092  0.00  0.00    +0.101 C 
ATOM     20  C   UNL     1      31.979 -22.722 -14.206  0.00  0.00    +0.021 C 
ATOM     21  C   UNL     1      32.063 -23.408 -13.005  0.00  0.00    +0.099 C 
ENDBRANCH  12  17
ENDBRANCH   2   8
BRANCH   1  23
ATOM     22  O   UNL     1      35.814 -16.395 -19.471  0.00  0.00    -0.270 OA
ATOM     23  N   UNL     1      34.482 -17.691 -20.904  0.00  0.00    -0.280 N 
ATOM     24  C   UNL     1      35.135 -16.516 -20.503  0.00  0.00    +0.249 C 
ATOM     25  H   UNL     1      33.980 -17.633 -21.749  0.00  0.00    +0.155 HD
BRANCH  24  31
ATOM     26  C   UNL     1      34.619 -13.164 -23.031  0.00  0.00    -0.043 C 
ATOM     27  C   UNL     1      34.590 -12.992 -21.655  0.00  0.00    -0.006 C 
ATOM     28  C   UNL     1      34.816 -14.419 -23.591  0.00  0.00    -0.006 C 
ATOM     29  C   UNL     1      34.760 -14.097 -20.822  0.00  0.00    +0.004 C 
ATOM     30  C   UNL     1      34.986 -15.524 -22.758  0.00  0.00    +0.004 C 
ATOM     31  C   UNL     1      34.959 -15.363 -21.373  0.00  0.00    +0.054 C 
BRANCH  26  32
ATOM     32  C   UNL     1      34.436 -11.971 -23.932  0.00  0.00    -0.050 C 
BRANCH  32  33
ATOM     33  N   UNL     1      34.356 -10.723 -23.174  0.00  0.00    +0.387 N 
ATOM     34  N   UNL     1      33.470  -8.000 -22.781  0.00  0.00    +0.383 N 
ATOM     35  C   UNL     1      32.965 -10.419 -22.818  0.00  0.00    -0.100 C 
ATOM     36  C   UNL     1      34.946  -9.614 -23.932  0.00  0.00    -0.100 C 
ATOM     37  C   UNL     1      32.880  -9.110 -22.024  0.00  0.00    -0.101 C 
ATOM     38  C   UNL     1      34.861  -8.305 -23.140  0.00  0.00    -0.101 C 
ATOM     39  C   UNL     1      33.390  -6.754 -22.022  0.00  0.00    -0.101 C 
ATOM     40  H   UNL     1      34.889 -10.844 -22.313  0.00  0.00    -0.079 HD
ATOM     41  H   UNL     1      32.936  -7.878 -23.642  0.00  0.00    -0.080 HD
ENDBRANCH  32  33
ENDBRANCH  26  32
ENDBRANCH  24  31
ENDBRANCH   1  23
TORSDOF 6
ENDMDL
MODEL 4
REMARK VINA RESULT:     -11.2      6.135     15.674
REMARK  Name = 5291
REMARK  6 active torsions:
REMARK  status: ('A' for Active; 'I' for Inactive)
REMARK    1  A    between atoms: C_1  and  N_23
REMARK    2  A    between atoms: C_2  and  N_8
REMARK    3  A    between atoms: C_12  and  C_17
REMARK    4  A    between atoms: C_24  and  C_31
REMARK    5  A    between atoms: C_26  and  C_32
REMARK    6  A    between atoms: C_32  and  N_33
REMARK                            x       y       z     vdW  Elec       q    Type
REMARK                         _______ _______ _______ _____ _____    ______ ____
ROOT
ATOM      1  C   UNL     1      32.795  -7.745 -22.091  0.00  0.00    +0.052 C 
ATOM      2  C   UNL     1      31.964  -5.506 -22.290  0.00  0.00    +0.055 C 
ATOM      3  C   UNL     1      32.184  -6.763 -22.851  0.00  0.00    +0.030 C 
ATOM      4  C   UNL     1      32.359  -5.249 -20.977  0.00  0.00    -0.008 C 
ATOM      5  C   UNL     1      33.193  -7.508 -20.787  0.00  0.00    +0.014 C 
ATOM      6  C   UNL     1      32.974  -6.250 -20.226  0.00  0.00    -0.002 C 
ATOM      7  C   UNL     1      32.137  -3.911 -20.351  0.00  0.00    +0.032 C 
ENDROOT
BRANCH   2   8
ATOM      8  N   UNL     1      31.339  -4.503 -23.064  0.00  0.00    -0.248 N 
ATOM      9  N   UNL     1      32.948  -4.119 -24.730  0.00  0.00    -0.337 NA
ATOM     10  N   UNL     1      30.874  -2.892 -24.706  0.00  0.00    -0.170 NA
ATOM     11  C   UNL     1      31.738  -3.806 -24.220  0.00  0.00    +0.149 C 
ATOM     12  C   UNL     1      33.299  -3.431 -25.836  0.00  0.00    +0.147 C 
ATOM     13  C   UNL     1      32.502  -2.473 -26.428  0.00  0.00    +0.055 C 
ATOM     14  C   UNL     1      31.289  -2.242 -25.814  0.00  0.00    +0.114 C 
ATOM     15  H   UNL     1      30.450  -4.241 -22.731  0.00  0.00    +0.165 HD
BRANCH  12  17
ATOM     16  N   UNL     1      36.596  -3.056 -27.533  0.00  0.00    -0.242 NA
ATOM     17  C   UNL     1      34.592  -3.767 -26.381  0.00  0.00    +0.050 C 
ATOM     18  C   UNL     1      35.092  -5.063 -26.299  0.00  0.00    +0.006 C 
ATOM     19  C   UNL     1      35.378  -2.809 -27.002  0.00  0.00    +0.101 C 
ATOM     20  C   UNL     1      36.341  -5.356 -26.833  0.00  0.00    +0.021 C 
ATOM     21  C   UNL     1      37.047  -4.327 -27.434  0.00  0.00    +0.099 C 
ENDBRANCH  12  17
ENDBRANCH   2   8
BRANCH   1  23
ATOM     22  O   UNL     1      34.684  -8.599 -24.258  0.00  0.00    -0.270 OA
ATOM     23  N   UNL     1      33.017  -9.023 -22.660  0.00  0.00    -0.280 N 
ATOM     24  C   UNL     1      33.915  -9.382 -23.677  0.00  0.00    +0.249 C 
ATOM     25  H   UNL     1      32.470  -9.755 -22.295  0.00  0.00    +0.155 HD
BRANCH  24  31
ATOM     26  C   UNL     1      33.869 -13.451 -24.831  0.00  0.00    -0.043 C 
ATOM     27  C   UNL     1      33.794 -13.122 -23.485  0.00  0.00    -0.006 C 
ATOM     28  C   UNL     1      33.959 -12.465 -25.804  0.00  0.00    -0.006 C 
ATOM     29  C   UNL     1      33.808 -11.780 -23.105  0.00  0.00    +0.004 C 
ATOM     30  C   UNL     1      33.974 -11.124 -25.424  0.00  0.00    +0.004 C 
ATOM     31  C   UNL     1      33.898 -10.780 -24.074  0.00  0.00    +0.054 C 
BRANCH  26  32
ATOM     32  C   UNL     1      33.853 -14.899 -25.242  0.00  0.00    -0.050 C 
BRANCH  32  33
ATOM     33  N   UNL     1      34.084 -15.791 -24.107  0.00  0.00    +0.387 N 
ATOM     34  N   UNL     1      35.629 -17.742 -22.635  0.00  0.00    +0.383 N 
ATOM     35  C   UNL     1      35.304 -15.409 -23.384  0.00  0.00    -0.100 C 
ATOM     36  C   UNL     1      34.166 -17.187 -24.549  0.00  0.00    -0.100 C 
ATOM     37  C   UNL     1      35.547 -16.344 -22.194  0.00  0.00    -0.101 C 
ATOM     38  C   UNL     1      34.411 -18.124 -23.361  0.00  0.00    -0.101 C 
ATOM     39  C   UNL     1      35.859 -18.632 -21.500  0.00  0.00    -0.101 C 
ATOM     40  H   UNL     1      33.292 -15.701 -23.471  0.00  0.00    -0.079 HD
ATOM     41  H   UNL     1      36.422 -17.832 -23.271  0.00  0.00    -0.080 HD
ENDBRANCH  32  33
ENDBRANCH  26  32
ENDBRANCH  24  31
ENDBRANCH   1  23
TORSDOF 6
ENDMDL
MODEL 5
REMARK VINA RESULT:     -11.1      4.441     12.263
REMARK  Name = 5291
REMARK  6 active torsions:
REMARK  status: ('A' for Active; 'I' for Inactive)
REMARK    1  A    between atoms: C_1  and  N_23
REMARK    2  A    between atoms: C_2  and  N_8
REMARK    3  A    between atoms: C_12  and  C_17
REMARK    4  A    between atoms: C_24  and  C_31
REMARK    5  A    between atoms: C_26  and  C_32
REMARK    6  A    between atoms: C_32  and  N_33
REMARK                            x       y       z     vdW  Elec       q    Type
REMARK                         _______ _______ _______ _____ _____    ______ ____
ROOT
ATOM      1  C   UNL     1      35.168  -9.794 -24.661  0.00  0.00    +0.052 C 
ATOM      2  C   UNL     1      34.648  -7.549 -24.001  0.00  0.00    +0.055 C 
ATOM      3  C   UNL     1      34.567  -8.921 -23.770  0.00  0.00    +0.030 C 
ATOM      4  C   UNL     1      35.328  -7.069 -25.121  0.00  0.00    -0.008 C 
ATOM      5  C   UNL     1      35.846  -9.335 -25.777  0.00  0.00    +0.014 C 
ATOM      6  C   UNL     1      35.926  -7.962 -26.009  0.00  0.00    -0.002 C 
ATOM      7  C   UNL     1      35.429  -5.604 -25.394  0.00  0.00    +0.032 C 
ENDROOT
BRANCH   2   8
ATOM      8  N   UNL     1      34.036  -6.657 -23.092  0.00  0.00    -0.248 N 
ATOM      9  N   UNL     1      33.103  -8.140 -21.529  0.00  0.00    -0.337 NA
ATOM     10  N   UNL     1      32.851  -5.757 -21.278  0.00  0.00    -0.170 NA
ATOM     11  C   UNL     1      33.297  -6.860 -21.912  0.00  0.00    +0.149 C 
ATOM     12  C   UNL     1      32.390  -8.298 -20.396  0.00  0.00    +0.147 C 
ATOM     13  C   UNL     1      31.881  -7.249 -19.657  0.00  0.00    +0.055 C 
ATOM     14  C   UNL     1      32.145  -5.988 -20.151  0.00  0.00    +0.114 C 
ATOM     15  H   UNL     1      34.152  -5.709 -23.329  0.00  0.00    +0.165 HD
BRANCH  12  17
ATOM     16  N   UNL     1      32.154 -12.014 -20.569  0.00  0.00    -0.242 NA
ATOM     17  C   UNL     1      32.185  -9.667 -19.987  0.00  0.00    +0.050 C 
ATOM     18  C   UNL     1      31.834  -9.980 -18.677  0.00  0.00    +0.006 C 
ATOM     19  C   UNL     1      32.331 -10.712 -20.885  0.00  0.00    +0.101 C 
ATOM     20  C   UNL     1      31.644 -11.308 -18.313  0.00  0.00    +0.021 C 
ATOM     21  C   UNL     1      31.814 -12.279 -19.287  0.00  0.00    +0.099 C 
ENDBRANCH  12  17
ENDBRANCH   2   8
BRANCH   1  23
ATOM     22  O   UNL     1      32.898 -11.455 -23.621  0.00  0.00    -0.270 OA
ATOM     23  N   UNL     1      35.087 -11.188 -24.426  0.00  0.00    -0.280 N 
ATOM     24  C   UNL     1      34.001 -11.930 -23.936  0.00  0.00    +0.249 C 
ATOM     25  H   UNL     1      35.899 -11.705 -24.633  0.00  0.00    +0.155 HD
BRANCH  24  31
ATOM     26  C   UNL     1      34.668 -16.080 -23.464  0.00  0.00    -0.043 C 
ATOM     27  C   UNL     1      34.994 -15.214 -22.430  0.00  0.00    -0.006 C 
ATOM     28  C   UNL     1      34.126 -15.605 -24.650  0.00  0.00    -0.006 C 
ATOM     29  C   UNL     1      34.774 -13.846 -22.586  0.00  0.00    +0.004 C 
ATOM     30  C   UNL     1      33.906 -14.237 -24.806  0.00  0.00    +0.004 C 
ATOM     31  C   UNL     1      34.229 -13.357 -23.774  0.00  0.00    +0.054 C 
BRANCH  26  32
ATOM     32  C   UNL     1      34.905 -17.557 -23.296  0.00  0.00    -0.050 C 
BRANCH  32  33
ATOM     33  N   UNL     1      35.278 -17.897 -21.923  0.00  0.00    +0.387 N 
ATOM     34  N   UNL     1      36.370 -19.664 -19.912  0.00  0.00    +0.383 N 
ATOM     35  C   UNL     1      36.723 -18.131 -21.819  0.00  0.00    -0.100 C 
ATOM     36  C   UNL     1      34.533 -19.072 -21.457  0.00  0.00    -0.100 C 
ATOM     37  C   UNL     1      37.114 -18.488 -20.380  0.00  0.00    -0.101 C 
ATOM     38  C   UNL     1      34.923 -19.431 -20.019  0.00  0.00    -0.101 C 
ATOM     39  C   UNL     1      36.741 -20.001 -18.540  0.00  0.00    -0.101 C 
ATOM     40  H   UNL     1      35.036 -17.105 -21.328  0.00  0.00    -0.079 HD
ATOM     41  H   UNL     1      36.611 -20.455 -20.508  0.00  0.00    -0.080 HD
ENDBRANCH  32  33
ENDBRANCH  26  32
ENDBRANCH  24  31
ENDBRANCH   1  23
TORSDOF 6
ENDMDL
MODEL 6
REMARK VINA RESULT:     -10.5      1.603      2.256
REMARK  Name = 5291
REMARK  6 active torsions:
REMARK  status: ('A' for Active; 'I' for Inactive)
REMARK    1  A    between atoms: C_1  and  N_23
REMARK    2  A    between atoms: C_2  and  N_8
REMARK    3  A    between atoms: C_12  and  C_17
REMARK    4  A    between atoms: C_24  and  C_31
REMARK    5  A    between atoms: C_26  and  C_32
REMARK    6  A    between atoms: C_32  and  N_33
REMARK                            x       y       z     vdW  Elec       q    Type
REMARK                         _______ _______ _______ _____ _____    ______ ____
ROOT
ATOM      1  C   UNL     1      34.603 -18.852 -20.243  0.00  0.00    +0.052 C 
ATOM      2  C   UNL     1      33.697 -20.730 -19.060  0.00  0.00    +0.055 C 
ATOM      3  C   UNL     1      33.568 -19.420 -19.520  0.00  0.00    +0.030 C 
ATOM      4  C   UNL     1      34.860 -21.452 -19.328  0.00  0.00    -0.008 C 
ATOM      5  C   UNL     1      35.764 -19.554 -20.518  0.00  0.00    +0.014 C 
ATOM      6  C   UNL     1      35.894 -20.864 -20.056  0.00  0.00    -0.002 C 
ATOM      7  C   UNL     1      35.026 -22.856 -18.845  0.00  0.00    +0.032 C 
ENDROOT
BRANCH   2   8
ATOM      8  N   UNL     1      32.641 -21.312 -18.324  0.00  0.00    -0.248 N 
ATOM      9  N   UNL     1      33.756 -22.044 -16.393  0.00  0.00    -0.337 NA
ATOM     10  N   UNL     1      31.387 -22.394 -16.661  0.00  0.00    -0.170 NA
ATOM     11  C   UNL     1      32.592 -21.945 -17.068  0.00  0.00    +0.149 C 
ATOM     12  C   UNL     1      33.674 -22.658 -15.195  0.00  0.00    +0.147 C 
ATOM     13  C   UNL     1      32.501 -23.159 -14.669  0.00  0.00    +0.055 C 
ATOM     14  C   UNL     1      31.378 -22.998 -15.454  0.00  0.00    +0.114 C 
ATOM     15  H   UNL     1      31.768 -21.263 -18.777  0.00  0.00    +0.165 HD
BRANCH  12  17
ATOM     16  N   UNL     1      37.304 -22.363 -14.399  0.00  0.00    -0.242 NA
ATOM     17  C   UNL     1      34.919 -22.761 -14.473  0.00  0.00    +0.050 C 
ATOM     18  C   UNL     1      34.969 -23.330 -13.204  0.00  0.00    +0.006 C 
ATOM     19  C   UNL     1      36.105 -22.297 -15.020  0.00  0.00    +0.101 C 
ATOM     20  C   UNL     1      36.183 -23.416 -12.533  0.00  0.00    +0.021 C 
ATOM     21  C   UNL     1      37.311 -22.922 -13.168  0.00  0.00    +0.099 C 
ENDBRANCH  12  17
ENDBRANCH   2   8
BRANCH   1  23
ATOM     22  O   UNL     1      36.533 -17.133 -21.764  0.00  0.00    -0.270 OA
ATOM     23  N   UNL     1      34.471 -17.522 -20.712  0.00  0.00    -0.280 N 
ATOM     24  C   UNL     1      35.402 -16.750 -21.423  0.00  0.00    +0.249 C 
ATOM     25  H   UNL     1      33.614 -17.081 -20.512  0.00  0.00    +0.155 HD
BRANCH  24  31
ATOM     26  C   UNL     1      34.192 -12.808 -22.362  0.00  0.00    -0.043 C 
ATOM     27  C   UNL     1      34.316 -13.186 -21.033  0.00  0.00    -0.006 C 
ATOM     28  C   UNL     1      34.458 -13.704 -23.388  0.00  0.00    -0.006 C 
ATOM     29  C   UNL     1      34.716 -14.485 -20.724  0.00  0.00    +0.004 C 
ATOM     30  C   UNL     1      34.858 -15.004 -23.079  0.00  0.00    +0.004 C 
ATOM     31  C   UNL     1      34.987 -15.395 -21.746  0.00  0.00    +0.054 C 
BRANCH  26  32
ATOM     32  C   UNL     1      33.762 -11.405 -22.697  0.00  0.00    -0.050 C 
BRANCH  32  33
ATOM     33  N   UNL     1      34.705 -10.747 -23.601  0.00  0.00    +0.387 N 
ATOM     34  N   UNL     1      35.447  -8.711 -25.515  0.00  0.00    +0.383 N 
ATOM     35  C   UNL     1      34.945  -9.360 -23.183  0.00  0.00    -0.100 C 
ATOM     36  C   UNL     1      34.217 -10.789 -24.984  0.00  0.00    -0.100 C 
ATOM     37  C   UNL     1      35.933  -8.670 -24.131  0.00  0.00    -0.101 C 
ATOM     38  C   UNL     1      35.203 -10.098 -25.932  0.00  0.00    -0.101 C 
ATOM     39  C   UNL     1      36.390  -8.056 -26.417  0.00  0.00    -0.101 C 
ATOM     40  H   UNL     1      35.588 -11.254 -23.555  0.00  0.00    -0.079 HD
ATOM     41  H   UNL     1      34.563  -8.203 -25.560  0.00  0.00    -0.080 HD
ENDBRANCH  32  33
ENDBRANCH  26  32
ENDBRANCH  24  31
ENDBRANCH   1  23
TORSDOF 6
ENDMDL
MODEL 7
REMARK VINA RESULT:     -10.5      5.500     15.956
REMARK  Name = 5291
REMARK  6 active torsions:
REMARK  status: ('A' for Active; 'I' for Inactive)
REMARK    1  A    between atoms: C_1  and  N_23
REMARK    2  A    between atoms: C_2  and  N_8
REMARK    3  A    between atoms: C_12  and  C_17
REMARK    4  A    between atoms: C_24  and  C_31
REMARK    5  A    between atoms: C_26  and  C_32
REMARK    6  A    between atoms: C_32  and  N_33
REMARK                            x       y       z     vdW  Elec       q    Type
REMARK                         _______ _______ _______ _____ _____    ______ ____
ROOT
ATOM      1  C   UNL     1      32.786  -7.231 -22.180  0.00  0.00    +0.052 C 
ATOM      2  C   UNL     1      31.928  -5.081 -22.801  0.00  0.00    +0.055 C 
ATOM      3  C   UNL     1      32.222  -6.401 -23.135  0.00  0.00    +0.030 C 
ATOM      4  C   UNL     1      32.202  -4.608 -21.517  0.00  0.00    -0.008 C 
ATOM      5  C   UNL     1      33.064  -6.779 -20.902  0.00  0.00    +0.014 C 
ATOM      6  C   UNL     1      32.770  -5.457 -20.568  0.00  0.00    -0.002 C 
ATOM      7  C   UNL     1      31.898  -3.197 -21.132  0.00  0.00    +0.032 C 
ENDROOT
BRANCH   2   8
ATOM      8  N   UNL     1      31.352  -4.233 -23.773  0.00  0.00    -0.248 N 
ATOM      9  N   UNL     1      33.162  -3.881 -25.226  0.00  0.00    -0.337 NA
ATOM     10  N   UNL     1      31.019  -2.864 -25.650  0.00  0.00    -0.170 NA
ATOM     11  C   UNL     1      31.868  -3.632 -24.936  0.00  0.00    +0.149 C 
ATOM     12  C   UNL     1      33.624  -3.289 -26.346  0.00  0.00    +0.147 C 
ATOM     13  C   UNL     1      32.854  -2.482 -27.160  0.00  0.00    +0.055 C 
ATOM     14  C   UNL     1      31.546  -2.302 -26.758  0.00  0.00    +0.114 C 
ATOM     15  H   UNL     1      30.406  -4.023 -23.605  0.00  0.00    +0.165 HD
BRANCH  12  17
ATOM     16  N   UNL     1      37.200  -2.706 -27.219  0.00  0.00    -0.242 NA
ATOM     17  C   UNL     1      35.007  -3.557 -26.656  0.00  0.00    +0.050 C 
ATOM     18  C   UNL     1      35.495  -4.859 -26.695  0.00  0.00    +0.006 C 
ATOM     19  C   UNL     1      35.893  -2.525 -26.923  0.00  0.00    +0.101 C 
ATOM     20  C   UNL     1      36.833  -5.085 -26.995  0.00  0.00    +0.021 C 
ATOM     21  C   UNL     1      37.637  -3.985 -27.247  0.00  0.00    +0.099 C 
ENDBRANCH  12  17
ENDBRANCH   2   8
BRANCH   1  23
ATOM     22  O   UNL     1      31.709  -9.797 -21.062  0.00  0.00    -0.270 OA
ATOM     23  N   UNL     1      33.083  -8.574 -22.519  0.00  0.00    -0.280 N 
ATOM     24  C   UNL     1      32.555  -9.751 -21.970  0.00  0.00    +0.249 C 
ATOM     25  H   UNL     1      33.748  -8.697 -23.235  0.00  0.00    +0.155 HD
BRANCH  24  31
ATOM     26  C   UNL     1      34.079 -13.369 -23.545  0.00  0.00    -0.043 C 
ATOM     27  C   UNL     1      34.380 -12.170 -24.174  0.00  0.00    -0.006 C 
ATOM     28  C   UNL     1      33.286 -13.399 -22.406  0.00  0.00    -0.006 C 
ATOM     29  C   UNL     1      33.878 -10.977 -23.654  0.00  0.00    +0.004 C 
ATOM     30  C   UNL     1      32.784 -12.207 -21.886  0.00  0.00    +0.004 C 
ATOM     31  C   UNL     1      33.080 -10.995 -22.510  0.00  0.00    +0.054 C 
BRANCH  26  32
ATOM     32  C   UNL     1      34.622 -14.657 -24.104  0.00  0.00    -0.050 C 
BRANCH  32  33
ATOM     33  N   UNL     1      34.541 -15.749 -23.135  0.00  0.00    +0.387 N 
ATOM     34  N   UNL     1      35.600 -18.067 -21.771  0.00  0.00    +0.383 N 
ATOM     35  C   UNL     1      35.589 -15.620 -22.116  0.00  0.00    -0.100 C 
ATOM     36  C   UNL     1      34.636 -17.050 -23.807  0.00  0.00    -0.100 C 
ATOM     37  C   UNL     1      35.505 -16.765 -21.100  0.00  0.00    -0.101 C 
ATOM     38  C   UNL     1      34.553 -18.196 -22.793  0.00  0.00    -0.101 C 
ATOM     39  C   UNL     1      35.518 -19.157 -20.802  0.00  0.00    -0.101 C 
ATOM     40  H   UNL     1      33.634 -15.691 -22.673  0.00  0.00    -0.079 HD
ATOM     41  H   UNL     1      36.508 -18.125 -22.233  0.00  0.00    -0.080 HD
ENDBRANCH  32  33
ENDBRANCH  26  32
ENDBRANCH  24  31
ENDBRANCH   1  23
TORSDOF 6
ENDMDL
MODEL 8
REMARK VINA RESULT:     -10.2      8.907     13.378
REMARK  Name = 5291
REMARK  6 active torsions:
REMARK  status: ('A' for Active; 'I' for Inactive)
REMARK    1  A    between atoms: C_1  and  N_23
REMARK    2  A    between atoms: C_2  and  N_8
REMARK    3  A    between atoms: C_12  and  C_17
REMARK    4  A    between atoms: C_24  and  C_31
REMARK    5  A    between atoms: C_26  and  C_32
REMARK    6  A    between atoms: C_32  and  N_33
REMARK                            x       y       z     vdW  Elec       q    Type
REMARK                         _______ _______ _______ _____ _____    ______ ____
ROOT
ATOM      1  C   UNL     1      32.246  -7.277 -20.751  0.00  0.00    +0.052 C 
ATOM      2  C   UNL     1      32.122  -9.600 -20.175  0.00  0.00    +0.055 C 
ATOM      3  C   UNL     1      32.269  -8.606 -21.140  0.00  0.00    +0.030 C 
ATOM      4  C   UNL     1      31.955  -9.252 -18.834  0.00  0.00    -0.008 C 
ATOM      5  C   UNL     1      32.082  -6.914 -19.426  0.00  0.00    +0.014 C 
ATOM      6  C   UNL     1      31.934  -7.909 -18.460  0.00  0.00    -0.002 C 
ATOM      7  C   UNL     1      31.794 -10.297 -17.778  0.00  0.00    +0.032 C 
ENDROOT
BRANCH   2   8
ATOM      8  N   UNL     1      32.146 -10.957 -20.570  0.00  0.00    -0.248 N 
ATOM      9  N   UNL     1      33.401 -10.851 -22.550  0.00  0.00    -0.337 NA
ATOM     10  N   UNL     1      32.547 -12.952 -21.737  0.00  0.00    -0.170 NA
ATOM     11  C   UNL     1      32.725 -11.617 -21.669  0.00  0.00    +0.149 C 
ATOM     12  C   UNL     1      33.941 -11.516 -23.592  0.00  0.00    +0.147 C 
ATOM     13  C   UNL     1      33.830 -12.880 -23.772  0.00  0.00    +0.055 C 
ATOM     14  C   UNL     1      33.114 -13.553 -22.804  0.00  0.00    +0.114 C 
ATOM     15  H   UNL     1      31.665 -11.557 -19.955  0.00  0.00    +0.165 HD
BRANCH  12  17
ATOM     16  N   UNL     1      35.362 -10.294 -26.814  0.00  0.00    -0.242 NA
ATOM     17  C   UNL     1      34.665 -10.696 -24.533  0.00  0.00    +0.050 C 
ATOM     18  C   UNL     1      35.345  -9.555 -24.118  0.00  0.00    +0.006 C 
ATOM     19  C   UNL     1      34.704 -11.018 -25.881  0.00  0.00    +0.101 C 
ATOM     20  C   UNL     1      36.034  -8.785 -25.048  0.00  0.00    +0.021 C 
ATOM     21  C   UNL     1      36.011  -9.194 -26.372  0.00  0.00    +0.099 C 
ENDBRANCH  12  17
ENDBRANCH   2   8
BRANCH   1  23
ATOM     22  O   UNL     1      30.748  -4.708 -21.132  0.00  0.00    -0.270 OA
ATOM     23  N   UNL     1      32.396  -6.267 -21.732  0.00  0.00    -0.280 N 
ATOM     24  C   UNL     1      31.672  -5.074 -21.876  0.00  0.00    +0.249 C 
ATOM     25  H   UNL     1      33.102  -6.421 -22.401  0.00  0.00    +0.155 HD
BRANCH  24  31
ATOM     26  C   UNL     1      32.748  -2.649 -25.171  0.00  0.00    -0.043 C 
ATOM     27  C   UNL     1      32.467  -3.993 -25.374  0.00  0.00    -0.006 C 
ATOM     28  C   UNL     1      32.681  -2.089 -23.902  0.00  0.00    -0.006 C 
ATOM     29  C   UNL     1      32.112  -4.792 -24.288  0.00  0.00    +0.004 C 
ATOM     30  C   UNL     1      32.326  -2.888 -22.816  0.00  0.00    +0.004 C 
ATOM     31  C   UNL     1      32.040  -4.240 -23.008  0.00  0.00    +0.054 C 
BRANCH  26  32
ATOM     32  C   UNL     1      33.130  -1.786 -26.343  0.00  0.00    -0.050 C 
BRANCH  32  33
ATOM     33  N   UNL     1      34.272  -2.334 -27.074  0.00  0.00    +0.387 N 
ATOM     34  N   UNL     1      36.639  -2.088 -28.715  0.00  0.00    +0.383 N 
ATOM     35  C   UNL     1      35.535  -1.834 -26.518  0.00  0.00    -0.100 C 
ATOM     36  C   UNL     1      34.178  -2.014 -28.503  0.00  0.00    -0.100 C 
ATOM     37  C   UNL     1      36.732  -2.407 -27.285  0.00  0.00    -0.101 C 
ATOM     38  C   UNL     1      35.374  -2.586 -29.271  0.00  0.00    -0.101 C 
ATOM     39  C   UNL     1      37.779  -2.638 -29.444  0.00  0.00    -0.101 C 
ATOM     40  H   UNL     1      34.253  -3.348 -26.969  0.00  0.00    -0.079 HD
ATOM     41  H   UNL     1      36.658  -1.074 -28.820  0.00  0.00    -0.080 HD
ENDBRANCH  32  33
ENDBRANCH  26  32
ENDBRANCH  24  31
ENDBRANCH   1  23
TORSDOF 6
ENDMDL
MODEL 9
REMARK VINA RESULT:      -9.9      1.629      2.982
REMARK  Name = 5291
REMARK  6 active torsions:
REMARK  status: ('A' for Active; 'I' for Inactive)
REMARK    1  A    between atoms: C_1  and  N_23
REMARK    2  A    between atoms: C_2  and  N_8
REMARK    3  A    between atoms: C_12  and  C_17
REMARK    4  A    between atoms: C_24  and  C_31
REMARK    5  A    between atoms: C_26  and  C_32
REMARK    6  A    between atoms: C_32  and  N_33
REMARK                            x       y       z     vdW  Elec       q    Type
REMARK                         _______ _______ _______ _____ _____    ______ ____
ROOT
ATOM      1  C   UNL     1      34.322 -19.119 -20.289  0.00  0.00    +0.052 C 
ATOM      2  C   UNL     1      35.391 -20.671 -18.808  0.00  0.00    +0.055 C 
ATOM      3  C   UNL     1      35.405 -19.459 -19.497  0.00  0.00    +0.030 C 
ATOM      4  C   UNL     1      34.294 -21.526 -18.923  0.00  0.00    -0.008 C 
ATOM      5  C   UNL     1      33.226 -19.954 -20.414  0.00  0.00    +0.014 C 
ATOM      6  C   UNL     1      33.212 -21.168 -19.726  0.00  0.00    -0.002 C 
ATOM      7  C   UNL     1      34.253 -22.831 -18.197  0.00  0.00    +0.032 C 
ENDROOT
BRANCH   2   8
ATOM      8  N   UNL     1      36.495 -21.019 -17.998  0.00  0.00    -0.248 N 
ATOM      9  N   UNL     1      35.431 -21.918 -16.109  0.00  0.00    -0.337 NA
ATOM     10  N   UNL     1      37.834 -21.801 -16.237  0.00  0.00    -0.170 NA
ATOM     11  C   UNL     1      36.591 -21.607 -16.723  0.00  0.00    +0.149 C 
ATOM     12  C   UNL     1      35.559 -22.477 -14.888  0.00  0.00    +0.147 C 
ATOM     13  C   UNL     1      36.775 -22.728 -14.284  0.00  0.00    +0.055 C 
ATOM     14  C   UNL     1      37.889 -22.365 -15.012  0.00  0.00    +0.114 C 
ATOM     15  H   UNL     1      37.366 -20.812 -18.406  0.00  0.00    +0.165 HD
BRANCH  12  17
ATOM     16  N   UNL     1      33.178 -23.899 -12.398  0.00  0.00    -0.242 NA
ATOM     17  C   UNL     1      34.318 -22.811 -14.233  0.00  0.00    +0.050 C 
ATOM     18  C   UNL     1      33.096 -22.396 -14.754  0.00  0.00    +0.006 C 
ATOM     19  C   UNL     1      34.303 -23.553 -13.062  0.00  0.00    +0.101 C 
ATOM     20  C   UNL     1      31.917 -22.733 -14.100  0.00  0.00    +0.021 C 
ATOM     21  C   UNL     1      32.011 -23.478 -12.936  0.00  0.00    +0.099 C 
ENDBRANCH  12  17
ENDBRANCH   2   8
BRANCH   1  23
ATOM     22  O   UNL     1      36.104 -18.168 -22.506  0.00  0.00    -0.270 OA
ATOM     23  N   UNL     1      34.336 -17.887 -20.988  0.00  0.00    -0.280 N 
ATOM     24  C   UNL     1      35.190 -17.479 -22.023  0.00  0.00    +0.249 C 
ATOM     25  H   UNL     1      33.657 -17.230 -20.710  0.00  0.00    +0.155 HD
BRANCH  24  31
ATOM     26  C   UNL     1      34.574 -13.563 -23.497  0.00  0.00    -0.043 C 
ATOM     27  C   UNL     1      34.389 -14.648 -24.343  0.00  0.00    -0.006 C 
ATOM     28  C   UNL     1      34.957 -13.744 -22.176  0.00  0.00    -0.006 C 
ATOM     29  C   UNL     1      34.592 -15.939 -23.856  0.00  0.00    +0.004 C 
ATOM     30  C   UNL     1      35.160 -15.035 -21.689  0.00  0.00    +0.004 C 
ATOM     31  C   UNL     1      34.977 -16.133 -22.529  0.00  0.00    +0.054 C 
BRANCH  26  32
ATOM     32  C   UNL     1      34.355 -12.169 -24.021  0.00  0.00    -0.050 C 
BRANCH  32  33
ATOM     33  N   UNL     1      33.346 -11.448 -23.245  0.00  0.00    +0.387 N 
ATOM     34  N   UNL     1      32.439  -9.997 -20.914  0.00  0.00    +0.383 N 
ATOM     35  C   UNL     1      33.771 -10.065 -22.996  0.00  0.00    -0.100 C 
ATOM     36  C   UNL     1      33.072 -12.137 -21.979  0.00  0.00    -0.100 C 
ATOM     37  C   UNL     1      32.714  -9.309 -22.182  0.00  0.00    -0.101 C 
ATOM     38  C   UNL     1      32.017 -11.382 -21.163  0.00  0.00    -0.101 C 
ATOM     39  C   UNL     1      31.430  -9.277 -20.142  0.00  0.00    -0.101 C 
ATOM     40  H   UNL     1      32.486 -11.426 -23.793  0.00  0.00    -0.079 HD
ATOM     41  H   UNL     1      33.299 -10.018 -20.367  0.00  0.00    -0.080 HD
ENDBRANCH  32  33
ENDBRANCH  26  32
ENDBRANCH  24  31
ENDBRANCH   1  23
TORSDOF 6
ENDMDL
