MODEL 1
REMARK VINA RESULT:     -11.9      0.000      0.000
REMARK  Name = 448841
REMARK  3 active torsions:
REMARK  status: ('A' for Active; 'I' for Inactive)
REMARK    1  A    between atoms: C_1  and  C_17
REMARK    2  A    between atoms: C_9  and  C_13
REMARK    3  A    between atoms: C_18  and  C_20
REMARK                            x       y       z     vdW  Elec       q    Type
REMARK                         _______ _______ _______ _____ _____    ______ ____
ROOT
ATOM      1  C   UNL     1      35.539 -20.257 -19.552  0.00  0.00    -0.022 C 
ATOM      2  C   UNL     1      36.466 -20.529 -18.546  0.00  0.00    -0.004 C 
ATOM      3  C   UNL     1      34.230 -20.718 -19.437  0.00  0.00    -0.004 C 
ATOM      4  C   UNL     1      36.096 -21.268 -17.411  0.00  0.00    -0.000 C 
ATOM      5  C   UNL     1      33.845 -21.454 -18.315  0.00  0.00    -0.000 C 
ATOM      6  C   UNL     1      34.765 -21.737 -17.293  0.00  0.00    +0.000 C 
ATOM      7  C   UNL     1      37.016 -21.553 -16.389  0.00  0.00    +0.000 C 
ATOM      8  C   UNL     1      34.395 -22.476 -16.158  0.00  0.00    +0.003 C 
ATOM      9  C   UNL     1      35.323 -22.749 -15.152  0.00  0.00    +0.031 C 
ATOM     10  C   UNL     1      36.631 -22.287 -15.268  0.00  0.00    +0.003 C 
ENDROOT
BRANCH   9  13
ATOM     11  N   UNL     1      33.919 -23.063 -13.128  0.00  0.00    -0.343 N 
ATOM     12  N   UNL     1      35.520 -24.662 -13.711  0.00  0.00    -0.285 NA
ATOM     13  C   UNL     1      34.923 -23.515 -13.983  0.00  0.00    +0.117 C 
ATOM     14  H   UNL     1      33.665 -23.597 -12.342  0.00  0.00    +0.144 HD
ATOM     15  H   UNL     1      33.465 -22.209 -13.311  0.00  0.00    +0.144 HD
ATOM     16  H   UNL     1      35.250 -25.182 -12.920  0.00  0.00    +0.188 HD
ENDBRANCH   9  13
BRANCH   1  17
ATOM     17  C   UNL     1      35.948 -19.472 -20.750  0.00  0.00    +0.027 C 
ATOM     18  C   UNL     1      35.553 -18.032 -20.852  0.00  0.00    +0.027 C 
ATOM     19  C   UNL     1      36.986 -18.402 -20.603  0.00  0.00    +0.009 C 
BRANCH  18  20
ATOM     20  C   UNL     1      35.164 -17.477 -22.173  0.00  0.00    -0.022 C 
ATOM     21  C   UNL     1      35.366 -16.123 -22.454  0.00  0.00    -0.004 C 
ATOM     22  C   UNL     1      34.592 -18.305 -23.143  0.00  0.00    -0.004 C 
ATOM     23  C   UNL     1      34.998 -15.601 -23.695  0.00  0.00    -0.000 C 
ATOM     24  C   UNL     1      34.224 -17.784 -24.383  0.00  0.00    -0.000 C 
ATOM     25  C   UNL     1      34.427 -16.431 -24.658  0.00  0.00    -0.000 C 
ENDBRANCH  18  20
ENDBRANCH   1  17
TORSDOF 3
ENDMDL
MODEL 2
REMARK VINA RESULT:     -11.7      1.129      2.290
REMARK  Name = 448841
REMARK  3 active torsions:
REMARK  status: ('A' for Active; 'I' for Inactive)
REMARK    1  A    between atoms: C_1  and  C_17
REMARK    2  A    between atoms: C_9  and  C_13
REMARK    3  A    between atoms: C_18  and  C_20
REMARK                            x       y       z     vdW  Elec       q    Type
REMARK                         _______ _______ _______ _____ _____    ______ ____
ROOT
ATOM      1  C   UNL     1      35.806 -20.706 -18.780  0.00  0.00    -0.022 C 
ATOM      2  C   UNL     1      34.507 -21.151 -18.537  0.00  0.00    -0.004 C 
ATOM      3  C   UNL     1      36.792 -20.868 -17.810  0.00  0.00    -0.004 C 
ATOM      4  C   UNL     1      34.176 -21.765 -17.318  0.00  0.00    -0.000 C 
ATOM      5  C   UNL     1      36.480 -21.477 -16.593  0.00  0.00    -0.000 C 
ATOM      6  C   UNL     1      35.178 -21.931 -16.331  0.00  0.00    +0.000 C 
ATOM      7  C   UNL     1      32.873 -22.219 -17.056  0.00  0.00    +0.000 C 
ATOM      8  C   UNL     1      34.847 -22.545 -15.113  0.00  0.00    +0.003 C 
ATOM      9  C   UNL     1      33.547 -22.991 -14.869  0.00  0.00    +0.031 C 
ATOM     10  C   UNL     1      32.563 -22.828 -15.840  0.00  0.00    +0.003 C 
ENDROOT
BRANCH   9  13
ATOM     11  N   UNL     1      32.311 -24.679 -13.532  0.00  0.00    -0.343 N 
ATOM     12  N   UNL     1      33.789 -23.201 -12.488  0.00  0.00    -0.285 NA
ATOM     13  C   UNL     1      33.221 -23.625 -13.603  0.00  0.00    +0.117 C 
ATOM     14  H   UNL     1      32.104 -25.093 -12.664  0.00  0.00    +0.144 HD
ATOM     15  H   UNL     1      31.874 -25.007 -14.351  0.00  0.00    +0.144 HD
ATOM     16  H   UNL     1      33.570 -23.630 -11.629  0.00  0.00    +0.188 HD
ENDBRANCH   9  13
BRANCH   1  17
ATOM     17  C   UNL     1      36.140 -20.056 -20.078  0.00  0.00    +0.027 C 
ATOM     18  C   UNL     1      36.018 -18.569 -20.205  0.00  0.00    +0.027 C 
ATOM     19  C   UNL     1      37.374 -19.212 -20.176  0.00  0.00    +0.009 C 
BRANCH  18  20
ATOM     20  C   UNL     1      35.515 -17.988 -21.474  0.00  0.00    -0.022 C 
ATOM     21  C   UNL     1      34.897 -18.805 -22.426  0.00  0.00    -0.004 C 
ATOM     22  C   UNL     1      35.657 -16.620 -21.728  0.00  0.00    -0.004 C 
ATOM     23  C   UNL     1      34.426 -18.259 -23.621  0.00  0.00    -0.000 C 
ATOM     24  C   UNL     1      35.187 -16.074 -22.922  0.00  0.00    -0.000 C 
ATOM     25  C   UNL     1      34.572 -16.894 -23.868  0.00  0.00    -0.000 C 
ENDBRANCH  18  20
ENDBRANCH   1  17
TORSDOF 3
ENDMDL
MODEL 3
REMARK VINA RESULT:     -11.6      3.796      8.706
REMARK  Name = 448841
REMARK  3 active torsions:
REMARK  status: ('A' for Active; 'I' for Inactive)
REMARK    1  A    between atoms: C_1  and  C_17
REMARK    2  A    between atoms: C_9  and  C_13
REMARK    3  A    between atoms: C_18  and  C_20
REMARK                            x       y       z     vdW  Elec       q    Type
REMARK                         _______ _______ _______ _____ _____    ______ ____
ROOT
ATOM      1  C   UNL     1      34.744 -21.957 -17.245  0.00  0.00    -0.022 C 
ATOM      2  C   UNL     1      35.866 -21.318 -17.771  0.00  0.00    -0.004 C 
ATOM      3  C   UNL     1      33.492 -21.756 -17.821  0.00  0.00    -0.004 C 
ATOM      4  C   UNL     1      35.751 -20.468 -18.884  0.00  0.00    -0.000 C 
ATOM      5  C   UNL     1      33.360 -20.915 -18.927  0.00  0.00    -0.000 C 
ATOM      6  C   UNL     1      34.479 -20.263 -19.471  0.00  0.00    +0.000 C 
ATOM      7  C   UNL     1      36.869 -19.815 -19.427  0.00  0.00    +0.000 C 
ATOM      8  C   UNL     1      34.363 -19.414 -20.582  0.00  0.00    +0.003 C 
ATOM      9  C   UNL     1      35.486 -18.774 -21.110  0.00  0.00    +0.031 C 
ATOM     10  C   UNL     1      36.737 -18.975 -20.533  0.00  0.00    +0.003 C 
ENDROOT
BRANCH   9  13
ATOM     11  N   UNL     1      36.062 -16.704 -22.353  0.00  0.00    -0.343 N 
ATOM     12  N   UNL     1      34.534 -18.228 -23.248  0.00  0.00    -0.285 NA
ATOM     13  C   UNL     1      35.350 -17.899 -22.262  0.00  0.00    +0.117 C 
ATOM     14  H   UNL     1      35.955 -16.125 -23.142  0.00  0.00    +0.144 HD
ATOM     15  H   UNL     1      36.673 -16.438 -21.627  0.00  0.00    +0.144 HD
ATOM     16  H   UNL     1      34.441 -17.636 -24.029  0.00  0.00    +0.188 HD
ENDBRANCH   9  13
BRANCH   1  17
ATOM     17  C   UNL     1      34.883 -22.854 -16.064  0.00  0.00    +0.027 C 
ATOM     18  C   UNL     1      35.794 -22.455 -14.945  0.00  0.00    +0.027 C 
ATOM     19  C   UNL     1      34.306 -22.428 -14.750  0.00  0.00    +0.009 C 
BRANCH  18  20
ATOM     20  C   UNL     1      36.599 -23.495 -14.257  0.00  0.00    -0.022 C 
ATOM     21  C   UNL     1      36.448 -24.842 -14.600  0.00  0.00    -0.004 C 
ATOM     22  C   UNL     1      37.512 -23.136 -13.262  0.00  0.00    -0.004 C 
ATOM     23  C   UNL     1      37.202 -25.821 -13.952  0.00  0.00    -0.000 C 
ATOM     24  C   UNL     1      38.266 -24.114 -12.613  0.00  0.00    -0.000 C 
ATOM     25  C   UNL     1      38.111 -25.456 -12.959  0.00  0.00    -0.000 C 
ENDBRANCH  18  20
ENDBRANCH   1  17
TORSDOF 3
ENDMDL
MODEL 4
REMARK VINA RESULT:     -11.5      0.837      1.896
REMARK  Name = 448841
REMARK  3 active torsions:
REMARK  status: ('A' for Active; 'I' for Inactive)
REMARK    1  A    between atoms: C_1  and  C_17
REMARK    2  A    between atoms: C_9  and  C_13
REMARK    3  A    between atoms: C_18  and  C_20
REMARK                            x       y       z     vdW  Elec       q    Type
REMARK                         _______ _______ _______ _____ _____    ______ ____
ROOT
ATOM      1  C   UNL     1      35.934 -20.281 -19.345  0.00  0.00    -0.022 C 
ATOM      2  C   UNL     1      34.641 -20.741 -19.099  0.00  0.00    -0.004 C 
ATOM      3  C   UNL     1      36.945 -20.512 -18.416  0.00  0.00    -0.004 C 
ATOM      4  C   UNL     1      34.341 -21.440 -17.918  0.00  0.00    -0.000 C 
ATOM      5  C   UNL     1      36.664 -21.205 -17.237  0.00  0.00    -0.000 C 
ATOM      6  C   UNL     1      35.368 -21.675 -16.972  0.00  0.00    +0.000 C 
ATOM      7  C   UNL     1      33.045 -21.909 -17.653  0.00  0.00    +0.000 C 
ATOM      8  C   UNL     1      35.069 -22.373 -15.792  0.00  0.00    +0.003 C 
ATOM      9  C   UNL     1      33.775 -22.833 -15.545  0.00  0.00    +0.031 C 
ATOM     10  C   UNL     1      32.765 -22.602 -16.475  0.00  0.00    +0.003 C 
ENDROOT
BRANCH   9  13
ATOM     11  N   UNL     1      34.487 -24.195 -13.594  0.00  0.00    -0.343 N 
ATOM     12  N   UNL     1      32.239 -23.617 -13.871  0.00  0.00    -0.285 NA
ATOM     13  C   UNL     1      33.481 -23.555 -14.318  0.00  0.00    +0.117 C 
ATOM     14  H   UNL     1      34.265 -24.678 -12.766  0.00  0.00    +0.144 HD
ATOM     15  H   UNL     1      35.418 -24.163 -13.912  0.00  0.00    +0.144 HD
ATOM     16  H   UNL     1      32.039 -24.105 -13.040  0.00  0.00    +0.188 HD
ENDBRANCH   9  13
BRANCH   1  17
ATOM     17  C   UNL     1      36.235 -19.541 -20.602  0.00  0.00    +0.027 C 
ATOM     18  C   UNL     1      35.800 -18.115 -20.735  0.00  0.00    +0.027 C 
ATOM     19  C   UNL     1      37.256 -18.446 -20.579  0.00  0.00    +0.009 C 
BRANCH  18  20
ATOM     20  C   UNL     1      35.301 -17.627 -22.044  0.00  0.00    -0.022 C 
ATOM     21  C   UNL     1      35.425 -16.276 -22.385  0.00  0.00    -0.004 C 
ATOM     22  C   UNL     1      34.702 -18.513 -22.944  0.00  0.00    -0.004 C 
ATOM     23  C   UNL     1      34.954 -15.816 -23.615  0.00  0.00    -0.000 C 
ATOM     24  C   UNL     1      34.230 -18.053 -24.174  0.00  0.00    -0.000 C 
ATOM     25  C   UNL     1      34.356 -16.705 -24.509  0.00  0.00    -0.000 C 
ENDBRANCH  18  20
ENDBRANCH   1  17
TORSDOF 3
ENDMDL
MODEL 5
REMARK VINA RESULT:     -11.3      1.171      2.640
REMARK  Name = 448841
REMARK  3 active torsions:
REMARK  status: ('A' for Active; 'I' for Inactive)
REMARK    1  A    between atoms: C_1  and  C_17
REMARK    2  A    between atoms: C_9  and  C_13
REMARK    3  A    between atoms: C_18  and  C_20
REMARK                            x       y       z     vdW  Elec       q    Type
REMARK                         _______ _______ _______ _____ _____    ______ ____
ROOT
ATOM      1  C   UNL     1      34.856 -19.264 -20.814  0.00  0.00    -0.022 C 
ATOM      2  C   UNL     1      33.895 -19.961 -20.083  0.00  0.00    -0.004 C 
ATOM      3  C   UNL     1      36.192 -19.299 -20.423  0.00  0.00    -0.004 C 
ATOM      4  C   UNL     1      34.258 -20.705 -18.948  0.00  0.00    -0.000 C 
ATOM      5  C   UNL     1      36.570 -20.034 -19.297  0.00  0.00    -0.000 C 
ATOM      6  C   UNL     1      35.616 -20.742 -18.549  0.00  0.00    +0.000 C 
ATOM      7  C   UNL     1      33.304 -21.413 -18.200  0.00  0.00    +0.000 C 
ATOM      8  C   UNL     1      35.979 -21.485 -17.415  0.00  0.00    +0.003 C 
ATOM      9  C   UNL     1      35.018 -22.184 -16.683  0.00  0.00    +0.031 C 
ATOM     10  C   UNL     1      33.683 -22.147 -17.076  0.00  0.00    +0.003 C 
ENDROOT
BRANCH   9  13
ATOM     11  N   UNL     1      34.466 -23.400 -14.590  0.00  0.00    -0.343 N 
ATOM     12  N   UNL     1      36.685 -23.226 -15.302  0.00  0.00    -0.285 NA
ATOM     13  C   UNL     1      35.410 -22.949 -15.512  0.00  0.00    +0.117 C 
ATOM     14  H   UNL     1      34.754 -23.917 -13.803  0.00  0.00    +0.144 HD
ATOM     15  H   UNL     1      33.511 -23.202 -14.727  0.00  0.00    +0.144 HD
ATOM     16  H   UNL     1      36.952 -23.745 -14.509  0.00  0.00    +0.188 HD
ENDBRANCH   9  13
BRANCH   1  17
ATOM     17  C   UNL     1      34.454 -18.479 -22.015  0.00  0.00    +0.027 C 
ATOM     18  C   UNL     1      35.441 -17.547 -22.645  0.00  0.00    +0.027 C 
ATOM     19  C   UNL     1      35.056 -18.818 -23.344  0.00  0.00    +0.009 C 
BRANCH  18  20
ATOM     20  C   UNL     1      34.970 -16.247 -23.185  0.00  0.00    -0.022 C 
ATOM     21  C   UNL     1      34.480 -16.165 -24.492  0.00  0.00    -0.004 C 
ATOM     22  C   UNL     1      35.013 -15.097 -22.392  0.00  0.00    -0.004 C 
ATOM     23  C   UNL     1      34.039 -14.943 -25.002  0.00  0.00    -0.000 C 
ATOM     24  C   UNL     1      34.573 -13.875 -22.901  0.00  0.00    -0.000 C 
ATOM     25  C   UNL     1      34.086 -13.799 -24.206  0.00  0.00    -0.000 C 
ENDBRANCH  18  20
ENDBRANCH   1  17
TORSDOF 3
ENDMDL
MODEL 6
REMARK VINA RESULT:     -11.0      5.785      9.555
REMARK  Name = 448841
REMARK  3 active torsions:
REMARK  status: ('A' for Active; 'I' for Inactive)
REMARK    1  A    between atoms: C_1  and  C_17
REMARK    2  A    between atoms: C_9  and  C_13
REMARK    3  A    between atoms: C_18  and  C_20
REMARK                            x       y       z     vdW  Elec       q    Type
REMARK                         _______ _______ _______ _____ _____    ______ ____
ROOT
ATOM      1  C   UNL     1      35.130 -15.700 -21.001  0.00  0.00    -0.022 C 
ATOM      2  C   UNL     1      34.322 -14.924 -20.171  0.00  0.00    -0.004 C 
ATOM      3  C   UNL     1      35.423 -15.267 -22.292  0.00  0.00    -0.004 C 
ATOM      4  C   UNL     1      33.796 -13.701 -20.621  0.00  0.00    -0.000 C 
ATOM      5  C   UNL     1      34.908 -14.055 -22.755  0.00  0.00    -0.000 C 
ATOM      6  C   UNL     1      34.094 -13.261 -21.933  0.00  0.00    +0.000 C 
ATOM      7  C   UNL     1      32.980 -12.907 -19.799  0.00  0.00    +0.000 C 
ATOM      8  C   UNL     1      33.568 -12.040 -22.383  0.00  0.00    +0.003 C 
ATOM      9  C   UNL     1      32.760 -11.262 -21.552  0.00  0.00    +0.031 C 
ATOM     10  C   UNL     1      32.467 -11.696 -20.263  0.00  0.00    +0.003 C 
ENDROOT
BRANCH   9  13
ATOM     11  N   UNL     1      32.911  -9.230 -22.971  0.00  0.00    -0.343 N 
ATOM     12  N   UNL     1      31.064  -9.559 -21.577  0.00  0.00    -0.285 NA
ATOM     13  C   UNL     1      32.224  -9.999 -22.033  0.00  0.00    +0.117 C 
ATOM     14  H   UNL     1      32.529  -8.378 -23.283  0.00  0.00    +0.144 HD
ATOM     15  H   UNL     1      33.777  -9.539 -23.321  0.00  0.00    +0.144 HD
ATOM     16  H   UNL     1      30.700  -8.704 -21.902  0.00  0.00    +0.188 HD
ENDBRANCH   9  13
BRANCH   1  17
ATOM     17  C   UNL     1      35.679 -16.994 -20.508  0.00  0.00    +0.027 C 
ATOM     18  C   UNL     1      35.100 -18.277 -21.019  0.00  0.00    +0.027 C 
ATOM     19  C   UNL     1      36.477 -17.852 -21.441  0.00  0.00    +0.009 C 
BRANCH  18  20
ATOM     20  C   UNL     1      34.946 -19.424 -20.090  0.00  0.00    -0.022 C 
ATOM     21  C   UNL     1      33.675 -19.926 -19.796  0.00  0.00    -0.004 C 
ATOM     22  C   UNL     1      36.071 -20.010 -19.502  0.00  0.00    -0.004 C 
ATOM     23  C   UNL     1      33.529 -21.003 -18.922  0.00  0.00    -0.000 C 
ATOM     24  C   UNL     1      35.926 -21.087 -18.627  0.00  0.00    -0.000 C 
ATOM     25  C   UNL     1      34.655 -21.583 -18.337  0.00  0.00    -0.000 C 
ENDBRANCH  18  20
ENDBRANCH   1  17
TORSDOF 3
ENDMDL
MODEL 7
REMARK VINA RESULT:     -11.0      5.634      9.789
REMARK  Name = 448841
REMARK  3 active torsions:
REMARK  status: ('A' for Active; 'I' for Inactive)
REMARK    1  A    between atoms: C_1  and  C_17
REMARK    2  A    between atoms: C_9  and  C_13
REMARK    3  A    between atoms: C_18  and  C_20
REMARK                            x       y       z     vdW  Elec       q    Type
REMARK                         _______ _______ _______ _____ _____    ______ ____
ROOT
ATOM      1  C   UNL     1      35.266 -16.564 -21.626  0.00  0.00    -0.022 C 
ATOM      2  C   UNL     1      35.076 -15.218 -21.317  0.00  0.00    -0.004 C 
ATOM      3  C   UNL     1      35.127 -17.005 -22.939  0.00  0.00    -0.004 C 
ATOM      4  C   UNL     1      34.742 -14.292 -22.319  0.00  0.00    -0.000 C 
ATOM      5  C   UNL     1      34.796 -16.098 -23.948  0.00  0.00    -0.000 C 
ATOM      6  C   UNL     1      34.601 -14.739 -23.655  0.00  0.00    +0.000 C 
ATOM      7  C   UNL     1      34.546 -12.933 -22.026  0.00  0.00    +0.000 C 
ATOM      8  C   UNL     1      34.268 -13.814 -24.657  0.00  0.00    +0.003 C 
ATOM      9  C   UNL     1      34.077 -12.467 -24.349  0.00  0.00    +0.031 C 
ATOM     10  C   UNL     1      34.216 -12.027 -23.035  0.00  0.00    +0.003 C 
ENDROOT
BRANCH   9  13
ATOM     11  N   UNL     1      33.310 -11.955 -26.654  0.00  0.00    -0.343 N 
ATOM     12  N   UNL     1      33.823 -10.223 -25.171  0.00  0.00    -0.285 NA
ATOM     13  C   UNL     1      33.733 -11.522 -25.398  0.00  0.00    +0.117 C 
ATOM     14  H   UNL     1      33.082 -11.297 -27.350  0.00  0.00    +0.144 HD
ATOM     15  H   UNL     1      33.239 -12.918 -26.844  0.00  0.00    +0.144 HD
ATOM     16  H   UNL     1      33.590  -9.582 -25.880  0.00  0.00    +0.188 HD
ENDBRANCH   9  13
BRANCH   1  17
ATOM     17  C   UNL     1      35.619 -17.532 -20.550  0.00  0.00    +0.027 C 
ATOM     18  C   UNL     1      35.565 -19.000 -20.840  0.00  0.00    +0.027 C 
ATOM     19  C   UNL     1      36.890 -18.317 -20.661  0.00  0.00    +0.009 C 
BRANCH  18  20
ATOM     20  C   UNL     1      35.079 -19.930 -19.791  0.00  0.00    -0.022 C 
ATOM     21  C   UNL     1      35.989 -20.606 -18.972  0.00  0.00    -0.004 C 
ATOM     22  C   UNL     1      33.708 -20.138 -19.614  0.00  0.00    -0.004 C 
ATOM     23  C   UNL     1      35.533 -21.482 -17.987  0.00  0.00    -0.000 C 
ATOM     24  C   UNL     1      33.251 -21.014 -18.630  0.00  0.00    -0.000 C 
ATOM     25  C   UNL     1      34.164 -21.686 -17.817  0.00  0.00    -0.000 C 
ENDBRANCH  18  20
ENDBRANCH   1  17
TORSDOF 3
ENDMDL
MODEL 8
REMARK VINA RESULT:     -10.9      3.734      9.060
REMARK  Name = 448841
REMARK  3 active torsions:
REMARK  status: ('A' for Active; 'I' for Inactive)
REMARK    1  A    between atoms: C_1  and  C_17
REMARK    2  A    between atoms: C_9  and  C_13
REMARK    3  A    between atoms: C_18  and  C_20
REMARK                            x       y       z     vdW  Elec       q    Type
REMARK                         _______ _______ _______ _____ _____    ______ ____
ROOT
ATOM      1  C   UNL     1      35.424 -21.963 -16.847  0.00  0.00    -0.022 C 
ATOM      2  C   UNL     1      34.333 -21.624 -17.647  0.00  0.00    -0.004 C 
ATOM      3  C   UNL     1      36.686 -21.450 -17.135  0.00  0.00    -0.004 C 
ATOM      4  C   UNL     1      34.490 -20.764 -18.747  0.00  0.00    -0.000 C 
ATOM      5  C   UNL     1      36.860 -20.594 -18.224  0.00  0.00    -0.000 C 
ATOM      6  C   UNL     1      35.773 -20.242 -19.040  0.00  0.00    +0.000 C 
ATOM      7  C   UNL     1      33.403 -20.412 -19.563  0.00  0.00    +0.000 C 
ATOM      8  C   UNL     1      35.930 -19.383 -20.139  0.00  0.00    +0.003 C 
ATOM      9  C   UNL     1      34.838 -19.043 -20.939  0.00  0.00    +0.031 C 
ATOM     10  C   UNL     1      33.577 -19.557 -20.651  0.00  0.00    +0.003 C 
ENDROOT
BRANCH   9  13
ATOM     11  N   UNL     1      35.752 -16.972 -21.960  0.00  0.00    -0.343 N 
ATOM     12  N   UNL     1      34.475 -18.453 -23.240  0.00  0.00    -0.285 NA
ATOM     13  C   UNL     1      35.018 -18.152 -22.074  0.00  0.00    +0.117 C 
ATOM     14  H   UNL     1      35.860 -16.383 -22.742  0.00  0.00    +0.144 HD
ATOM     15  H   UNL     1      36.161 -16.728 -21.099  0.00  0.00    +0.144 HD
ATOM     16  H   UNL     1      34.596 -17.851 -24.010  0.00  0.00    +0.188 HD
ENDBRANCH   9  13
BRANCH   1  17
ATOM     17  C   UNL     1      35.240 -22.876 -15.685  0.00  0.00    +0.027 C 
ATOM     18  C   UNL     1      35.794 -22.484 -14.351  0.00  0.00    +0.027 C 
ATOM     19  C   UNL     1      34.311 -22.476 -14.581  0.00  0.00    +0.009 C 
BRANCH  18  20
ATOM     20  C   UNL     1      36.389 -23.525 -13.476  0.00  0.00    -0.022 C 
ATOM     21  C   UNL     1      36.838 -24.731 -14.024  0.00  0.00    -0.004 C 
ATOM     22  C   UNL     1      36.502 -23.309 -12.100  0.00  0.00    -0.004 C 
ATOM     23  C   UNL     1      37.395 -25.711 -13.202  0.00  0.00    -0.000 C 
ATOM     24  C   UNL     1      37.058 -24.288 -11.278  0.00  0.00    -0.000 C 
ATOM     25  C   UNL     1      37.504 -25.490 -11.829  0.00  0.00    -0.000 C 
ENDBRANCH  18  20
ENDBRANCH   1  17
TORSDOF 3
ENDMDL
MODEL 9
REMARK VINA RESULT:     -10.9      5.560      9.715
REMARK  Name = 448841
REMARK  3 active torsions:
REMARK  status: ('A' for Active; 'I' for Inactive)
REMARK    1  A    between atoms: C_1  and  C_17
REMARK    2  A    between atoms: C_9  and  C_13
REMARK    3  A    between atoms: C_18  and  C_20
REMARK                            x       y       z     vdW  Elec       q    Type
REMARK                         _______ _______ _______ _____ _____    ______ ____
ROOT
ATOM      1  C   UNL     1      35.188 -16.303 -21.200  0.00  0.00    -0.022 C 
ATOM      2  C   UNL     1      34.935 -15.895 -22.509  0.00  0.00    -0.004 C 
ATOM      3  C   UNL     1      35.119 -15.382 -20.158  0.00  0.00    -0.004 C 
ATOM      4  C   UNL     1      34.609 -14.559 -22.794  0.00  0.00    -0.000 C 
ATOM      5  C   UNL     1      34.797 -14.050 -20.423  0.00  0.00    -0.000 C 
ATOM      6  C   UNL     1      34.539 -13.622 -21.735  0.00  0.00    +0.000 C 
ATOM      7  C   UNL     1      34.352 -14.131 -24.107  0.00  0.00    +0.000 C 
ATOM      8  C   UNL     1      34.215 -12.287 -22.019  0.00  0.00    +0.003 C 
ATOM      9  C   UNL     1      33.961 -11.878 -23.330  0.00  0.00    +0.031 C 
ATOM     10  C   UNL     1      34.030 -12.800 -24.371  0.00  0.00    +0.003 C 
ENDROOT
BRANCH   9  13
ATOM     11  N   UNL     1      33.047  -9.677 -22.636  0.00  0.00    -0.343 N 
ATOM     12  N   UNL     1      33.864  -9.983 -24.804  0.00  0.00    -0.285 NA
ATOM     13  C   UNL     1      33.625 -10.492 -23.608  0.00  0.00    +0.117 C 
ATOM     14  H   UNL     1      32.827  -8.740 -22.846  0.00  0.00    +0.144 HD
ATOM     15  H   UNL     1      32.858 -10.038 -21.740  0.00  0.00    +0.144 HD
ATOM     16  H   UNL     1      33.637  -9.044 -24.993  0.00  0.00    +0.188 HD
ENDBRANCH   9  13
BRANCH   1  17
ATOM     17  C   UNL     1      35.532 -17.724 -20.915  0.00  0.00    +0.027 C 
ATOM     18  C   UNL     1      34.434 -18.735 -20.806  0.00  0.00    +0.027 C 
ATOM     19  C   UNL     1      35.352 -18.749 -21.992  0.00  0.00    +0.009 C 
BRANCH  18  20
ATOM     20  C   UNL     1      34.539 -19.814 -19.792  0.00  0.00    -0.022 C 
ATOM     21  C   UNL     1      33.386 -20.435 -19.302  0.00  0.00    -0.004 C 
ATOM     22  C   UNL     1      35.792 -20.216 -19.319  0.00  0.00    -0.004 C 
ATOM     23  C   UNL     1      33.484 -21.448 -18.348  0.00  0.00    -0.000 C 
ATOM     24  C   UNL     1      35.891 -21.228 -18.364  0.00  0.00    -0.000 C 
ATOM     25  C   UNL     1      34.737 -21.844 -17.879  0.00  0.00    -0.000 C 
ENDBRANCH  18  20
ENDBRANCH   1  17
TORSDOF 3
ENDMDL
