MODEL 1
REMARK VINA RESULT:     -12.0      0.000      0.000
REMARK  Name = 60854
REMARK  3 active torsions:
REMARK  status: ('A' for Active; 'I' for Inactive)
REMARK    1  A    between atoms: N_2  and  C_17
REMARK    2  A    between atoms: C_17  and  C_18
REMARK    3  A    between atoms: C_18  and  C_22
REMARK                            x       y       z     vdW  Elec       q    Type
REMARK                         _______ _______ _______ _____ _____    ______ ____
ROOT
ATOM      1  S   UNL     1      32.798  -8.988 -22.501  0.00  0.00    +0.014 S 
ATOM      2  N   UNL     1      34.728 -15.243 -23.314  0.00  0.00    +0.389 N 
ATOM      3  N   UNL     1      33.676 -12.680 -22.618  0.00  0.00    -0.297 N 
ATOM      4  N   UNL     1      33.417 -10.360 -23.193  0.00  0.00    -0.194 NA
ATOM      5  C   UNL     1      34.599 -14.850 -21.905  0.00  0.00    -0.055 C 
ATOM      6  C   UNL     1      33.639 -14.650 -24.099  0.00  0.00    -0.055 C 
ATOM      7  C   UNL     1      34.665 -13.328 -21.750  0.00  0.00    +0.069 C 
ATOM      8  C   UNL     1      33.674 -13.122 -24.018  0.00  0.00    +0.069 C 
ATOM      9  C   UNL     1      33.259 -11.373 -22.340  0.00  0.00    +0.140 A 
ATOM     10  C   UNL     1      32.628 -11.079 -21.082  0.00  0.00    +0.040 A 
ATOM     11  C   UNL     1      32.299  -9.723 -21.027  0.00  0.00    +0.050 A 
ATOM     12  C   UNL     1      32.311 -11.893 -19.973  0.00  0.00    +0.003 C 
ATOM     13  C   UNL     1      31.669  -9.149 -19.912  0.00  0.00    +0.008 C 
ATOM     14  C   UNL     1      31.683 -11.332 -18.856  0.00  0.00    +0.000 C 
ATOM     15  C   UNL     1      31.367  -9.978 -18.828  0.00  0.00    +0.001 C 
ATOM     16  H   UNL     1      35.618 -14.898 -23.671  0.00  0.00    -0.080 HD
ENDROOT
BRANCH   2  17
ATOM     17  C   UNL     1      34.718 -16.700 -23.442  0.00  0.00    -0.072 C 
BRANCH  17  18
ATOM     18  C   UNL     1      36.023 -17.304 -22.922  0.00  0.00    +0.004 C 
BRANCH  18  22
ATOM     19 CL   UNL     1      38.461 -18.140 -21.243  0.00  0.00    -0.083 Cl
ATOM     20  O   UNL     1      32.712 -21.588 -18.040  0.00  0.00    -0.274 OA
ATOM     21  N   UNL     1      34.820 -20.748 -18.652  0.00  0.00    -0.284 N 
ATOM     22  C   UNL     1      35.779 -18.229 -21.756  0.00  0.00    -0.014 C 
ATOM     23  C   UNL     1      34.244 -19.486 -20.455  0.00  0.00    +0.000 C 
ATOM     24  C   UNL     1      34.467 -18.639 -21.523  0.00  0.00    -0.006 C 
ATOM     25  C   UNL     1      35.299 -19.907 -19.650  0.00  0.00    +0.048 C 
ATOM     26  C   UNL     1      36.839 -18.655 -20.945  0.00  0.00    +0.055 C 
ATOM     27  C   UNL     1      32.968 -20.088 -19.961  0.00  0.00    +0.113 C 
ATOM     28  C   UNL     1      36.604 -19.511 -19.867  0.00  0.00    +0.025 C 
ATOM     29  C   UNL     1      33.435 -20.915 -18.758  0.00  0.00    +0.231 C 
ATOM     30  H   UNL     1      35.381 -21.170 -17.962  0.00  0.00    +0.155 HD
ENDBRANCH  18  22
ENDBRANCH  17  18
ENDBRANCH   2  17
TORSDOF 3
ENDMDL
MODEL 2
REMARK VINA RESULT:     -11.8      1.653      2.571
REMARK  Name = 60854
REMARK  3 active torsions:
REMARK  status: ('A' for Active; 'I' for Inactive)
REMARK    1  A    between atoms: N_2  and  C_17
REMARK    2  A    between atoms: C_17  and  C_18
REMARK    3  A    between atoms: C_18  and  C_22
REMARK                            x       y       z     vdW  Elec       q    Type
REMARK                         _______ _______ _______ _____ _____    ______ ____
ROOT
ATOM      1  S   UNL     1      31.503  -9.558 -21.344  0.00  0.00    +0.014 S 
ATOM      2  N   UNL     1      34.667 -15.306 -22.022  0.00  0.00    +0.389 N 
ATOM      3  N   UNL     1      33.629 -12.647 -21.947  0.00  0.00    -0.297 N 
ATOM      4  N   UNL     1      31.943 -11.140 -21.127  0.00  0.00    -0.194 NA
ATOM      5  C   UNL     1      34.821 -14.415 -23.179  0.00  0.00    -0.055 C 
ATOM      6  C   UNL     1      34.717 -14.525 -20.780  0.00  0.00    -0.055 C 
ATOM      7  C   UNL     1      33.703 -13.370 -23.220  0.00  0.00    +0.069 C 
ATOM      8  C   UNL     1      33.595 -13.485 -20.742  0.00  0.00    +0.069 C 
ATOM      9  C   UNL     1      33.004 -11.395 -21.895  0.00  0.00    +0.140 A 
ATOM     10  C   UNL     1      33.507 -10.313 -22.696  0.00  0.00    +0.040 A 
ATOM     11  C   UNL     1      32.734  -9.170 -22.483  0.00  0.00    +0.050 A 
ATOM     12  C   UNL     1      34.588 -10.234 -23.602  0.00  0.00    +0.003 C 
ATOM     13  C   UNL     1      32.996  -7.956 -23.136  0.00  0.00    +0.008 C 
ATOM     14  C   UNL     1      34.858  -9.029 -24.258  0.00  0.00    +0.000 C 
ATOM     15  C   UNL     1      34.071  -7.906 -24.027  0.00  0.00    +0.001 C 
ATOM     16  H   UNL     1      33.762 -15.772 -22.083  0.00  0.00    -0.080 HD
ENDROOT
BRANCH   2  17
ATOM     17  C   UNL     1      35.710 -16.333 -22.024  0.00  0.00    -0.072 C 
BRANCH  17  18
ATOM     18  C   UNL     1      35.118 -17.713 -22.313  0.00  0.00    +0.004 C 
BRANCH  18  22
ATOM     19 CL   UNL     1      38.025 -18.071 -21.371  0.00  0.00    -0.083 Cl
ATOM     20  O   UNL     1      34.066 -22.566 -16.975  0.00  0.00    -0.274 OA
ATOM     21  N   UNL     1      35.745 -21.335 -18.068  0.00  0.00    -0.284 N 
ATOM     22  C   UNL     1      35.366 -18.671 -21.174  0.00  0.00    -0.014 C 
ATOM     23  C   UNL     1      34.489 -20.202 -19.589  0.00  0.00    +0.000 C 
ATOM     24  C   UNL     1      34.262 -19.325 -20.631  0.00  0.00    -0.006 C 
ATOM     25  C   UNL     1      35.779 -20.415 -19.109  0.00  0.00    +0.048 C 
ATOM     26  C   UNL     1      36.663 -18.887 -20.690  0.00  0.00    +0.055 C 
ATOM     27  C   UNL     1      33.523 -21.039 -18.813  0.00  0.00    +0.113 C 
ATOM     28  C   UNL     1      36.883 -19.776 -19.635  0.00  0.00    +0.025 C 
ATOM     29  C   UNL     1      34.436 -21.765 -17.819  0.00  0.00    +0.231 C 
ATOM     30  H   UNL     1      36.536 -21.644 -17.571  0.00  0.00    +0.155 HD
ENDBRANCH  18  22
ENDBRANCH  17  18
ENDBRANCH   2  17
TORSDOF 3
ENDMDL
MODEL 3
REMARK VINA RESULT:     -11.4      3.609      5.624
REMARK  Name = 60854
REMARK  3 active torsions:
REMARK  status: ('A' for Active; 'I' for Inactive)
REMARK    1  A    between atoms: N_2  and  C_17
REMARK    2  A    between atoms: C_17  and  C_18
REMARK    3  A    between atoms: C_18  and  C_22
REMARK                            x       y       z     vdW  Elec       q    Type
REMARK                         _______ _______ _______ _____ _____    ______ ____
ROOT
ATOM      1  S   UNL     1      33.737 -15.220 -25.361  0.00  0.00    +0.014 S 
ATOM      2  N   UNL     1      36.312 -19.329 -20.889  0.00  0.00    +0.389 N 
ATOM      3  N   UNL     1      35.170 -17.266 -22.501  0.00  0.00    -0.297 N 
ATOM      4  N   UNL     1      34.270 -16.608 -24.632  0.00  0.00    -0.194 NA
ATOM      5  C   UNL     1      36.691 -17.926 -20.678  0.00  0.00    -0.055 C 
ATOM      6  C   UNL     1      34.909 -19.409 -21.312  0.00  0.00    -0.055 C 
ATOM      7  C   UNL     1      36.526 -17.113 -21.966  0.00  0.00    +0.069 C 
ATOM      8  C   UNL     1      34.687 -18.648 -22.620  0.00  0.00    +0.069 C 
ATOM      9  C   UNL     1      34.663 -16.313 -23.391  0.00  0.00    +0.140 A 
ATOM     10  C   UNL     1      34.548 -14.941 -22.978  0.00  0.00    +0.040 A 
ATOM     11  C   UNL     1      34.022 -14.177 -24.022  0.00  0.00    +0.050 A 
ATOM     12  C   UNL     1      34.864 -14.292 -21.764  0.00  0.00    +0.003 C 
ATOM     13  C   UNL     1      33.799 -12.797 -23.902  0.00  0.00    +0.008 C 
ATOM     14  C   UNL     1      34.646 -12.917 -21.633  0.00  0.00    +0.000 C 
ATOM     15  C   UNL     1      34.120 -12.181 -22.690  0.00  0.00    +0.001 C 
ATOM     16  H   UNL     1      36.901 -19.722 -21.622  0.00  0.00    -0.080 HD
ENDROOT
BRANCH   2  17
ATOM     17  C   UNL     1      36.525 -20.105 -19.667  0.00  0.00    -0.072 C 
BRANCH  17  18
ATOM     18  C   UNL     1      35.198 -20.613 -19.104  0.00  0.00    +0.004 C 
BRANCH  18  22
ATOM     19 CL   UNL     1      32.705 -21.823 -17.766  0.00  0.00    -0.083 Cl
ATOM     20  O   UNL     1      38.250 -23.245 -13.028  0.00  0.00    -0.274 OA
ATOM     21  N   UNL     1      36.190 -23.060 -14.148  0.00  0.00    -0.284 N 
ATOM     22  C   UNL     1      35.385 -21.289 -17.768  0.00  0.00    -0.014 C 
ATOM     23  C   UNL     1      36.844 -21.935 -16.013  0.00  0.00    +0.000 C 
ATOM     24  C   UNL     1      36.673 -21.316 -17.236  0.00  0.00    -0.006 C 
ATOM     25  C   UNL     1      35.762 -22.505 -15.348  0.00  0.00    +0.048 C 
ATOM     26  C   UNL     1      34.298 -21.863 -17.097  0.00  0.00    +0.055 C 
ATOM     27  C   UNL     1      38.085 -22.121 -15.199  0.00  0.00    +0.113 C 
ATOM     28  C   UNL     1      34.481 -22.487 -15.861  0.00  0.00    +0.025 C 
ATOM     29  C   UNL     1      37.567 -22.879 -13.972  0.00  0.00    +0.231 C 
ATOM     30  H   UNL     1      35.603 -23.519 -13.505  0.00  0.00    +0.155 HD
ENDBRANCH  18  22
ENDBRANCH  17  18
ENDBRANCH   2  17
TORSDOF 3
ENDMDL
MODEL 4
REMARK VINA RESULT:     -11.1      5.273     10.229
REMARK  Name = 60854
REMARK  3 active torsions:
REMARK  status: ('A' for Active; 'I' for Inactive)
REMARK    1  A    between atoms: N_2  and  C_17
REMARK    2  A    between atoms: C_17  and  C_18
REMARK    3  A    between atoms: C_18  and  C_22
REMARK                            x       y       z     vdW  Elec       q    Type
REMARK                         _______ _______ _______ _____ _____    ______ ____
ROOT
ATOM      1  S   UNL     1      33.689 -17.184 -25.155  0.00  0.00    +0.014 S 
ATOM      2  N   UNL     1      33.576 -10.746 -23.722  0.00  0.00    +0.389 N 
ATOM      3  N   UNL     1      33.920 -13.565 -24.029  0.00  0.00    -0.297 N 
ATOM      4  N   UNL     1      33.408 -15.556 -25.276  0.00  0.00    -0.194 NA
ATOM      5  C   UNL     1      33.779 -11.602 -22.547  0.00  0.00    -0.055 C 
ATOM      6  C   UNL     1      34.325 -11.282 -24.865  0.00  0.00    -0.055 C 
ATOM      7  C   UNL     1      33.294 -13.029 -22.816  0.00  0.00    +0.069 C 
ATOM      8  C   UNL     1      33.857 -12.698 -25.212  0.00  0.00    +0.069 C 
ATOM      9  C   UNL     1      33.971 -14.949 -24.230  0.00  0.00    +0.140 A 
ATOM     10  C   UNL     1      34.657 -15.783 -23.281  0.00  0.00    +0.040 A 
ATOM     11  C   UNL     1      34.580 -17.117 -23.684  0.00  0.00    +0.050 A 
ATOM     12  C   UNL     1      35.349 -15.480 -22.088  0.00  0.00    +0.003 C 
ATOM     13  C   UNL     1      35.164 -18.158 -22.946  0.00  0.00    +0.008 C 
ATOM     14  C   UNL     1      35.934 -16.510 -21.344  0.00  0.00    +0.000 C 
ATOM     15  C   UNL     1      35.841 -17.831 -21.769  0.00  0.00    +0.001 C 
ATOM     16  H   UNL     1      32.583 -10.735 -23.954  0.00  0.00    -0.080 HD
ENDROOT
BRANCH   2  17
ATOM     17  C   UNL     1      33.993  -9.374 -23.434  0.00  0.00    -0.072 C 
BRANCH  17  18
ATOM     18  C   UNL     1      32.918  -8.375 -23.859  0.00  0.00    +0.004 C 
BRANCH  18  22
ATOM     19 CL   UNL     1      31.823  -5.655 -24.792  0.00  0.00    -0.083 Cl
ATOM     20  O   UNL     1      32.640  -4.923 -17.443  0.00  0.00    -0.274 OA
ATOM     21  N   UNL     1      32.201  -4.632 -19.734  0.00  0.00    -0.284 N 
ATOM     22  C   UNL     1      32.698  -7.316 -22.807  0.00  0.00    -0.014 C 
ATOM     23  C   UNL     1      32.806  -6.677 -20.525  0.00  0.00    +0.000 C 
ATOM     24  C   UNL     1      33.007  -7.646 -21.489  0.00  0.00    -0.006 C 
ATOM     25  C   UNL     1      32.313  -5.422 -20.873  0.00  0.00    +0.048 C 
ATOM     26  C   UNL     1      32.202  -6.052 -23.154  0.00  0.00    +0.055 C 
ATOM     27  C   UNL     1      33.041  -6.730 -19.049  0.00  0.00    +0.113 C 
ATOM     28  C   UNL     1      32.002  -5.079 -22.173  0.00  0.00    +0.025 C 
ATOM     29  C   UNL     1      32.614  -5.330 -18.594  0.00  0.00    +0.231 C 
ATOM     30  H   UNL     1      31.875  -3.703 -19.731  0.00  0.00    +0.155 HD
ENDBRANCH  18  22
ENDBRANCH  17  18
ENDBRANCH   2  17
TORSDOF 3
ENDMDL
MODEL 5
REMARK VINA RESULT:     -11.1      4.907     10.007
REMARK  Name = 60854
REMARK  3 active torsions:
REMARK  status: ('A' for Active; 'I' for Inactive)
REMARK    1  A    between atoms: N_2  and  C_17
REMARK    2  A    between atoms: C_17  and  C_18
REMARK    3  A    between atoms: C_18  and  C_22
REMARK                            x       y       z     vdW  Elec       q    Type
REMARK                         _______ _______ _______ _____ _____    ______ ____
ROOT
ATOM      1  S   UNL     1      35.526 -24.023 -14.006  0.00  0.00    +0.014 S 
ATOM      2  N   UNL     1      34.757 -20.695 -19.649  0.00  0.00    +0.389 N 
ATOM      3  N   UNL     1      34.713 -21.960 -17.089  0.00  0.00    -0.297 N 
ATOM      4  N   UNL     1      35.859 -23.315 -15.466  0.00  0.00    -0.194 NA
ATOM      5  C   UNL     1      33.494 -21.186 -19.085  0.00  0.00    -0.055 C 
ATOM      6  C   UNL     1      35.634 -20.221 -18.572  0.00  0.00    -0.055 C 
ATOM      7  C   UNL     1      33.739 -22.345 -18.115  0.00  0.00    +0.069 C 
ATOM      8  C   UNL     1      35.952 -21.348 -17.587  0.00  0.00    +0.069 C 
ATOM      9  C   UNL     1      34.769 -22.669 -15.883  0.00  0.00    +0.140 A 
ATOM     10  C   UNL     1      33.611 -22.722 -15.033  0.00  0.00    +0.040 A 
ATOM     11  C   UNL     1      33.897 -23.478 -13.895  0.00  0.00    +0.050 A 
ATOM     12  C   UNL     1      32.320 -22.165 -15.163  0.00  0.00    +0.003 C 
ATOM     13  C   UNL     1      32.948 -23.699 -12.884  0.00  0.00    +0.008 C 
ATOM     14  C   UNL     1      31.366 -22.380 -14.163  0.00  0.00    +0.000 C 
ATOM     15  C   UNL     1      31.678 -23.137 -13.039  0.00  0.00    +0.001 C 
ATOM     16  H   UNL     1      35.219 -21.461 -20.138  0.00  0.00    -0.080 HD
ENDROOT
BRANCH   2  17
ATOM     17  C   UNL     1      34.505 -19.624 -20.614  0.00  0.00    -0.072 C 
BRANCH  17  18
ATOM     18  C   UNL     1      35.710 -18.690 -20.721  0.00  0.00    +0.004 C 
BRANCH  18  22
ATOM     19 CL   UNL     1      35.255 -19.014 -23.747  0.00  0.00    -0.083 Cl
ATOM     20  O   UNL     1      34.308 -11.754 -22.478  0.00  0.00    -0.274 OA
ATOM     21  N   UNL     1      34.496 -13.908 -23.403  0.00  0.00    -0.284 N 
ATOM     22  C   UNL     1      35.379 -17.448 -21.511  0.00  0.00    -0.014 C 
ATOM     23  C   UNL     1      35.000 -15.106 -21.537  0.00  0.00    +0.000 C 
ATOM     24  C   UNL     1      35.303 -16.243 -20.814  0.00  0.00    -0.006 C 
ATOM     25  C   UNL     1      34.780 -15.176 -22.910  0.00  0.00    +0.048 C 
ATOM     26  C   UNL     1      35.158 -17.515 -22.893  0.00  0.00    +0.055 C 
ATOM     27  C   UNL     1      34.851 -13.691 -21.079  0.00  0.00    +0.113 C 
ATOM     28  C   UNL     1      34.852 -16.360 -23.616  0.00  0.00    +0.025 C 
ATOM     29  C   UNL     1      34.515 -12.954 -22.380  0.00  0.00    +0.231 C 
ATOM     30  H   UNL     1      34.305 -13.707 -24.348  0.00  0.00    +0.155 HD
ENDBRANCH  18  22
ENDBRANCH  17  18
ENDBRANCH   2  17
TORSDOF 3
ENDMDL
MODEL 6
REMARK VINA RESULT:     -11.0      6.043     11.168
REMARK  Name = 60854
REMARK  3 active torsions:
REMARK  status: ('A' for Active; 'I' for Inactive)
REMARK    1  A    between atoms: N_2  and  C_17
REMARK    2  A    between atoms: C_17  and  C_18
REMARK    3  A    between atoms: C_18  and  C_22
REMARK                            x       y       z     vdW  Elec       q    Type
REMARK                         _______ _______ _______ _____ _____    ______ ____
ROOT
ATOM      1  S   UNL     1      34.886 -15.382 -24.368  0.00  0.00    +0.014 S 
ATOM      2  N   UNL     1      32.195  -9.910 -21.852  0.00  0.00    +0.389 N 
ATOM      3  N   UNL     1      33.502 -12.354 -22.541  0.00  0.00    -0.297 N 
ATOM      4  N   UNL     1      34.177 -13.888 -24.265  0.00  0.00    -0.194 NA
ATOM      5  C   UNL     1      32.179 -11.048 -20.925  0.00  0.00    -0.055 C 
ATOM      6  C   UNL     1      33.460  -9.891 -22.597  0.00  0.00    -0.055 C 
ATOM      7  C   UNL     1      32.316 -12.373 -21.679  0.00  0.00    +0.069 C 
ATOM      8  C   UNL     1      33.638 -11.177 -23.407  0.00  0.00    +0.069 C 
ATOM      9  C   UNL     1      34.062 -13.561 -22.977  0.00  0.00    +0.140 A 
ATOM     10  C   UNL     1      34.544 -14.513 -22.014  0.00  0.00    +0.040 A 
ATOM     11  C   UNL     1      35.057 -15.631 -22.674  0.00  0.00    +0.050 A 
ATOM     12  C   UNL     1      34.577 -14.491 -20.603  0.00  0.00    +0.003 C 
ATOM     13  C   UNL     1      35.599 -16.726 -21.983  0.00  0.00    +0.008 C 
ATOM     14  C   UNL     1      35.115 -15.577 -19.904  0.00  0.00    +0.000 C 
ATOM     15  C   UNL     1      35.619 -16.678 -20.587  0.00  0.00    +0.001 C 
ATOM     16  H   UNL     1      31.425 -10.012 -22.512  0.00  0.00    -0.080 HD
ENDROOT
BRANCH   2  17
ATOM     17  C   UNL     1      32.010  -8.654 -21.125  0.00  0.00    -0.072 C 
BRANCH  17  18
ATOM     18  C   UNL     1      33.201  -7.719 -21.336  0.00  0.00    +0.004 C 
BRANCH  18  22
ATOM     19 CL   UNL     1      32.545  -5.636 -19.169  0.00  0.00    -0.083 Cl
ATOM     20  O   UNL     1      31.357  -2.093 -25.591  0.00  0.00    -0.274 OA
ATOM     21  N   UNL     1      31.579  -2.729 -23.339  0.00  0.00    -0.284 N 
ATOM     22  C   UNL     1      32.758  -6.353 -21.797  0.00  0.00    -0.014 C 
ATOM     23  C   UNL     1      32.271  -4.881 -23.593  0.00  0.00    +0.000 C 
ATOM     24  C   UNL     1      32.677  -6.132 -23.170  0.00  0.00    -0.006 C 
ATOM     25  C   UNL     1      31.958  -3.888 -22.669  0.00  0.00    +0.048 C 
ATOM     26  C   UNL     1      32.441  -5.351 -20.869  0.00  0.00    +0.055 C 
ATOM     27  C   UNL     1      32.089  -4.350 -24.979  0.00  0.00    +0.113 C 
ATOM     28  C   UNL     1      32.032  -4.089 -21.306  0.00  0.00    +0.025 C 
ATOM     29  C   UNL     1      31.627  -2.911 -24.725  0.00  0.00    +0.231 C 
ATOM     30  H   UNL     1      31.312  -1.892 -22.896  0.00  0.00    +0.155 HD
ENDBRANCH  18  22
ENDBRANCH  17  18
ENDBRANCH   2  17
TORSDOF 3
ENDMDL
MODEL 7
REMARK VINA RESULT:     -10.8      5.623     10.774
REMARK  Name = 60854
REMARK  3 active torsions:
REMARK  status: ('A' for Active; 'I' for Inactive)
REMARK    1  A    between atoms: N_2  and  C_17
REMARK    2  A    between atoms: C_17  and  C_18
REMARK    3  A    between atoms: C_18  and  C_22
REMARK                            x       y       z     vdW  Elec       q    Type
REMARK                         _______ _______ _______ _____ _____    ______ ____
ROOT
ATOM      1  S   UNL     1      34.718 -23.712 -12.832  0.00  0.00    +0.014 S 
ATOM      2  N   UNL     1      36.034 -20.471 -18.425  0.00  0.00    +0.389 N 
ATOM      3  N   UNL     1      35.851 -22.058 -16.057  0.00  0.00    -0.297 N 
ATOM      4  N   UNL     1      34.514 -22.805 -14.203  0.00  0.00    -0.194 NA
ATOM      5  C   UNL     1      37.220 -20.698 -17.589  0.00  0.00    -0.055 C 
ATOM      6  C   UNL     1      35.165 -21.654 -18.389  0.00  0.00    -0.055 C 
ATOM      7  C   UNL     1      36.824 -20.964 -16.134  0.00  0.00    +0.069 C 
ATOM      8  C   UNL     1      34.700 -21.949 -16.961  0.00  0.00    +0.069 C 
ATOM      9  C   UNL     1      35.678 -22.750 -14.852  0.00  0.00    +0.140 A 
ATOM     10  C   UNL     1      36.790 -23.445 -14.263  0.00  0.00    +0.040 A 
ATOM     11  C   UNL     1      36.386 -24.058 -13.075  0.00  0.00    +0.050 A 
ATOM     12  C   UNL     1      38.134 -23.592 -14.672  0.00  0.00    +0.003 C 
ATOM     13  C   UNL     1      37.267 -24.810 -12.283  0.00  0.00    +0.008 C 
ATOM     14  C   UNL     1      39.020 -24.339 -13.889  0.00  0.00    +0.000 C 
ATOM     15  C   UNL     1      38.590 -24.939 -12.711  0.00  0.00    +0.001 C 
ATOM     16  H   UNL     1      35.520 -19.672 -18.056  0.00  0.00    -0.080 HD
ENDROOT
BRANCH   2  17
ATOM     17  C   UNL     1      36.429 -20.166 -19.800  0.00  0.00    -0.072 C 
BRANCH  17  18
ATOM     18  C   UNL     1      35.202 -19.934 -20.682  0.00  0.00    +0.004 C 
BRANCH  18  22
ATOM     19 CL   UNL     1      35.260 -19.560 -23.735  0.00  0.00    -0.083 Cl
ATOM     20  O   UNL     1      34.925 -12.656 -21.010  0.00  0.00    -0.274 OA
ATOM     21  N   UNL     1      35.032 -14.577 -22.360  0.00  0.00    -0.284 N 
ATOM     22  C   UNL     1      35.159 -18.521 -21.210  0.00  0.00    -0.014 C 
ATOM     23  C   UNL     1      35.056 -16.194 -20.761  0.00  0.00    +0.000 C 
ATOM     24  C   UNL     1      35.096 -17.488 -20.278  0.00  0.00    -0.006 C 
ATOM     25  C   UNL     1      35.079 -15.948 -22.131  0.00  0.00    +0.048 C 
ATOM     26  C   UNL     1      35.182 -18.270 -22.588  0.00  0.00    +0.055 C 
ATOM     27  C   UNL     1      34.988 -14.897 -20.021  0.00  0.00    +0.113 C 
ATOM     28  C   UNL     1      35.142 -16.959 -23.068  0.00  0.00    +0.025 C 
ATOM     29  C   UNL     1      34.976 -13.867 -21.156  0.00  0.00    +0.231 C 
ATOM     30  H   UNL     1      35.037 -14.161 -23.252  0.00  0.00    +0.155 HD
ENDBRANCH  18  22
ENDBRANCH  17  18
ENDBRANCH   2  17
TORSDOF 3
ENDMDL
MODEL 8
REMARK VINA RESULT:     -10.7      2.382      3.416
REMARK  Name = 60854
REMARK  3 active torsions:
REMARK  status: ('A' for Active; 'I' for Inactive)
REMARK    1  A    between atoms: N_2  and  C_17
REMARK    2  A    between atoms: C_17  and  C_18
REMARK    3  A    between atoms: C_18  and  C_22
REMARK                            x       y       z     vdW  Elec       q    Type
REMARK                         _______ _______ _______ _____ _____    ______ ____
ROOT
ATOM      1  S   UNL     1      34.010 -11.537 -23.328  0.00  0.00    +0.014 S 
ATOM      2  N   UNL     1      35.678 -17.663 -21.541  0.00  0.00    +0.389 N 
ATOM      3  N   UNL     1      34.651 -15.040 -22.011  0.00  0.00    -0.297 N 
ATOM      4  N   UNL     1      34.694 -13.045 -23.353  0.00  0.00    -0.194 NA
ATOM      5  C   UNL     1      35.223 -16.832 -20.420  0.00  0.00    -0.055 C 
ATOM      6  C   UNL     1      34.863 -17.387 -22.730  0.00  0.00    -0.055 C 
ATOM      7  C   UNL     1      35.344 -15.343 -20.755  0.00  0.00    +0.069 C 
ATOM      8  C   UNL     1      34.974 -15.918 -23.143  0.00  0.00    +0.069 C 
ATOM      9  C   UNL     1      34.261 -13.725 -22.289  0.00  0.00    +0.140 A 
ATOM     10  C   UNL     1      33.353 -13.048 -21.404  0.00  0.00    +0.040 A 
ATOM     11  C   UNL     1      33.109 -11.757 -21.879  0.00  0.00    +0.050 A 
ATOM     12  C   UNL     1      32.715 -13.459 -20.214  0.00  0.00    +0.003 C 
ATOM     13  C   UNL     1      32.255 -10.864 -21.213  0.00  0.00    +0.008 C 
ATOM     14  C   UNL     1      31.862 -12.576 -19.542  0.00  0.00    +0.000 C 
ATOM     15  C   UNL     1      31.637 -11.296 -20.037  0.00  0.00    +0.001 C 
ATOM     16  H   UNL     1      36.650 -17.434 -21.747  0.00  0.00    -0.080 HD
ENDROOT
BRANCH   2  17
ATOM     17  C   UNL     1      35.608 -19.082 -21.189  0.00  0.00    -0.072 C 
BRANCH  17  18
ATOM     18  C   UNL     1      36.436 -19.376 -19.938  0.00  0.00    +0.004 C 
BRANCH  18  22
ATOM     19 CL   UNL     1      33.441 -19.841 -20.467  0.00  0.00    -0.083 Cl
ATOM     20  O   UNL     1      34.904 -23.822 -14.366  0.00  0.00    -0.274 OA
ATOM     21  N   UNL     1      33.929 -22.761 -16.224  0.00  0.00    -0.284 N 
ATOM     22  C   UNL     1      35.693 -20.275 -18.982  0.00  0.00    -0.014 C 
ATOM     23  C   UNL     1      35.736 -21.654 -17.052  0.00  0.00    +0.000 C 
ATOM     24  C   UNL     1      36.416 -20.831 -17.928  0.00  0.00    -0.006 C 
ATOM     25  C   UNL     1      34.378 -21.911 -17.228  0.00  0.00    +0.048 C 
ATOM     26  C   UNL     1      34.327 -20.535 -19.156  0.00  0.00    +0.055 C 
ATOM     27  C   UNL     1      36.229 -22.385 -15.844  0.00  0.00    +0.113 C 
ATOM     28  C   UNL     1      33.648 -21.369 -18.266  0.00  0.00    +0.025 C 
ATOM     29  C   UNL     1      34.967 -23.098 -15.348  0.00  0.00    +0.231 C 
ATOM     30  H   UNL     1      33.003 -23.083 -16.140  0.00  0.00    +0.155 HD
ENDBRANCH  18  22
ENDBRANCH  17  18
ENDBRANCH   2  17
TORSDOF 3
ENDMDL
MODEL 9
REMARK VINA RESULT:     -10.5      5.969     11.242
REMARK  Name = 60854
REMARK  3 active torsions:
REMARK  status: ('A' for Active; 'I' for Inactive)
REMARK    1  A    between atoms: N_2  and  C_17
REMARK    2  A    between atoms: C_17  and  C_18
REMARK    3  A    between atoms: C_18  and  C_22
REMARK                            x       y       z     vdW  Elec       q    Type
REMARK                         _______ _______ _______ _____ _____    ______ ____
ROOT
ATOM      1  S   UNL     1      35.530 -23.942 -11.424  0.00  0.00    +0.014 S 
ATOM      2  N   UNL     1      34.255 -21.470 -17.405  0.00  0.00    +0.389 N 
ATOM      3  N   UNL     1      35.135 -22.747 -15.006  0.00  0.00    -0.297 N 
ATOM      4  N   UNL     1      34.742 -23.201 -12.678  0.00  0.00    -0.194 NA
ATOM      5  C   UNL     1      35.688 -21.646 -17.140  0.00  0.00    -0.055 C 
ATOM      6  C   UNL     1      33.502 -22.599 -16.846  0.00  0.00    -0.055 C 
ATOM      7  C   UNL     1      35.965 -21.714 -15.635  0.00  0.00    +0.069 C 
ATOM      8  C   UNL     1      33.704 -22.697 -15.332  0.00  0.00    +0.069 C 
ATOM      9  C   UNL     1      35.509 -23.278 -13.767  0.00  0.00    +0.140 A 
ATOM     10  C   UNL     1      36.776 -23.944 -13.629  0.00  0.00    +0.040 A 
ATOM     11  C   UNL     1      36.933 -24.389 -12.315  0.00  0.00    +0.050 A 
ATOM     12  C   UNL     1      37.811 -24.200 -14.554  0.00  0.00    +0.003 C 
ATOM     13  C   UNL     1      38.080 -25.077 -11.890  0.00  0.00    +0.008 C 
ATOM     14  C   UNL     1      38.959 -24.884 -14.141  0.00  0.00    +0.000 C 
ATOM     15  C   UNL     1      39.089 -25.316 -12.825  0.00  0.00    +0.001 C 
ATOM     16  H   UNL     1      33.941 -20.610 -16.958  0.00  0.00    -0.080 HD
ENDROOT
BRANCH   2  17
ATOM     17  C   UNL     1      34.011 -21.353 -18.843  0.00  0.00    -0.072 C 
BRANCH  17  18
ATOM     18  C   UNL     1      35.326 -21.364 -19.623  0.00  0.00    +0.004 C 
BRANCH  18  22
ATOM     19 CL   UNL     1      37.429 -19.468 -18.419  0.00  0.00    -0.083 Cl
ATOM     20  O   UNL     1      34.866 -15.868 -24.392  0.00  0.00    -0.274 OA
ATOM     21  N   UNL     1      35.995 -16.556 -22.448  0.00  0.00    -0.284 N 
ATOM     22  C   UNL     1      35.562 -20.051 -20.328  0.00  0.00    -0.014 C 
ATOM     23  C   UNL     1      35.028 -18.588 -22.117  0.00  0.00    +0.000 C 
ATOM     24  C   UNL     1      34.811 -19.790 -21.472  0.00  0.00    -0.006 C 
ATOM     25  C   UNL     1      35.964 -17.680 -21.630  0.00  0.00    +0.048 C 
ATOM     26  C   UNL     1      36.504 -19.135 -19.839  0.00  0.00    +0.055 C 
ATOM     27  C   UNL     1      34.386 -18.032 -23.348  0.00  0.00    +0.113 C 
ATOM     28  C   UNL     1      36.716 -17.922 -20.498  0.00  0.00    +0.025 C 
ATOM     29  C   UNL     1      35.084 -16.676 -23.503  0.00  0.00    +0.231 C 
ATOM     30  H   UNL     1      36.580 -15.778 -22.304  0.00  0.00    +0.155 HD
ENDBRANCH  18  22
ENDBRANCH  17  18
ENDBRANCH   2  17
TORSDOF 3
ENDMDL
