MODEL 1
REMARK VINA RESULT:     -11.7      0.000      0.000
REMARK  Name = 25147644
REMARK  4 active torsions:
REMARK  status: ('A' for Active; 'I' for Inactive)
REMARK    1  A    between atoms: C_3  and  N_11
REMARK    2  A    between atoms: C_4  and  C_23
REMARK    3  A    between atoms: C_12  and  C_15
REMARK    4  A    between atoms: C_23  and  C_25
REMARK                            x       y       z     vdW  Elec       q    Type
REMARK                         _______ _______ _______ _____ _____    ______ ____
ROOT
ATOM      1  N   UNL     1      32.487 -23.342 -13.116  0.00  0.00    +0.390 N 
ATOM      2  C   UNL     1      31.229 -23.180 -15.389  0.00  0.00    +0.012 C 
ATOM      3  C   UNL     1      32.757 -23.249 -15.602  0.00  0.00    +0.053 C 
ATOM      4  C   UNL     1      33.459 -23.131 -14.225  0.00  0.00    -0.035 C 
ATOM      5  C   UNL     1      30.895 -21.985 -14.480  0.00  0.00    -0.021 C 
ATOM      6  C   UNL     1      30.833 -24.457 -14.628  0.00  0.00    -0.021 C 
ATOM      7  C   UNL     1      31.561 -22.184 -13.106  0.00  0.00    -0.077 C 
ATOM      8  C   UNL     1      31.680 -24.563 -13.348  0.00  0.00    -0.077 C 
ATOM      9  H   UNL     1      32.994 -23.439 -12.236  0.00  0.00    -0.080 HD
ENDROOT
BRANCH   3  11
ATOM     10  O   UNL     1      33.813 -23.698 -18.234  0.00  0.00    -0.267 OA
ATOM     11  N   UNL     1      33.227 -22.244 -16.525  0.00  0.00    -0.302 N 
ATOM     12  C   UNL     1      33.722 -22.560 -17.781  0.00  0.00    +0.280 C 
ATOM     13  H   UNL     1      33.195 -21.299 -16.251  0.00  0.00    +0.150 HD
BRANCH  12  15
ATOM     14  O   UNL     1      35.527 -21.170 -18.647  0.00  0.00    -0.449 OA
ATOM     15  C   UNL     1      34.191 -21.412 -18.602  0.00  0.00    +0.198 C 
ATOM     16  C   UNL     1      33.504 -20.498 -19.365  0.00  0.00    +0.045 C 
ATOM     17  C   UNL     1      34.477 -19.630 -19.923  0.00  0.00    +0.038 C 
ATOM     18  C   UNL     1      35.705 -20.085 -19.452  0.00  0.00    +0.146 C 
ATOM     19  C   UNL     1      34.459 -18.510 -20.772  0.00  0.00    +0.003 C 
ATOM     20  C   UNL     1      36.929 -19.500 -19.767  0.00  0.00    +0.037 C 
ATOM     21  C   UNL     1      35.675 -17.900 -21.108  0.00  0.00    +0.000 C 
ATOM     22  C   UNL     1      36.887 -18.388 -20.614  0.00  0.00    +0.003 C 
ENDBRANCH  12  15
ENDBRANCH   3  11
BRANCH   4  23
ATOM     23  C   UNL     1      34.656 -24.080 -14.116  0.00  0.00    +0.009 C 
BRANCH  23  25
ATOM     24  N   UNL     1      37.813 -22.420 -12.859  0.00  0.00    -0.243 NA
ATOM     25  C   UNL     1      35.698 -23.547 -13.174  0.00  0.00    -0.005 C 
ATOM     26  C   UNL     1      35.549 -23.671 -11.797  0.00  0.00    -0.001 C 
ATOM     27  C   UNL     1      36.838 -22.919 -13.651  0.00  0.00    +0.095 C 
ATOM     28  C   UNL     1      36.532 -23.169 -10.950  0.00  0.00    +0.020 C 
ATOM     29  C   UNL     1      37.634 -22.558 -11.525  0.00  0.00    +0.099 C 
ENDBRANCH  23  25
ENDBRANCH   4  23
TORSDOF 4
ENDMDL
MODEL 2
REMARK VINA RESULT:     -11.4      1.559      4.409
REMARK  Name = 25147644
REMARK  4 active torsions:
REMARK  status: ('A' for Active; 'I' for Inactive)
REMARK    1  A    between atoms: C_3  and  N_11
REMARK    2  A    between atoms: C_4  and  C_23
REMARK    3  A    between atoms: C_12  and  C_15
REMARK    4  A    between atoms: C_23  and  C_25
REMARK                            x       y       z     vdW  Elec       q    Type
REMARK                         _______ _______ _______ _____ _____    ______ ____
ROOT
ATOM      1  N   UNL     1      36.161 -25.006 -12.789  0.00  0.00    +0.390 N 
ATOM      2  C   UNL     1      37.710 -23.073 -13.589  0.00  0.00    +0.012 C 
ATOM      3  C   UNL     1      36.227 -22.642 -13.608  0.00  0.00    +0.053 C 
ATOM      4  C   UNL     1      35.342 -23.884 -13.328  0.00  0.00    -0.035 C 
ATOM      5  C   UNL     1      37.886 -24.328 -14.461  0.00  0.00    -0.021 C 
ATOM      6  C   UNL     1      38.032 -23.476 -12.140  0.00  0.00    -0.021 C 
ATOM      7  C   UNL     1      37.046 -25.480 -13.880  0.00  0.00    -0.077 C 
ATOM      8  C   UNL     1      37.023 -24.541 -11.677  0.00  0.00    -0.077 C 
ATOM      9  H   UNL     1      35.541 -25.741 -12.446  0.00  0.00    -0.080 HD
ENDROOT
BRANCH   3  11
ATOM     10  O   UNL     1      34.900 -23.856 -15.846  0.00  0.00    -0.267 OA
ATOM     11  N   UNL     1      35.861 -21.997 -14.845  0.00  0.00    -0.302 N 
ATOM     12  C   UNL     1      35.219 -22.670 -15.874  0.00  0.00    +0.280 C 
ATOM     13  H   UNL     1      36.075 -21.043 -14.963  0.00  0.00    +0.150 HD
BRANCH  12  15
ATOM     14  O   UNL     1      35.987 -21.320 -17.752  0.00  0.00    -0.449 OA
ATOM     15  C   UNL     1      34.933 -21.870 -17.094  0.00  0.00    +0.198 C 
ATOM     16  C   UNL     1      33.751 -21.560 -17.723  0.00  0.00    +0.045 C 
ATOM     17  C   UNL     1      34.092 -20.764 -18.848  0.00  0.00    +0.038 C 
ATOM     18  C   UNL     1      35.478 -20.646 -18.821  0.00  0.00    +0.146 C 
ATOM     19  C   UNL     1      33.384 -20.131 -19.884  0.00  0.00    +0.003 C 
ATOM     20  C   UNL     1      36.220 -19.935 -19.761  0.00  0.00    +0.037 C 
ATOM     21  C   UNL     1      34.104 -19.407 -20.845  0.00  0.00    +0.000 C 
ATOM     22  C   UNL     1      35.496 -19.313 -20.783  0.00  0.00    +0.003 C 
ENDBRANCH  12  15
ENDBRANCH   3  11
BRANCH   4  23
ATOM     23  C   UNL     1      34.167 -23.546 -12.407  0.00  0.00    +0.009 C 
BRANCH  23  25
ATOM     24  N   UNL     1      30.936 -24.754 -13.958  0.00  0.00    -0.243 NA
ATOM     25  C   UNL     1      32.864 -23.537 -13.156  0.00  0.00    -0.005 C 
ATOM     26  C   UNL     1      32.377 -22.369 -13.732  0.00  0.00    -0.001 C 
ATOM     27  C   UNL     1      32.113 -24.693 -13.296  0.00  0.00    +0.095 C 
ATOM     28  C   UNL     1      31.169 -22.392 -14.421  0.00  0.00    +0.020 C 
ATOM     29  C   UNL     1      30.493 -23.599 -14.505  0.00  0.00    +0.099 C 
ENDBRANCH  23  25
ENDBRANCH   4  23
TORSDOF 4
ENDMDL
MODEL 3
REMARK VINA RESULT:      -9.9      8.998     13.837
REMARK  Name = 25147644
REMARK  4 active torsions:
REMARK  status: ('A' for Active; 'I' for Inactive)
REMARK    1  A    between atoms: C_3  and  N_11
REMARK    2  A    between atoms: C_4  and  C_23
REMARK    3  A    between atoms: C_12  and  C_15
REMARK    4  A    between atoms: C_23  and  C_25
REMARK                            x       y       z     vdW  Elec       q    Type
REMARK                         _______ _______ _______ _____ _____    ______ ____
ROOT
ATOM      1  N   UNL     1      34.135  -7.292 -22.689  0.00  0.00    +0.390 N 
ATOM      2  C   UNL     1      34.589  -9.218 -24.381  0.00  0.00    +0.012 C 
ATOM      3  C   UNL     1      33.632  -9.677 -23.260  0.00  0.00    +0.053 C 
ATOM      4  C   UNL     1      33.564  -8.569 -22.177  0.00  0.00    -0.035 C 
ATOM      5  C   UNL     1      35.898  -8.704 -23.755  0.00  0.00    -0.021 C 
ATOM      6  C   UNL     1      33.915  -8.021 -25.074  0.00  0.00    -0.021 C 
ATOM      7  C   UNL     1      35.595  -7.490 -22.858  0.00  0.00    -0.077 C 
ATOM      8  C   UNL     1      33.568  -6.958 -24.017  0.00  0.00    -0.077 C 
ATOM      9  H   UNL     1      33.920  -6.540 -22.034  0.00  0.00    -0.080 HD
ENDROOT
BRANCH   3  11
ATOM     10  O   UNL     1      33.698 -12.205 -24.619  0.00  0.00    -0.267 OA
ATOM     11  N   UNL     1      34.018 -10.947 -22.697  0.00  0.00    -0.302 N 
ATOM     12  C   UNL     1      34.018 -12.121 -23.436  0.00  0.00    +0.280 C 
ATOM     13  H   UNL     1      34.291 -10.982 -21.752  0.00  0.00    +0.150 HD
BRANCH  12  15
ATOM     14  O   UNL     1      34.760 -14.441 -23.436  0.00  0.00    -0.449 OA
ATOM     15  C   UNL     1      34.417 -13.351 -22.703  0.00  0.00    +0.198 C 
ATOM     16  C   UNL     1      34.512 -13.618 -21.358  0.00  0.00    +0.045 C 
ATOM     17  C   UNL     1      34.944 -14.965 -21.246  0.00  0.00    +0.038 C 
ATOM     18  C   UNL     1      35.082 -15.427 -22.552  0.00  0.00    +0.146 C 
ATOM     19  C   UNL     1      35.233 -15.846 -20.189  0.00  0.00    +0.003 C 
ATOM     20  C   UNL     1      35.492 -16.716 -22.886  0.00  0.00    +0.037 C 
ATOM     21  C   UNL     1      35.648 -17.149 -20.494  0.00  0.00    +0.000 C 
ATOM     22  C   UNL     1      35.774 -17.574 -21.819  0.00  0.00    +0.003 C 
ENDBRANCH  12  15
ENDBRANCH   3  11
BRANCH   4  23
ATOM     23  C   UNL     1      32.140  -8.381 -21.648  0.00  0.00    +0.009 C 
BRANCH  23  25
ATOM     24  N   UNL     1      32.257  -9.196 -17.956  0.00  0.00    -0.243 NA
ATOM     25  C   UNL     1      31.933  -9.110 -20.350  0.00  0.00    -0.005 C 
ATOM     26  C   UNL     1      31.262 -10.327 -20.312  0.00  0.00    -0.001 C 
ATOM     27  C   UNL     1      32.407  -8.591 -19.156  0.00  0.00    +0.095 C 
ATOM     28  C   UNL     1      31.087 -10.979 -19.095  0.00  0.00    +0.020 C 
ATOM     29  C   UNL     1      31.599 -10.378 -17.957  0.00  0.00    +0.099 C 
ENDBRANCH  23  25
ENDBRANCH   4  23
TORSDOF 4
ENDMDL
MODEL 4
REMARK VINA RESULT:      -9.7      9.822     14.737
REMARK  Name = 25147644
REMARK  4 active torsions:
REMARK  status: ('A' for Active; 'I' for Inactive)
REMARK    1  A    between atoms: C_3  and  N_11
REMARK    2  A    between atoms: C_4  and  C_23
REMARK    3  A    between atoms: C_12  and  C_15
REMARK    4  A    between atoms: C_23  and  C_25
REMARK                            x       y       z     vdW  Elec       q    Type
REMARK                         _______ _______ _______ _____ _____    ______ ____
ROOT
ATOM      1  N   UNL     1      34.170  -7.268 -22.666  0.00  0.00    +0.390 N 
ATOM      2  C   UNL     1      34.351  -9.243 -24.351  0.00  0.00    +0.012 C 
ATOM      3  C   UNL     1      33.504  -9.637 -23.122  0.00  0.00    +0.053 C 
ATOM      4  C   UNL     1      33.605  -8.508 -22.064  0.00  0.00    -0.035 C 
ATOM      5  C   UNL     1      35.742  -8.778 -23.884  0.00  0.00    -0.021 C 
ATOM      6  C   UNL     1      33.657  -8.030 -24.994  0.00  0.00    -0.021 C 
ATOM      7  C   UNL     1      35.593  -7.535 -22.988  0.00  0.00    -0.077 C 
ATOM      8  C   UNL     1      33.476  -6.932 -23.931  0.00  0.00    -0.077 C 
ATOM      9  H   UNL     1      34.061  -6.494 -22.009  0.00  0.00    -0.080 HD
ENDROOT
BRANCH   3  11
ATOM     10  O   UNL     1      33.855 -12.089 -24.573  0.00  0.00    -0.267 OA
ATOM     11  N   UNL     1      33.894 -10.913 -22.574  0.00  0.00    -0.302 N 
ATOM     12  C   UNL     1      34.039 -12.048 -23.359  0.00  0.00    +0.280 C 
ATOM     13  H   UNL     1      34.064 -10.981 -21.607  0.00  0.00    +0.150 HD
BRANCH  12  15
ATOM     14  O   UNL     1      34.757 -14.376 -23.385  0.00  0.00    -0.449 OA
ATOM     15  C   UNL     1      34.421 -13.291 -22.640  0.00  0.00    +0.198 C 
ATOM     16  C   UNL     1      34.507 -13.576 -21.298  0.00  0.00    +0.045 C 
ATOM     17  C   UNL     1      34.924 -14.929 -21.202  0.00  0.00    +0.038 C 
ATOM     18  C   UNL     1      35.064 -15.376 -22.512  0.00  0.00    +0.146 C 
ATOM     19  C   UNL     1      35.199 -15.826 -20.155  0.00  0.00    +0.003 C 
ATOM     20  C   UNL     1      35.461 -16.665 -22.861  0.00  0.00    +0.037 C 
ATOM     21  C   UNL     1      35.601 -17.131 -20.474  0.00  0.00    +0.000 C 
ATOM     22  C   UNL     1      35.729 -17.540 -21.804  0.00  0.00    +0.003 C 
ENDBRANCH  12  15
ENDBRANCH   3  11
BRANCH   4  23
ATOM     23  C   UNL     1      32.256  -8.245 -21.387  0.00  0.00    +0.009 C 
BRANCH  23  25
ATOM     24  N   UNL     1      33.099  -6.070 -18.409  0.00  0.00    -0.243 NA
ATOM     25  C   UNL     1      32.320  -7.050 -20.477  0.00  0.00    -0.005 C 
ATOM     26  C   UNL     1      31.693  -5.857 -20.817  0.00  0.00    -0.001 C 
ATOM     27  C   UNL     1      33.005  -7.105 -19.273  0.00  0.00    +0.095 C 
ATOM     28  C   UNL     1      31.768  -4.769 -19.954  0.00  0.00    +0.020 C 
ATOM     29  C   UNL     1      32.477  -4.925 -18.773  0.00  0.00    +0.099 C 
ENDBRANCH  23  25
ENDBRANCH   4  23
TORSDOF 4
ENDMDL
MODEL 5
REMARK VINA RESULT:      -9.5      2.579      6.304
REMARK  Name = 25147644
REMARK  4 active torsions:
REMARK  status: ('A' for Active; 'I' for Inactive)
REMARK    1  A    between atoms: C_3  and  N_11
REMARK    2  A    between atoms: C_4  and  C_23
REMARK    3  A    between atoms: C_12  and  C_15
REMARK    4  A    between atoms: C_23  and  C_25
REMARK                            x       y       z     vdW  Elec       q    Type
REMARK                         _______ _______ _______ _____ _____    ______ ____
ROOT
ATOM      1  N   UNL     1      30.394 -23.491 -15.616  0.00  0.00    +0.390 N 
ATOM      2  C   UNL     1      31.748 -23.260 -13.405  0.00  0.00    +0.012 C 
ATOM      3  C   UNL     1      32.472 -22.562 -14.577  0.00  0.00    +0.053 C 
ATOM      4  C   UNL     1      31.735 -22.908 -15.897  0.00  0.00    -0.035 C 
ATOM      5  C   UNL     1      31.509 -24.738 -13.763  0.00  0.00    -0.021 C 
ATOM      6  C   UNL     1      30.368 -22.592 -13.280  0.00  0.00    -0.021 C 
ATOM      7  C   UNL     1      30.603 -24.825 -15.005  0.00  0.00    -0.077 C 
ATOM      8  C   UNL     1      29.651 -22.659 -14.640  0.00  0.00    -0.077 C 
ATOM      9  H   UNL     1      29.860 -23.543 -16.485  0.00  0.00    -0.080 HD
ENDROOT
BRANCH   3  11
ATOM     10  O   UNL     1      34.206 -23.117 -12.356  0.00  0.00    -0.267 OA
ATOM     11  N   UNL     1      33.870 -22.911 -14.642  0.00  0.00    -0.302 N 
ATOM     12  C   UNL     1      34.629 -23.163 -13.509  0.00  0.00    +0.280 C 
ATOM     13  H   UNL     1      34.302 -22.972 -15.525  0.00  0.00    +0.150 HD
BRANCH  12  15
ATOM     14  O   UNL     1      36.642 -24.412 -12.940  0.00  0.00    -0.449 OA
ATOM     15  C   UNL     1      36.061 -23.484 -13.744  0.00  0.00    +0.198 C 
ATOM     16  C   UNL     1      36.963 -23.002 -14.663  0.00  0.00    +0.045 C 
ATOM     17  C   UNL     1      38.187 -23.676 -14.414  0.00  0.00    +0.038 C 
ATOM     18  C   UNL     1      37.937 -24.532 -13.345  0.00  0.00    +0.146 C 
ATOM     19  C   UNL     1      39.478 -23.658 -14.971  0.00  0.00    +0.003 C 
ATOM     20  C   UNL     1      38.889 -25.381 -12.784  0.00  0.00    +0.037 C 
ATOM     21  C   UNL     1      40.457 -24.502 -14.428  0.00  0.00    +0.000 C 
ATOM     22  C   UNL     1      40.165 -25.347 -13.355  0.00  0.00    +0.003 C 
ENDBRANCH  12  15
ENDBRANCH   3  11
BRANCH   4  23
ATOM     23  C   UNL     1      31.643 -21.696 -16.828  0.00  0.00    +0.009 C 
BRANCH  23  25
ATOM     24  N   UNL     1      35.206 -22.132 -18.020  0.00  0.00    -0.243 NA
ATOM     25  C   UNL     1      32.896 -21.530 -17.641  0.00  0.00    -0.005 C 
ATOM     26  C   UNL     1      32.936 -20.660 -18.725  0.00  0.00    -0.001 C 
ATOM     27  C   UNL     1      34.047 -22.236 -17.332  0.00  0.00    +0.095 C 
ATOM     28  C   UNL     1      34.111 -20.525 -19.458  0.00  0.00    +0.020 C 
ATOM     29  C   UNL     1      35.208 -21.277 -19.069  0.00  0.00    +0.099 C 
ENDBRANCH  23  25
ENDBRANCH   4  23
TORSDOF 4
ENDMDL
MODEL 6
REMARK VINA RESULT:      -8.8      2.431      6.625
REMARK  Name = 25147644
REMARK  4 active torsions:
REMARK  status: ('A' for Active; 'I' for Inactive)
REMARK    1  A    between atoms: C_3  and  N_11
REMARK    2  A    between atoms: C_4  and  C_23
REMARK    3  A    between atoms: C_12  and  C_15
REMARK    4  A    between atoms: C_23  and  C_25
REMARK                            x       y       z     vdW  Elec       q    Type
REMARK                         _______ _______ _______ _____ _____    ______ ____
ROOT
ATOM      1  N   UNL     1      37.892 -22.657 -12.102  0.00  0.00    +0.390 N 
ATOM      2  C   UNL     1      36.490 -24.824 -11.763  0.00  0.00    +0.012 C 
ATOM      3  C   UNL     1      36.371 -24.305 -13.213  0.00  0.00    +0.053 C 
ATOM      4  C   UNL     1      37.047 -22.913 -13.302  0.00  0.00    -0.035 C 
ATOM      5  C   UNL     1      36.051 -23.716 -10.788  0.00  0.00    -0.021 C 
ATOM      6  C   UNL     1      37.984 -25.087 -11.510  0.00  0.00    -0.021 C 
ATOM      7  C   UNL     1      36.984 -22.500 -10.940  0.00  0.00    -0.077 C 
ATOM      8  C   UNL     1      38.781 -23.810 -11.828  0.00  0.00    -0.077 C 
ATOM      9  H   UNL     1      38.462 -21.826 -12.262  0.00  0.00    -0.080 HD
ENDROOT
BRANCH   3  11
ATOM     10  O   UNL     1      34.211 -22.846 -12.010  0.00  0.00    -0.267 OA
ATOM     11  N   UNL     1      35.003 -24.261 -13.668  0.00  0.00    -0.302 N 
ATOM     12  C   UNL     1      34.025 -23.524 -13.017  0.00  0.00    +0.280 C 
ATOM     13  H   UNL     1      34.755 -24.774 -14.470  0.00  0.00    +0.150 HD
BRANCH  12  15
ATOM     14  O   UNL     1      32.331 -22.716 -14.570  0.00  0.00    -0.449 OA
ATOM     15  C   UNL     1      32.658 -23.604 -13.596  0.00  0.00    +0.198 C 
ATOM     16  C   UNL     1      31.604 -24.444 -13.328  0.00  0.00    +0.045 C 
ATOM     17  C   UNL     1      30.549 -24.052 -14.193  0.00  0.00    +0.038 C 
ATOM     18  C   UNL     1      31.046 -22.986 -14.936  0.00  0.00    +0.146 C 
ATOM     19  C   UNL     1      29.230 -24.478 -14.430  0.00  0.00    +0.003 C 
ATOM     20  C   UNL     1      30.318 -22.304 -15.909  0.00  0.00    +0.037 C 
ATOM     21  C   UNL     1      28.473 -23.812 -15.404  0.00  0.00    +0.000 C 
ATOM     22  C   UNL     1      29.010 -22.745 -16.129  0.00  0.00    +0.003 C 
ENDBRANCH  12  15
ENDBRANCH   3  11
BRANCH   4  23
ATOM     23  C   UNL     1      37.844 -22.753 -14.600  0.00  0.00    +0.009 C 
BRANCH  23  25
ATOM     24  N   UNL     1      34.843 -22.171 -16.828  0.00  0.00    -0.243 NA
ATOM     25  C   UNL     1      36.986 -22.213 -15.709  0.00  0.00    -0.005 C 
ATOM     26  C   UNL     1      37.491 -21.297 -16.625  0.00  0.00    -0.001 C 
ATOM     27  C   UNL     1      35.667 -22.616 -15.853  0.00  0.00    +0.095 C 
ATOM     28  C   UNL     1      36.673 -20.817 -17.642  0.00  0.00    +0.020 C 
ATOM     29  C   UNL     1      35.369 -21.281 -17.700  0.00  0.00    +0.099 C 
ENDBRANCH  23  25
ENDBRANCH   4  23
TORSDOF 4
ENDMDL
