MODEL 1
REMARK VINA RESULT:     -11.8      0.000      0.000
REMARK  Name = 4369285
REMARK  9 active torsions:
REMARK  status: ('A' for Active; 'I' for Inactive)
REMARK    1  A    between atoms: N_1  and  C_18
REMARK    2  A    between atoms: N_2  and  C_8
REMARK    3  A    between atoms: C_11  and  C_17
REMARK    4  A    between atoms: C_18  and  C_19
REMARK    5  A    between atoms: C_19  and  C_21
REMARK    6  A    between atoms: C_21  and  C_22
REMARK    7  A    between atoms: C_25  and  N_30
REMARK    8  A    between atoms: C_26  and  O_31
REMARK    9  A    between atoms: C_27  and  O_33
REMARK                            x       y       z     vdW  Elec       q    Type
REMARK                         _______ _______ _______ _____ _____    ______ ____
ROOT
ATOM      1  N   UNL     1      34.022 -22.006 -18.136  0.00  0.00    +0.390 N 
ATOM      2  N   UNL     1      34.615 -19.790 -19.837  0.00  0.00    -0.312 N 
ATOM      3  C   UNL     1      35.342 -21.366 -18.089  0.00  0.00    -0.055 C 
ATOM      4  C   UNL     1      32.991 -21.005 -18.436  0.00  0.00    -0.055 C 
ATOM      5  C   UNL     1      35.683 -20.709 -19.429  0.00  0.00    +0.068 C 
ATOM      6  C   UNL     1      33.253 -20.336 -19.788  0.00  0.00    +0.068 C 
ATOM      7  H   UNL     1      34.024 -22.710 -18.874  0.00  0.00    -0.080 HD
ENDROOT
BRANCH   2   8
ATOM      8  C   UNL     1      34.885 -18.781 -20.770  0.00  0.00    +0.048 C 
ATOM      9  C   UNL     1      34.470 -18.902 -22.111  0.00  0.00    +0.018 C 
ATOM     10  C   UNL     1      35.581 -17.615 -20.394  0.00  0.00    +0.015 C 
ATOM     11  C   UNL     1      34.740 -17.896 -23.039  0.00  0.00    +0.073 C 
ATOM     12  C   UNL     1      35.851 -16.608 -21.322  0.00  0.00    +0.001 C 
ATOM     13  C   UNL     1      35.430 -16.750 -22.645  0.00  0.00    +0.004 C 
BRANCH  11  17
ATOM     14  F   UNL     1      34.762 -19.178 -25.059  0.00  0.00    -0.166 F 
ATOM     15  F   UNL     1      32.936 -18.105 -24.595  0.00  0.00    -0.166 F 
ATOM     16  F   UNL     1      34.700 -17.012 -25.246  0.00  0.00    -0.166 F 
ATOM     17  C   UNL     1      34.293 -18.047 -24.453  0.00  0.00    +0.419 C 
ENDBRANCH  11  17
ENDBRANCH   2   8
BRANCH   1  18
ATOM     18  C   UNL     1      33.732 -22.676 -16.869  0.00  0.00    -0.069 C 
BRANCH  18  19
ATOM     19  C   UNL     1      34.808 -22.370 -15.826  0.00  0.00    +0.046 C 
BRANCH  19  21
ATOM     20  O   UNL     1      33.254 -22.453 -13.983  0.00  0.00    -0.291 OA
ATOM     21  C   UNL     1      34.365 -22.749 -14.420  0.00  0.00    +0.171 C 
BRANCH  21  22
ATOM     22  C   UNL     1      35.314 -23.503 -13.548  0.00  0.00    +0.039 C 
ATOM     23  C   UNL     1      36.434 -24.059 -14.120  0.00  0.00    +0.030 C 
ATOM     24  C   UNL     1      35.029 -23.614 -12.207  0.00  0.00    +0.043 C 
ATOM     25  C   UNL     1      37.319 -24.765 -13.306  0.00  0.00    +0.179 C 
ATOM     26  C   UNL     1      35.915 -24.319 -11.392  0.00  0.00    +0.169 C 
ATOM     27  C   UNL     1      37.060 -24.894 -11.941  0.00  0.00    +0.190 C 
BRANCH  25  30
ATOM     28  O   UNL     1      39.354 -24.589 -14.376  0.00  0.00    -0.126 OA
ATOM     29  O   UNL     1      38.602 -26.592 -13.884  0.00  0.00    -0.126 OA
ATOM     30  N   UNL     1      38.483 -25.344 -13.884  0.00  0.00    +0.061 N 
ENDBRANCH  25  30
BRANCH  26  31
ATOM     31  O   UNL     1      35.648 -24.438 -10.061  0.00  0.00    -0.503 OA
ATOM     32  H   UNL     1      35.253 -23.726  -9.597  0.00  0.00    +0.292 HD
ENDBRANCH  26  31
BRANCH  27  33
ATOM     33  O   UNL     1      37.919 -25.583 -11.135  0.00  0.00    -0.502 OA
ATOM     34  H   UNL     1      38.484 -25.120 -10.547  0.00  0.00    +0.292 HD
ENDBRANCH  27  33
ENDBRANCH  21  22
ENDBRANCH  19  21
ENDBRANCH  18  19
ENDBRANCH   1  18
TORSDOF 9
ENDMDL
MODEL 2
REMARK VINA RESULT:     -11.8      1.019      2.132
REMARK  Name = 4369285
REMARK  9 active torsions:
REMARK  status: ('A' for Active; 'I' for Inactive)
REMARK    1  A    between atoms: N_1  and  C_18
REMARK    2  A    between atoms: N_2  and  C_8
REMARK    3  A    between atoms: C_11  and  C_17
REMARK    4  A    between atoms: C_18  and  C_19
REMARK    5  A    between atoms: C_19  and  C_21
REMARK    6  A    between atoms: C_21  and  C_22
REMARK    7  A    between atoms: C_25  and  N_30
REMARK    8  A    between atoms: C_26  and  O_31
REMARK    9  A    between atoms: C_27  and  O_33
REMARK                            x       y       z     vdW  Elec       q    Type
REMARK                         _______ _______ _______ _____ _____    ______ ____
ROOT
ATOM      1  N   UNL     1      34.087 -21.944 -18.315  0.00  0.00    +0.390 N 
ATOM      2  N   UNL     1      34.633 -19.651 -19.929  0.00  0.00    -0.312 N 
ATOM      3  C   UNL     1      35.406 -21.300 -18.271  0.00  0.00    -0.055 C 
ATOM      4  C   UNL     1      33.046 -20.934 -18.546  0.00  0.00    -0.055 C 
ATOM      5  C   UNL     1      35.713 -20.583 -19.588  0.00  0.00    +0.068 C 
ATOM      6  C   UNL     1      33.274 -20.204 -19.873  0.00  0.00    +0.068 C 
ATOM      7  H   UNL     1      34.073 -22.613 -19.084  0.00  0.00    -0.080 HD
ENDROOT
BRANCH   2   8
ATOM      8  C   UNL     1      34.878 -18.601 -20.822  0.00  0.00    +0.048 C 
ATOM      9  C   UNL     1      34.518 -18.703 -22.180  0.00  0.00    +0.018 C 
ATOM     10  C   UNL     1      35.494 -17.410 -20.387  0.00  0.00    +0.015 C 
ATOM     11  C   UNL     1      34.762 -17.656 -23.068  0.00  0.00    +0.073 C 
ATOM     12  C   UNL     1      35.739 -16.362 -21.276  0.00  0.00    +0.001 C 
ATOM     13  C   UNL     1      35.373 -16.486 -22.617  0.00  0.00    +0.004 C 
BRANCH  11  17
ATOM     14  F   UNL     1      34.775 -18.962 -25.073  0.00  0.00    -0.166 F 
ATOM     15  F   UNL     1      33.025 -17.733 -24.710  0.00  0.00    -0.166 F 
ATOM     16  F   UNL     1      34.905 -16.801 -25.282  0.00  0.00    -0.166 F 
ATOM     17  C   UNL     1      34.373 -17.787 -24.501  0.00  0.00    +0.419 C 
ENDBRANCH  11  17
ENDBRANCH   2   8
BRANCH   1  18
ATOM     18  C   UNL     1      33.829 -22.670 -17.073  0.00  0.00    -0.069 C 
BRANCH  18  19
ATOM     19  C   UNL     1      34.921 -22.397 -16.038  0.00  0.00    +0.046 C 
BRANCH  19  21
ATOM     20  O   UNL     1      33.361 -22.332 -14.201  0.00  0.00    -0.291 OA
ATOM     21  C   UNL     1      34.455 -22.700 -14.622  0.00  0.00    +0.171 C 
BRANCH  21  22
ATOM     22  C   UNL     1      35.361 -23.471 -13.718  0.00  0.00    +0.039 C 
ATOM     23  C   UNL     1      35.442 -23.102 -12.396  0.00  0.00    +0.030 C 
ATOM     24  C   UNL     1      36.080 -24.519 -14.245  0.00  0.00    +0.043 C 
ATOM     25  C   UNL     1      36.290 -23.821 -11.553  0.00  0.00    +0.179 C 
ATOM     26  C   UNL     1      36.927 -25.239 -13.402  0.00  0.00    +0.169 C 
ATOM     27  C   UNL     1      37.031 -24.890 -12.056  0.00  0.00    +0.190 C 
BRANCH  25  30
ATOM     28  O   UNL     1      35.668 -24.049  -9.344  0.00  0.00    -0.126 OA
ATOM     29  O   UNL     1      37.176 -22.538  -9.854  0.00  0.00    -0.126 OA
ATOM     30  N   UNL     1      36.383 -23.451 -10.182  0.00  0.00    +0.061 N 
ENDBRANCH  25  30
BRANCH  26  31
ATOM     31  O   UNL     1      37.646 -26.279 -13.907  0.00  0.00    -0.503 OA
ATOM     32  H   UNL     1      38.344 -26.654 -13.406  0.00  0.00    +0.292 HD
ENDBRANCH  26  31
BRANCH  27  33
ATOM     33  O   UNL     1      37.864 -25.601 -11.240  0.00  0.00    -0.502 OA
ATOM     34  H   UNL     1      38.242 -25.192 -10.486  0.00  0.00    +0.292 HD
ENDBRANCH  27  33
ENDBRANCH  21  22
ENDBRANCH  19  21
ENDBRANCH  18  19
ENDBRANCH   1  18
TORSDOF 9
ENDMDL
MODEL 3
REMARK VINA RESULT:     -11.6      2.134      3.120
REMARK  Name = 4369285
REMARK  9 active torsions:
REMARK  status: ('A' for Active; 'I' for Inactive)
REMARK    1  A    between atoms: N_1  and  C_18
REMARK    2  A    between atoms: N_2  and  C_8
REMARK    3  A    between atoms: C_11  and  C_17
REMARK    4  A    between atoms: C_18  and  C_19
REMARK    5  A    between atoms: C_19  and  C_21
REMARK    6  A    between atoms: C_21  and  C_22
REMARK    7  A    between atoms: C_25  and  N_30
REMARK    8  A    between atoms: C_26  and  O_31
REMARK    9  A    between atoms: C_27  and  O_33
REMARK                            x       y       z     vdW  Elec       q    Type
REMARK                         _______ _______ _______ _____ _____    ______ ____
ROOT
ATOM      1  N   UNL     1      34.122 -21.811 -18.435  0.00  0.00    +0.390 N 
ATOM      2  N   UNL     1      34.708 -19.436 -19.912  0.00  0.00    -0.312 N 
ATOM      3  C   UNL     1      35.429 -21.156 -18.302  0.00  0.00    -0.055 C 
ATOM      4  C   UNL     1      33.079 -20.802 -18.664  0.00  0.00    -0.055 C 
ATOM      5  C   UNL     1      35.784 -20.372 -19.568  0.00  0.00    +0.068 C 
ATOM      6  C   UNL     1      33.355 -20.006 -19.942  0.00  0.00    +0.068 C 
ATOM      7  H   UNL     1      34.150 -22.442 -19.236  0.00  0.00    -0.080 HD
ENDROOT
BRANCH   2   8
ATOM      8  C   UNL     1      34.978 -18.341 -20.741  0.00  0.00    +0.048 C 
ATOM      9  C   UNL     1      34.774 -17.022 -20.291  0.00  0.00    +0.018 C 
ATOM     10  C   UNL     1      35.464 -18.526 -22.051  0.00  0.00    +0.015 C 
ATOM     11  C   UNL     1      35.044 -15.931 -21.117  0.00  0.00    +0.073 C 
ATOM     12  C   UNL     1      35.734 -17.435 -22.878  0.00  0.00    +0.001 C 
ATOM     13  C   UNL     1      35.524 -16.138 -22.411  0.00  0.00    +0.004 C 
BRANCH  11  17
ATOM     14  F   UNL     1      33.521 -14.292 -20.269  0.00  0.00    -0.166 F 
ATOM     15  F   UNL     1      35.553 -14.233 -19.511  0.00  0.00    -0.166 F 
ATOM     16  F   UNL     1      35.137 -13.595 -21.548  0.00  0.00    -0.166 F 
ATOM     17  C   UNL     1      34.818 -14.544 -20.619  0.00  0.00    +0.419 C 
ENDBRANCH  11  17
ENDBRANCH   2   8
BRANCH   1  18
ATOM     18  C   UNL     1      33.819 -22.599 -17.242  0.00  0.00    -0.069 C 
BRANCH  18  19
ATOM     19  C   UNL     1      34.864 -22.369 -16.150  0.00  0.00    +0.046 C 
BRANCH  19  21
ATOM     20  O   UNL     1      33.257 -22.663 -14.377  0.00  0.00    -0.291 OA
ATOM     21  C   UNL     1      34.394 -22.873 -14.794  0.00  0.00    +0.171 C 
BRANCH  21  22
ATOM     22  C   UNL     1      35.350 -23.647 -13.946  0.00  0.00    +0.039 C 
ATOM     23  C   UNL     1      35.338 -23.443 -12.586  0.00  0.00    +0.030 C 
ATOM     24  C   UNL     1      36.204 -24.534 -14.559  0.00  0.00    +0.043 C 
ATOM     25  C   UNL     1      36.231 -24.165 -11.795  0.00  0.00    +0.179 C 
ATOM     26  C   UNL     1      37.097 -25.257 -13.768  0.00  0.00    +0.169 C 
ATOM     27  C   UNL     1      37.110 -25.073 -12.386  0.00  0.00    +0.190 C 
BRANCH  25  30
ATOM     28  O   UNL     1      37.134 -23.263  -9.874  0.00  0.00    -0.126 OA
ATOM     29  O   UNL     1      35.325 -24.494  -9.700  0.00  0.00    -0.126 OA
ATOM     30  N   UNL     1      36.230 -23.964 -10.386  0.00  0.00    +0.061 N 
ENDBRANCH  25  30
BRANCH  26  31
ATOM     31  O   UNL     1      37.951 -26.139 -14.359  0.00  0.00    -0.503 OA
ATOM     32  H   UNL     1      38.852 -25.911 -14.479  0.00  0.00    +0.292 HD
ENDBRANCH  26  31
BRANCH  27  33
ATOM     33  O   UNL     1      37.989 -25.785 -11.621  0.00  0.00    -0.502 OA
ATOM     34  H   UNL     1      38.119 -26.698 -11.784  0.00  0.00    +0.292 HD
ENDBRANCH  27  33
ENDBRANCH  21  22
ENDBRANCH  19  21
ENDBRANCH  18  19
ENDBRANCH   1  18
TORSDOF 9
ENDMDL
MODEL 4
REMARK VINA RESULT:     -11.5      6.755     11.276
REMARK  Name = 4369285
REMARK  9 active torsions:
REMARK  status: ('A' for Active; 'I' for Inactive)
REMARK    1  A    between atoms: N_1  and  C_18
REMARK    2  A    between atoms: N_2  and  C_8
REMARK    3  A    between atoms: C_11  and  C_17
REMARK    4  A    between atoms: C_18  and  C_19
REMARK    5  A    between atoms: C_19  and  C_21
REMARK    6  A    between atoms: C_21  and  C_22
REMARK    7  A    between atoms: C_25  and  N_30
REMARK    8  A    between atoms: C_26  and  O_31
REMARK    9  A    between atoms: C_27  and  O_33
REMARK                            x       y       z     vdW  Elec       q    Type
REMARK                         _______ _______ _______ _____ _____    ______ ____
ROOT
ATOM      1  N   UNL     1      35.449 -20.868 -18.425  0.00  0.00    +0.390 N 
ATOM      2  N   UNL     1      35.796 -22.244 -15.946  0.00  0.00    -0.312 N 
ATOM      3  C   UNL     1      36.795 -21.106 -17.890  0.00  0.00    -0.055 C 
ATOM      4  C   UNL     1      34.563 -21.982 -18.064  0.00  0.00    -0.055 C 
ATOM      5  C   UNL     1      36.766 -21.226 -16.364  0.00  0.00    +0.068 C 
ATOM      6  C   UNL     1      34.460 -22.131 -16.544  0.00  0.00    +0.068 C 
ATOM      7  H   UNL     1      35.080 -20.009 -18.018  0.00  0.00    -0.080 HD
ENDROOT
BRANCH   2   8
ATOM      8  C   UNL     1      35.901 -22.824 -14.676  0.00  0.00    +0.048 C 
ATOM      9  C   UNL     1      37.146 -23.254 -14.175  0.00  0.00    +0.018 C 
ATOM     10  C   UNL     1      34.765 -22.995 -13.861  0.00  0.00    +0.015 C 
ATOM     11  C   UNL     1      37.250 -23.832 -12.910  0.00  0.00    +0.073 C 
ATOM     12  C   UNL     1      34.869 -23.572 -12.595  0.00  0.00    +0.001 C 
ATOM     13  C   UNL     1      36.112 -23.991 -12.120  0.00  0.00    +0.004 C 
BRANCH  11  17
ATOM     14  F   UNL     1      39.066 -23.509 -11.386  0.00  0.00    -0.166 F 
ATOM     15  F   UNL     1      38.574 -25.555 -11.911  0.00  0.00    -0.166 F 
ATOM     16  F   UNL     1      39.543 -24.264 -13.369  0.00  0.00    -0.166 F 
ATOM     17  C   UNL     1      38.578 -24.281 -12.403  0.00  0.00    +0.419 C 
ENDBRANCH  11  17
ENDBRANCH   2   8
BRANCH   1  18
ATOM     18  C   UNL     1      35.497 -20.701 -19.877  0.00  0.00    -0.069 C 
BRANCH  18  19
ATOM     19  C   UNL     1      34.809 -19.405 -20.305  0.00  0.00    +0.046 C 
BRANCH  19  21
ATOM     20  O   UNL     1      36.883 -18.261 -19.854  0.00  0.00    -0.291 OA
ATOM     21  C   UNL     1      35.790 -18.246 -20.416  0.00  0.00    +0.171 C 
BRANCH  21  22
ATOM     22  C   UNL     1      35.406 -17.057 -21.233  0.00  0.00    +0.039 C 
ATOM     23  C   UNL     1      35.211 -17.223 -22.585  0.00  0.00    +0.030 C 
ATOM     24  C   UNL     1      35.264 -15.843 -20.603  0.00  0.00    +0.043 C 
ATOM     25  C   UNL     1      34.854 -16.112 -23.349  0.00  0.00    +0.179 C 
ATOM     26  C   UNL     1      34.905 -14.732 -21.366  0.00  0.00    +0.169 C 
ATOM     27  C   UNL     1      34.700 -14.866 -22.739  0.00  0.00    +0.190 C 
BRANCH  25  30
ATOM     28  O   UNL     1      34.053 -17.290 -25.161  0.00  0.00    -0.126 OA
ATOM     29  O   UNL     1      35.070 -15.379 -25.525  0.00  0.00    -0.126 OA
ATOM     30  N   UNL     1      34.649 -16.268 -24.748  0.00  0.00    +0.061 N 
ENDBRANCH  25  30
BRANCH  26  31
ATOM     31  O   UNL     1      34.760 -13.522 -20.758  0.00  0.00    -0.503 OA
ATOM     32  H   UNL     1      35.504 -13.096 -20.377  0.00  0.00    +0.292 HD
ENDBRANCH  26  31
BRANCH  27  33
ATOM     33  O   UNL     1      34.352 -13.772 -23.477  0.00  0.00    -0.502 OA
ATOM     34  H   UNL     1      33.477 -13.439 -23.436  0.00  0.00    +0.292 HD
ENDBRANCH  27  33
ENDBRANCH  21  22
ENDBRANCH  19  21
ENDBRANCH  18  19
ENDBRANCH   1  18
TORSDOF 9
ENDMDL
MODEL 5
REMARK VINA RESULT:     -11.3      1.871      2.370
REMARK  Name = 4369285
REMARK  9 active torsions:
REMARK  status: ('A' for Active; 'I' for Inactive)
REMARK    1  A    between atoms: N_1  and  C_18
REMARK    2  A    between atoms: N_2  and  C_8
REMARK    3  A    between atoms: C_11  and  C_17
REMARK    4  A    between atoms: C_18  and  C_19
REMARK    5  A    between atoms: C_19  and  C_21
REMARK    6  A    between atoms: C_21  and  C_22
REMARK    7  A    between atoms: C_25  and  N_30
REMARK    8  A    between atoms: C_26  and  O_31
REMARK    9  A    between atoms: C_27  and  O_33
REMARK                            x       y       z     vdW  Elec       q    Type
REMARK                         _______ _______ _______ _____ _____    ______ ____
ROOT
ATOM      1  N   UNL     1      34.143 -21.864 -18.256  0.00  0.00    +0.390 N 
ATOM      2  N   UNL     1      34.728 -19.549 -19.825  0.00  0.00    -0.312 N 
ATOM      3  C   UNL     1      35.454 -21.209 -18.157  0.00  0.00    -0.055 C 
ATOM      4  C   UNL     1      33.103 -20.861 -18.516  0.00  0.00    -0.055 C 
ATOM      5  C   UNL     1      35.802 -20.475 -19.454  0.00  0.00    +0.068 C 
ATOM      6  C   UNL     1      33.373 -20.115 -19.825  0.00  0.00    +0.068 C 
ATOM      7  H   UNL     1      34.164 -22.525 -19.033  0.00  0.00    -0.080 HD
ENDROOT
BRANCH   2   8
ATOM      8  C   UNL     1      34.996 -18.487 -20.697  0.00  0.00    +0.048 C 
ATOM      9  C   UNL     1      34.799 -17.151 -20.296  0.00  0.00    +0.018 C 
ATOM     10  C   UNL     1      35.473 -18.724 -22.002  0.00  0.00    +0.015 C 
ATOM     11  C   UNL     1      35.067 -16.094 -21.165  0.00  0.00    +0.073 C 
ATOM     12  C   UNL     1      35.742 -17.666 -22.871  0.00  0.00    +0.001 C 
ATOM     13  C   UNL     1      35.538 -16.351 -22.452  0.00  0.00    +0.004 C 
BRANCH  11  17
ATOM     14  F   UNL     1      33.533 -14.374 -20.521  0.00  0.00    -0.166 F 
ATOM     15  F   UNL     1      35.467 -14.385 -19.540  0.00  0.00    -0.166 F 
ATOM     16  F   UNL     1      35.311 -13.773 -21.621  0.00  0.00    -0.166 F 
ATOM     17  C   UNL     1      34.848 -14.688 -20.719  0.00  0.00    +0.419 C 
ENDBRANCH  11  17
ENDBRANCH   2   8
BRANCH   1  18
ATOM     18  C   UNL     1      33.846 -22.606 -17.033  0.00  0.00    -0.069 C 
BRANCH  18  19
ATOM     19  C   UNL     1      34.930 -22.384 -15.978  0.00  0.00    +0.046 C 
BRANCH  19  21
ATOM     20  O   UNL     1      33.295 -22.447 -14.206  0.00  0.00    -0.291 OA
ATOM     21  C   UNL     1      34.438 -22.710 -14.575  0.00  0.00    +0.171 C 
BRANCH  21  22
ATOM     22  C   UNL     1      35.378 -23.370 -13.620  0.00  0.00    +0.039 C 
ATOM     23  C   UNL     1      36.623 -23.740 -14.071  0.00  0.00    +0.030 C 
ATOM     24  C   UNL     1      34.960 -23.582 -12.326  0.00  0.00    +0.043 C 
ATOM     25  C   UNL     1      37.500 -24.358 -13.180  0.00  0.00    +0.179 C 
ATOM     26  C   UNL     1      35.837 -24.199 -11.434  0.00  0.00    +0.169 C 
ATOM     27  C   UNL     1      37.108 -24.586 -11.861  0.00  0.00    +0.190 C 
BRANCH  25  30
ATOM     28  O   UNL     1      39.196 -25.906 -13.387  0.00  0.00    -0.126 OA
ATOM     29  O   UNL     1      39.487 -23.915 -14.263  0.00  0.00    -0.126 OA
ATOM     30  N   UNL     1      38.792 -24.745 -13.633  0.00  0.00    +0.061 N 
ENDBRANCH  25  30
BRANCH  26  31
ATOM     31  O   UNL     1      35.440 -24.417 -10.149  0.00  0.00    -0.503 OA
ATOM     32  H   UNL     1      35.124 -23.704  -9.629  0.00  0.00    +0.292 HD
ENDBRANCH  26  31
BRANCH  27  33
ATOM     33  O   UNL     1      37.957 -25.190 -10.979  0.00  0.00    -0.502 OA
ATOM     34  H   UNL     1      38.809 -25.460 -11.260  0.00  0.00    +0.292 HD
ENDBRANCH  27  33
ENDBRANCH  21  22
ENDBRANCH  19  21
ENDBRANCH  18  19
ENDBRANCH   1  18
TORSDOF 9
ENDMDL
MODEL 6
REMARK VINA RESULT:     -11.2      3.857      5.588
REMARK  Name = 4369285
REMARK  9 active torsions:
REMARK  status: ('A' for Active; 'I' for Inactive)
REMARK    1  A    between atoms: N_1  and  C_18
REMARK    2  A    between atoms: N_2  and  C_8
REMARK    3  A    between atoms: C_11  and  C_17
REMARK    4  A    between atoms: C_18  and  C_19
REMARK    5  A    between atoms: C_19  and  C_21
REMARK    6  A    between atoms: C_21  and  C_22
REMARK    7  A    between atoms: C_25  and  N_30
REMARK    8  A    between atoms: C_26  and  O_31
REMARK    9  A    between atoms: C_27  and  O_33
REMARK                            x       y       z     vdW  Elec       q    Type
REMARK                         _______ _______ _______ _____ _____    ______ ____
ROOT
ATOM      1  N   UNL     1      35.197 -21.057 -19.079  0.00  0.00    +0.390 N 
ATOM      2  N   UNL     1      35.185 -18.571 -20.486  0.00  0.00    -0.312 N 
ATOM      3  C   UNL     1      36.309 -20.110 -18.927  0.00  0.00    -0.055 C 
ATOM      4  C   UNL     1      33.941 -20.323 -19.279  0.00  0.00    -0.055 C 
ATOM      5  C   UNL     1      36.457 -19.229 -20.170  0.00  0.00    +0.068 C 
ATOM      6  C   UNL     1      34.009 -19.449 -20.534  0.00  0.00    +0.068 C 
ATOM      7  H   UNL     1      35.372 -21.640 -19.898  0.00  0.00    -0.080 HD
ENDROOT
BRANCH   2   8
ATOM      8  C   UNL     1      35.178 -17.420 -21.283  0.00  0.00    +0.048 C 
ATOM      9  C   UNL     1      34.961 -16.147 -20.719  0.00  0.00    +0.018 C 
ATOM     10  C   UNL     1      35.389 -17.500 -22.674  0.00  0.00    +0.015 C 
ATOM     11  C   UNL     1      34.955 -15.001 -21.513  0.00  0.00    +0.073 C 
ATOM     12  C   UNL     1      35.383 -16.353 -23.470  0.00  0.00    +0.001 C 
ATOM     13  C   UNL     1      35.166 -15.104 -22.889  0.00  0.00    +0.004 C 
BRANCH  11  17
ATOM     14  F   UNL     1      33.448 -13.492 -20.428  0.00  0.00    -0.166 F 
ATOM     15  F   UNL     1      35.529 -13.409 -19.824  0.00  0.00    -0.166 F 
ATOM     16  F   UNL     1      34.933 -12.637 -21.767  0.00  0.00    -0.166 F 
ATOM     17  C   UNL     1      34.721 -13.665 -20.894  0.00  0.00    +0.419 C 
ENDBRANCH  11  17
ENDBRANCH   2   8
BRANCH   1  18
ATOM     18  C   UNL     1      35.102 -21.928 -17.910  0.00  0.00    -0.069 C 
BRANCH  18  19
ATOM     19  C   UNL     1      33.648 -22.101 -17.470  0.00  0.00    +0.046 C 
BRANCH  19  21
ATOM     20  O   UNL     1      34.505 -22.451 -15.243  0.00  0.00    -0.291 OA
ATOM     21  C   UNL     1      33.537 -22.481 -16.000  0.00  0.00    +0.171 C 
BRANCH  21  22
ATOM     22  C   UNL     1      32.207 -22.903 -15.467  0.00  0.00    +0.039 C 
ATOM     23  C   UNL     1      31.077 -22.573 -16.178  0.00  0.00    +0.030 C 
ATOM     24  C   UNL     1      32.165 -23.605 -14.284  0.00  0.00    +0.043 C 
ATOM     25  C   UNL     1      29.836 -22.966 -15.679  0.00  0.00    +0.179 C 
ATOM     26  C   UNL     1      30.924 -23.999 -13.785  0.00  0.00    +0.169 C 
ATOM     27  C   UNL     1      29.759 -23.680 -14.483  0.00  0.00    +0.190 C 
BRANCH  25  30
ATOM     28  O   UNL     1      27.963 -23.557 -16.888  0.00  0.00    -0.126 OA
ATOM     29  O   UNL     1      28.353 -21.425 -16.541  0.00  0.00    -0.126 OA
ATOM     30  N   UNL     1      28.659 -22.632 -16.405  0.00  0.00    +0.061 N 
ENDBRANCH  25  30
BRANCH  26  31
ATOM     31  O   UNL     1      30.863 -24.694 -12.615  0.00  0.00    -0.503 OA
ATOM     32  H   UNL     1      30.599 -24.263 -11.827  0.00  0.00    +0.292 HD
ENDBRANCH  26  31
BRANCH  27  33
ATOM     33  O   UNL     1      28.549 -24.070 -13.985  0.00  0.00    -0.502 OA
ATOM     34  H   UNL     1      28.288 -24.968 -14.038  0.00  0.00    +0.292 HD
ENDBRANCH  27  33
ENDBRANCH  21  22
ENDBRANCH  19  21
ENDBRANCH  18  19
ENDBRANCH   1  18
TORSDOF 9
ENDMDL
MODEL 7
REMARK VINA RESULT:     -11.2      2.390      3.523
REMARK  Name = 4369285
REMARK  9 active torsions:
REMARK  status: ('A' for Active; 'I' for Inactive)
REMARK    1  A    between atoms: N_1  and  C_18
REMARK    2  A    between atoms: N_2  and  C_8
REMARK    3  A    between atoms: C_11  and  C_17
REMARK    4  A    between atoms: C_18  and  C_19
REMARK    5  A    between atoms: C_19  and  C_21
REMARK    6  A    between atoms: C_21  and  C_22
REMARK    7  A    between atoms: C_25  and  N_30
REMARK    8  A    between atoms: C_26  and  O_31
REMARK    9  A    between atoms: C_27  and  O_33
REMARK                            x       y       z     vdW  Elec       q    Type
REMARK                         _______ _______ _______ _____ _____    ______ ____
ROOT
ATOM      1  N   UNL     1      36.227 -19.992 -18.892  0.00  0.00    +0.390 N 
ATOM      2  N   UNL     1      35.415 -18.623 -21.264  0.00  0.00    -0.312 N 
ATOM      3  C   UNL     1      35.084 -20.477 -19.676  0.00  0.00    -0.055 C 
ATOM      4  C   UNL     1      37.229 -19.397 -19.786  0.00  0.00    -0.055 C 
ATOM      5  C   UNL     1      34.423 -19.334 -20.450  0.00  0.00    +0.068 C 
ATOM      6  C   UNL     1      36.640 -18.218 -20.564  0.00  0.00    +0.068 C 
ATOM      7  H   UNL     1      35.900 -19.278 -18.241  0.00  0.00    -0.080 HD
ENDROOT
BRANCH   2   8
ATOM      8  C   UNL     1      34.994 -17.852 -22.354  0.00  0.00    +0.048 C 
ATOM      9  C   UNL     1      34.918 -16.447 -22.263  0.00  0.00    +0.018 C 
ATOM     10  C   UNL     1      34.635 -18.457 -23.575  0.00  0.00    +0.015 C 
ATOM     11  C   UNL     1      34.499 -15.679 -23.349  0.00  0.00    +0.073 C 
ATOM     12  C   UNL     1      34.216 -17.688 -24.662  0.00  0.00    +0.001 C 
ATOM     13  C   UNL     1      34.148 -16.299 -24.548  0.00  0.00    +0.004 C 
BRANCH  11  17
ATOM     14  F   UNL     1      35.366 -13.665 -22.391  0.00  0.00    -0.166 F 
ATOM     15  F   UNL     1      34.593 -13.540 -24.414  0.00  0.00    -0.166 F 
ATOM     16  F   UNL     1      33.222 -13.768 -22.741  0.00  0.00    -0.166 F 
ATOM     17  C   UNL     1      34.425 -14.195 -23.228  0.00  0.00    +0.419 C 
ENDBRANCH  11  17
ENDBRANCH   2   8
BRANCH   1  18
ATOM     18  C   UNL     1      36.815 -21.082 -18.115  0.00  0.00    -0.069 C 
BRANCH  18  19
ATOM     19  C   UNL     1      36.063 -21.290 -16.801  0.00  0.00    +0.046 C 
BRANCH  19  21
ATOM     20  O   UNL     1      38.200 -21.482 -15.701  0.00  0.00    -0.291 OA
ATOM     21  C   UNL     1      36.992 -21.707 -15.670  0.00  0.00    +0.171 C 
BRANCH  21  22
ATOM     22  C   UNL     1      36.412 -22.412 -14.488  0.00  0.00    +0.039 C 
ATOM     23  C   UNL     1      37.121 -22.414 -13.309  0.00  0.00    +0.030 C 
ATOM     24  C   UNL     1      35.191 -23.031 -14.625  0.00  0.00    +0.043 C 
ATOM     25  C   UNL     1      36.579 -23.073 -12.206  0.00  0.00    +0.179 C 
ATOM     26  C   UNL     1      34.648 -23.689 -13.521  0.00  0.00    +0.169 C 
ATOM     27  C   UNL     1      35.342 -23.710 -12.311  0.00  0.00    +0.190 C 
BRANCH  25  30
ATOM     28  O   UNL     1      37.512 -24.180 -10.411  0.00  0.00    -0.126 OA
ATOM     29  O   UNL     1      37.704 -21.996 -10.505  0.00  0.00    -0.126 OA
ATOM     30  N   UNL     1      37.301 -23.083 -10.980  0.00  0.00    +0.061 N 
ENDBRANCH  25  30
BRANCH  26  31
ATOM     31  O   UNL     1      33.441 -24.308 -13.639  0.00  0.00    -0.503 OA
ATOM     32  H   UNL     1      32.810 -23.992 -14.257  0.00  0.00    +0.292 HD
ENDBRANCH  26  31
BRANCH  27  33
ATOM     33  O   UNL     1      34.803 -24.358 -11.238  0.00  0.00    -0.502 OA
ATOM     34  H   UNL     1      34.033 -24.882 -11.346  0.00  0.00    +0.292 HD
ENDBRANCH  27  33
ENDBRANCH  21  22
ENDBRANCH  19  21
ENDBRANCH  18  19
ENDBRANCH   1  18
TORSDOF 9
ENDMDL
MODEL 8
REMARK VINA RESULT:     -11.1      6.249     10.707
REMARK  Name = 4369285
REMARK  9 active torsions:
REMARK  status: ('A' for Active; 'I' for Inactive)
REMARK    1  A    between atoms: N_1  and  C_18
REMARK    2  A    between atoms: N_2  and  C_8
REMARK    3  A    between atoms: C_11  and  C_17
REMARK    4  A    between atoms: C_18  and  C_19
REMARK    5  A    between atoms: C_19  and  C_21
REMARK    6  A    between atoms: C_21  and  C_22
REMARK    7  A    between atoms: C_25  and  N_30
REMARK    8  A    between atoms: C_26  and  O_31
REMARK    9  A    between atoms: C_27  and  O_33
REMARK                            x       y       z     vdW  Elec       q    Type
REMARK                         _______ _______ _______ _____ _____    ______ ____
ROOT
ATOM      1  N   UNL     1      35.801 -21.321 -18.614  0.00  0.00    +0.390 N 
ATOM      2  N   UNL     1      33.914 -22.109 -16.620  0.00  0.00    -0.312 N 
ATOM      3  C   UNL     1      34.380 -20.982 -18.760  0.00  0.00    -0.055 C 
ATOM      4  C   UNL     1      36.173 -21.310 -17.194  0.00  0.00    -0.055 C 
ATOM      5  C   UNL     1      33.495 -21.989 -18.020  0.00  0.00    +0.068 C 
ATOM      6  C   UNL     1      35.349 -22.328 -16.402  0.00  0.00    +0.068 C 
ATOM      7  H   UNL     1      35.956 -22.257 -18.988  0.00  0.00    -0.080 HD
ENDROOT
BRANCH   2   8
ATOM      8  C   UNL     1      33.019 -22.616 -15.669  0.00  0.00    +0.048 C 
ATOM      9  C   UNL     1      31.626 -22.522 -15.860  0.00  0.00    +0.018 C 
ATOM     10  C   UNL     1      33.486 -23.235 -14.492  0.00  0.00    +0.015 C 
ATOM     11  C   UNL     1      30.736 -23.027 -14.913  0.00  0.00    +0.073 C 
ATOM     12  C   UNL     1      32.596 -23.741 -13.544  0.00  0.00    +0.001 C 
ATOM     13  C   UNL     1      31.221 -23.636 -13.755  0.00  0.00    +0.004 C 
BRANCH  11  17
ATOM     14  F   UNL     1      28.723 -21.765 -14.637  0.00  0.00    -0.166 F 
ATOM     15  F   UNL     1      28.909 -22.936 -16.454  0.00  0.00    -0.166 F 
ATOM     16  F   UNL     1      28.568 -23.932 -14.552  0.00  0.00    -0.166 F 
ATOM     17  C   UNL     1      29.267 -22.915 -15.136  0.00  0.00    +0.419 C 
ENDBRANCH  11  17
ENDBRANCH   2   8
BRANCH   1  18
ATOM     18  C   UNL     1      36.632 -20.384 -19.369  0.00  0.00    -0.069 C 
BRANCH  18  19
ATOM     19  C   UNL     1      35.771 -19.409 -20.172  0.00  0.00    +0.046 C 
BRANCH  19  21
ATOM     20  O   UNL     1      37.828 -18.307 -20.778  0.00  0.00    -0.291 OA
ATOM     21  C   UNL     1      36.599 -18.296 -20.798  0.00  0.00    +0.171 C 
BRANCH  21  22
ATOM     22  C   UNL     1      35.891 -17.158 -21.455  0.00  0.00    +0.039 C 
ATOM     23  C   UNL     1      35.566 -17.265 -22.788  0.00  0.00    +0.030 C 
ATOM     24  C   UNL     1      35.593 -16.046 -20.703  0.00  0.00    +0.043 C 
ATOM     25  C   UNL     1      34.907 -16.201 -23.402  0.00  0.00    +0.179 C 
ATOM     26  C   UNL     1      34.932 -14.982 -21.316  0.00  0.00    +0.169 C 
ATOM     27  C   UNL     1      34.588 -15.060 -22.666  0.00  0.00    +0.190 C 
BRANCH  25  30
ATOM     28  O   UNL     1      33.943 -17.312 -25.178  0.00  0.00    -0.126 OA
ATOM     29  O   UNL     1      34.894 -15.369 -25.553  0.00  0.00    -0.126 OA
ATOM     30  N   UNL     1      34.564 -16.299 -24.779  0.00  0.00    +0.061 N 
ENDBRANCH  25  30
BRANCH  26  31
ATOM     31  O   UNL     1      34.628 -13.873 -20.586  0.00  0.00    -0.503 OA
ATOM     32  H   UNL     1      35.100 -13.687 -19.798  0.00  0.00    +0.292 HD
ENDBRANCH  26  31
BRANCH  27  33
ATOM     33  O   UNL     1      33.943 -14.012 -23.257  0.00  0.00    -0.502 OA
ATOM     34  H   UNL     1      33.219 -13.603 -22.824  0.00  0.00    +0.292 HD
ENDBRANCH  27  33
ENDBRANCH  21  22
ENDBRANCH  19  21
ENDBRANCH  18  19
ENDBRANCH   1  18
TORSDOF 9
ENDMDL
MODEL 9
REMARK VINA RESULT:     -11.0      6.774     11.525
REMARK  Name = 4369285
REMARK  9 active torsions:
REMARK  status: ('A' for Active; 'I' for Inactive)
REMARK    1  A    between atoms: N_1  and  C_18
REMARK    2  A    between atoms: N_2  and  C_8
REMARK    3  A    between atoms: C_11  and  C_17
REMARK    4  A    between atoms: C_18  and  C_19
REMARK    5  A    between atoms: C_19  and  C_21
REMARK    6  A    between atoms: C_21  and  C_22
REMARK    7  A    between atoms: C_25  and  N_30
REMARK    8  A    between atoms: C_26  and  O_31
REMARK    9  A    between atoms: C_27  and  O_33
REMARK                            x       y       z     vdW  Elec       q    Type
REMARK                         _______ _______ _______ _____ _____    ______ ____
ROOT
ATOM      1  N   UNL     1      35.649 -20.597 -18.481  0.00  0.00    +0.390 N 
ATOM      2  N   UNL     1      35.947 -22.167 -16.113  0.00  0.00    -0.312 N 
ATOM      3  C   UNL     1      36.982 -20.852 -17.921  0.00  0.00    -0.055 C 
ATOM      4  C   UNL     1      34.778 -21.755 -18.244  0.00  0.00    -0.055 C 
ATOM      5  C   UNL     1      36.907 -21.100 -16.412  0.00  0.00    +0.068 C 
ATOM      6  C   UNL     1      34.628 -22.032 -16.746  0.00  0.00    +0.068 C 
ATOM      7  H   UNL     1      35.248 -19.782 -18.017  0.00  0.00    -0.080 HD
ENDROOT
BRANCH   2   8
ATOM      8  C   UNL     1      36.024 -22.849 -14.893  0.00  0.00    +0.048 C 
ATOM      9  C   UNL     1      37.190 -23.548 -14.524  0.00  0.00    +0.018 C 
ATOM     10  C   UNL     1      34.936 -22.857 -13.997  0.00  0.00    +0.015 C 
ATOM     11  C   UNL     1      37.266 -24.227 -13.308  0.00  0.00    +0.073 C 
ATOM     12  C   UNL     1      35.012 -23.535 -12.780  0.00  0.00    +0.001 C 
ATOM     13  C   UNL     1      36.177 -24.221 -12.437  0.00  0.00    +0.004 C 
BRANCH  11  17
ATOM     14  F   UNL     1      38.892 -25.891 -13.866  0.00  0.00    -0.166 F 
ATOM     15  F   UNL     1      39.598 -24.151 -12.781  0.00  0.00    -0.166 F 
ATOM     16  F   UNL     1      38.388 -25.645 -11.765  0.00  0.00    -0.166 F 
ATOM     17  C   UNL     1      38.510 -24.961 -12.941  0.00  0.00    +0.419 C 
ENDBRANCH  11  17
ENDBRANCH   2   8
BRANCH   1  18
ATOM     18  C   UNL     1      35.740 -20.309 -19.911  0.00  0.00    -0.069 C 
BRANCH  18  19
ATOM     19  C   UNL     1      35.122 -18.949 -20.239  0.00  0.00    +0.046 C 
BRANCH  19  21
ATOM     20  O   UNL     1      37.308 -18.190 -20.919  0.00  0.00    -0.291 OA
ATOM     21  C   UNL     1      36.089 -18.049 -20.995  0.00  0.00    +0.171 C 
BRANCH  21  22
ATOM     22  C   UNL     1      35.534 -16.962 -21.855  0.00  0.00    +0.039 C 
ATOM     23  C   UNL     1      35.233 -15.752 -21.274  0.00  0.00    +0.030 C 
ATOM     24  C   UNL     1      35.344 -17.214 -23.194  0.00  0.00    +0.043 C 
ATOM     25  C   UNL     1      34.713 -14.737 -22.077  0.00  0.00    +0.179 C 
ATOM     26  C   UNL     1      34.825 -16.198 -23.997  0.00  0.00    +0.169 C 
ATOM     27  C   UNL     1      34.510 -14.960 -23.439  0.00  0.00    +0.190 C 
BRANCH  25  30
ATOM     28  O   UNL     1      33.818 -13.459 -20.379  0.00  0.00    -0.126 OA
ATOM     29  O   UNL     1      34.709 -12.431 -22.101  0.00  0.00    -0.126 OA
ATOM     30  N   UNL     1      34.398 -13.480 -21.490  0.00  0.00    +0.061 N 
ENDBRANCH  25  30
BRANCH  26  31
ATOM     31  O   UNL     1      34.630 -16.431 -25.326  0.00  0.00    -0.503 OA
ATOM     32  H   UNL     1      35.123 -17.098 -25.762  0.00  0.00    +0.292 HD
ENDBRANCH  26  31
BRANCH  27  33
ATOM     33  O   UNL     1      34.001 -13.974 -24.235  0.00  0.00    -0.502 OA
ATOM     34  H   UNL     1      33.471 -13.297 -23.861  0.00  0.00    +0.292 HD
ENDBRANCH  27  33
ENDBRANCH  21  22
ENDBRANCH  19  21
ENDBRANCH  18  19
ENDBRANCH   1  18
TORSDOF 9
ENDMDL
