MODEL 1
REMARK VINA RESULT:     -12.4      0.000      0.000
REMARK  Name = 25243853
REMARK  6 active torsions:
REMARK  status: ('A' for Active; 'I' for Inactive)
REMARK    1  A    between atoms: N_1  and  C_6
REMARK    2  A    between atoms: N_1  and  C_21
REMARK    3  A    between atoms: C_3  and  C_16
REMARK    4  A    between atoms: C_11  and  C_18
REMARK    5  A    between atoms: C_18  and  O_19
REMARK    6  A    between atoms: C_21  and  C_28
REMARK                            x       y       z     vdW  Elec       q    Type
REMARK                         _______ _______ _______ _____ _____    ______ ____
ROOT
ATOM      1  N   UNL     1      35.722 -20.030 -20.179  0.00  0.00    -0.327 N 
ATOM      2  H   UNL     1      35.598 -20.481 -21.045  0.00  0.00    +0.147 HD
ENDROOT
BRANCH   1   6
ATOM      3  C   UNL     1      34.755 -22.126 -16.670  0.00  0.00    +0.054 C 
ATOM      4  C   UNL     1      33.800 -21.971 -17.675  0.00  0.00    +0.006 C 
ATOM      5  C   UNL     1      36.031 -21.585 -16.831  0.00  0.00    +0.006 C 
ATOM      6  C   UNL     1      35.397 -20.735 -19.001  0.00  0.00    +0.045 C 
ATOM      7  C   UNL     1      34.122 -21.276 -18.841  0.00  0.00    +0.014 C 
ATOM      8  C   UNL     1      36.352 -20.889 -17.996  0.00  0.00    +0.014 C 
BRANCH   3  16
ATOM      9  O   UNL     1      33.220 -23.043 -15.234  0.00  0.00    -0.270 OA
ATOM     10  N   UNL     1      35.465 -23.287 -14.623  0.00  0.00    -0.276 N 
ATOM     11  C   UNL     1      37.233 -22.940 -12.346  0.00  0.00    +0.102 C 
ATOM     12  C   UNL     1      35.744 -23.257 -12.178  0.00  0.00    +0.033 C 
ATOM     13  C   UNL     1      37.539 -22.314 -13.709  0.00  0.00    +0.033 C 
ATOM     14  C   UNL     1      35.166 -23.998 -13.382  0.00  0.00    +0.094 C 
ATOM     15  C   UNL     1      36.893 -23.065 -14.874  0.00  0.00    +0.094 C 
ATOM     16  C   UNL     1      34.418 -22.858 -15.443  0.00  0.00    +0.249 C 
BRANCH  11  18
ATOM     17  O   UNL     1      37.636 -25.190 -11.580  0.00  0.00    -0.250 OA
ATOM     18  C   UNL     1      38.057 -24.176 -12.120  0.00  0.00    +0.317 C 
BRANCH  18  19
ATOM     19  O   UNL     1      39.316 -23.979 -12.605  0.00  0.00    -0.444 OA
ATOM     20  C   UNL     1      39.879 -25.086 -13.317  0.00  0.00    +0.256 C 
ENDBRANCH  18  19
ENDBRANCH  11  18
ENDBRANCH   3  16
ENDBRANCH   1   6
BRANCH   1  21
ATOM     21  C   UNL     1      36.223 -18.691 -20.170  0.00  0.00    +0.145 C 
BRANCH  21  28
ATOM     22  N   UNL     1      35.495 -16.604 -21.199  0.00  0.00    -0.392 NA
ATOM     23  N   UNL     1      34.956 -17.872 -23.600  0.00  0.00    -0.200 NA
ATOM     24  N   UNL     1      34.276 -15.862 -24.526  0.00  0.00    -0.271 NA
ATOM     25  N   UNL     1      34.309 -13.837 -23.240  0.00  0.00    -0.310 NA
ATOM     26  N   UNL     1      35.045 -13.892 -20.996  0.00  0.00    -0.329 N 
ATOM     27  N   UNL     1      33.585 -13.825 -25.467  0.00  0.00    -0.283 N 
ATOM     28  C   UNL     1      35.696 -17.922 -21.349  0.00  0.00    +0.133 C 
ATOM     29  C   UNL     1      35.430 -18.548 -22.537  0.00  0.00    +0.193 C 
ATOM     30  C   UNL     1      35.021 -15.929 -22.265  0.00  0.00    +0.248 C 
ATOM     31  C   UNL     1      34.745 -16.555 -23.482  0.00  0.00    +0.131 C 
ATOM     32  C   UNL     1      34.781 -14.569 -22.215  0.00  0.00    +0.231 C 
ATOM     33  C   UNL     1      34.081 -14.540 -24.356  0.00  0.00    +0.207 C 
ATOM     34  H   UNL     1      34.883 -12.923 -20.926  0.00  0.00    +0.145 HD
ATOM     35  H   UNL     1      35.388 -14.390 -20.220  0.00  0.00    +0.145 HD
ATOM     36  H   UNL     1      33.400 -14.296 -26.312  0.00  0.00    +0.156 HD
ATOM     37  H   UNL     1      33.424 -12.856 -25.398  0.00  0.00    +0.156 HD
ENDBRANCH  21  28
ENDBRANCH   1  21
TORSDOF 6
ENDMDL
MODEL 2
REMARK VINA RESULT:     -12.0      1.565      2.409
REMARK  Name = 25243853
REMARK  6 active torsions:
REMARK  status: ('A' for Active; 'I' for Inactive)
REMARK    1  A    between atoms: N_1  and  C_6
REMARK    2  A    between atoms: N_1  and  C_21
REMARK    3  A    between atoms: C_3  and  C_16
REMARK    4  A    between atoms: C_11  and  C_18
REMARK    5  A    between atoms: C_18  and  O_19
REMARK    6  A    between atoms: C_21  and  C_28
REMARK                            x       y       z     vdW  Elec       q    Type
REMARK                         _______ _______ _______ _____ _____    ______ ____
ROOT
ATOM      1  N   UNL     1      35.823 -18.276 -21.651  0.00  0.00    -0.327 N 
ATOM      2  H   UNL     1      36.583 -17.697 -21.418  0.00  0.00    +0.147 HD
ENDROOT
BRANCH   1   6
ATOM      3  C   UNL     1      34.310 -20.871 -18.714  0.00  0.00    +0.054 C 
ATOM      4  C   UNL     1      33.434 -20.136 -19.513  0.00  0.00    +0.006 C 
ATOM      5  C   UNL     1      35.687 -20.745 -18.891  0.00  0.00    +0.006 C 
ATOM      6  C   UNL     1      35.314 -19.148 -20.665  0.00  0.00    +0.045 C 
ATOM      7  C   UNL     1      33.936 -19.275 -20.489  0.00  0.00    +0.014 C 
ATOM      8  C   UNL     1      36.190 -19.883 -19.865  0.00  0.00    +0.014 C 
BRANCH   3  16
ATOM      9  O   UNL     1      32.575 -22.010 -17.738  0.00  0.00    -0.270 OA
ATOM     10  N   UNL     1      34.674 -22.302 -16.749  0.00  0.00    -0.276 N 
ATOM     11  C   UNL     1      35.970 -22.257 -14.150  0.00  0.00    +0.102 C 
ATOM     12  C   UNL     1      34.491 -22.620 -14.316  0.00  0.00    +0.033 C 
ATOM     13  C   UNL     1      36.497 -21.436 -15.331  0.00  0.00    +0.033 C 
ATOM     14  C   UNL     1      34.181 -23.189 -15.699  0.00  0.00    +0.094 C 
ATOM     15  C   UNL     1      36.114 -22.023 -16.690  0.00  0.00    +0.094 C 
ATOM     16  C   UNL     1      33.781 -21.778 -17.687  0.00  0.00    +0.249 C 
BRANCH  11  18
ATOM     17  O   UNL     1      36.314 -24.612 -13.772  0.00  0.00    -0.250 OA
ATOM     18  C   UNL     1      36.790 -23.498 -13.944  0.00  0.00    +0.317 C 
BRANCH  18  19
ATOM     19  O   UNL     1      38.115 -23.180 -13.980  0.00  0.00    -0.444 OA
ATOM     20  C   UNL     1      39.005 -24.280 -14.192  0.00  0.00    +0.256 C 
ENDBRANCH  18  19
ENDBRANCH  11  18
ENDBRANCH   3  16
ENDBRANCH   1   6
BRANCH   1  21
ATOM     21  C   UNL     1      35.280 -18.197 -22.971  0.00  0.00    +0.145 C 
BRANCH  21  28
ATOM     22  N   UNL     1      34.956 -15.870 -22.319  0.00  0.00    -0.392 NA
ATOM     23  N   UNL     1      34.202 -15.162 -24.887  0.00  0.00    -0.200 NA
ATOM     24  N   UNL     1      33.911 -12.967 -24.212  0.00  0.00    -0.271 NA
ATOM     25  N   UNL     1      34.314 -12.311 -21.940  0.00  0.00    -0.310 NA
ATOM     26  N   UNL     1      35.016 -13.926 -20.366  0.00  0.00    -0.329 N 
ATOM     27  N   UNL     1      33.615 -10.740 -23.530  0.00  0.00    -0.283 N 
ATOM     28  C   UNL     1      34.910 -16.779 -23.305  0.00  0.00    +0.133 C 
ATOM     29  C   UNL     1      34.538 -16.428 -24.575  0.00  0.00    +0.193 C 
ATOM     30  C   UNL     1      34.621 -14.603 -22.634  0.00  0.00    +0.248 C 
ATOM     31  C   UNL     1      34.239 -14.232 -23.925  0.00  0.00    +0.131 C 
ATOM     32  C   UNL     1      34.637 -13.593 -21.692  0.00  0.00    +0.231 C 
ATOM     33  C   UNL     1      33.964 -12.069 -23.209  0.00  0.00    +0.207 C 
ATOM     34  H   UNL     1      35.037 -13.230 -19.670  0.00  0.00    +0.145 HD
ATOM     35  H   UNL     1      35.258 -14.853 -20.141  0.00  0.00    +0.145 HD
ATOM     36  H   UNL     1      33.349 -10.510 -24.450  0.00  0.00    +0.156 HD
ATOM     37  H   UNL     1      33.636 -10.043 -22.835  0.00  0.00    +0.156 HD
ENDBRANCH  21  28
ENDBRANCH   1  21
TORSDOF 6
ENDMDL
MODEL 3
REMARK VINA RESULT:     -12.0      1.319      2.215
REMARK  Name = 25243853
REMARK  6 active torsions:
REMARK  status: ('A' for Active; 'I' for Inactive)
REMARK    1  A    between atoms: N_1  and  C_6
REMARK    2  A    between atoms: N_1  and  C_21
REMARK    3  A    between atoms: C_3  and  C_16
REMARK    4  A    between atoms: C_11  and  C_18
REMARK    5  A    between atoms: C_18  and  O_19
REMARK    6  A    between atoms: C_21  and  C_28
REMARK                            x       y       z     vdW  Elec       q    Type
REMARK                         _______ _______ _______ _____ _____    ______ ____
ROOT
ATOM      1  N   UNL     1      34.860 -19.062 -20.970  0.00  0.00    -0.327 N 
ATOM      2  H   UNL     1      34.226 -19.071 -21.723  0.00  0.00    +0.147 HD
ENDROOT
BRANCH   1   6
ATOM      3  C   UNL     1      34.181 -21.664 -17.743  0.00  0.00    +0.054 C 
ATOM      4  C   UNL     1      33.102 -21.084 -18.410  0.00  0.00    +0.006 C 
ATOM      5  C   UNL     1      35.485 -21.380 -18.148  0.00  0.00    +0.006 C 
ATOM      6  C   UNL     1      34.632 -19.937 -19.886  0.00  0.00    +0.045 C 
ATOM      7  C   UNL     1      33.328 -20.220 -19.482  0.00  0.00    +0.014 C 
ATOM      8  C   UNL     1      35.711 -20.517 -19.219  0.00  0.00    +0.014 C 
BRANCH   3  16
ATOM      9  O   UNL     1      32.797 -22.999 -16.493  0.00  0.00    -0.270 OA
ATOM     10  N   UNL     1      35.022 -22.883 -15.781  0.00  0.00    -0.276 N 
ATOM     11  C   UNL     1      36.604 -22.457 -13.384  0.00  0.00    +0.102 C 
ATOM     12  C   UNL     1      35.198 -23.063 -13.333  0.00  0.00    +0.033 C 
ATOM     13  C   UNL     1      36.836 -21.643 -14.660  0.00  0.00    +0.033 C 
ATOM     14  C   UNL     1      34.818 -23.765 -14.635  0.00  0.00    +0.094 C 
ATOM     15  C   UNL     1      36.390 -22.373 -15.928  0.00  0.00    +0.094 C 
ATOM     16  C   UNL     1      33.944 -22.573 -16.615  0.00  0.00    +0.249 C 
BRANCH  11  18
ATOM     17  O   UNL     1      38.686 -23.571 -13.867  0.00  0.00    -0.250 OA
ATOM     18  C   UNL     1      37.640 -23.534 -13.233  0.00  0.00    +0.317 C 
BRANCH  18  19
ATOM     19  O   UNL     1      37.227 -24.435 -12.297  0.00  0.00    -0.444 OA
ATOM     20  C   UNL     1      37.669 -25.781 -12.504  0.00  0.00    +0.256 C 
ENDBRANCH  18  19
ENDBRANCH  11  18
ENDBRANCH   3  16
ENDBRANCH   1   6
BRANCH   1  21
ATOM     21  C   UNL     1      35.973 -18.166 -21.023  0.00  0.00    +0.145 C 
BRANCH  21  28
ATOM     22  N   UNL     1      35.237 -16.305 -22.417  0.00  0.00    -0.392 NA
ATOM     23  N   UNL     1      34.923 -14.661 -20.212  0.00  0.00    -0.200 NA
ATOM     24  N   UNL     1      34.231 -12.929 -21.584  0.00  0.00    -0.271 NA
ATOM     25  N   UNL     1      34.093 -13.218 -23.961  0.00  0.00    -0.310 NA
ATOM     26  N   UNL     1      34.672 -15.298 -24.919  0.00  0.00    -0.329 N 
ATOM     27  N   UNL     1      33.530 -11.171 -22.972  0.00  0.00    -0.283 N 
ATOM     28  C   UNL     1      35.500 -16.747 -21.177  0.00  0.00    +0.133 C 
ATOM     29  C   UNL     1      35.344 -15.934 -20.088  0.00  0.00    +0.193 C 
ATOM     30  C   UNL     1      34.816 -15.031 -22.539  0.00  0.00    +0.248 C 
ATOM     31  C   UNL     1      34.652 -14.191 -21.435  0.00  0.00    +0.131 C 
ATOM     32  C   UNL     1      34.517 -14.480 -23.770  0.00  0.00    +0.231 C 
ATOM     33  C   UNL     1      33.972 -12.504 -22.835  0.00  0.00    +0.207 C 
ATOM     34  H   UNL     1      34.469 -14.936 -25.812  0.00  0.00    +0.145 HD
ATOM     35  H   UNL     1      34.983 -16.227 -24.825  0.00  0.00    +0.145 HD
ATOM     36  H   UNL     1      33.425 -10.603 -22.175  0.00  0.00    +0.156 HD
ATOM     37  H   UNL     1      33.327 -10.808 -23.865  0.00  0.00    +0.156 HD
ENDBRANCH  21  28
ENDBRANCH   1  21
TORSDOF 6
ENDMDL
MODEL 4
REMARK VINA RESULT:     -12.0      6.290     12.684
REMARK  Name = 25243853
REMARK  6 active torsions:
REMARK  status: ('A' for Active; 'I' for Inactive)
REMARK    1  A    between atoms: N_1  and  C_6
REMARK    2  A    between atoms: N_1  and  C_21
REMARK    3  A    between atoms: C_3  and  C_16
REMARK    4  A    between atoms: C_11  and  C_18
REMARK    5  A    between atoms: C_18  and  O_19
REMARK    6  A    between atoms: C_21  and  C_28
REMARK                            x       y       z     vdW  Elec       q    Type
REMARK                         _______ _______ _______ _____ _____    ______ ____
ROOT
ATOM      1  N   UNL     1      35.477 -16.055 -23.261  0.00  0.00    -0.327 N 
ATOM      2  H   UNL     1      36.380 -15.920 -23.628  0.00  0.00    +0.147 HD
ENDROOT
BRANCH   1   6
ATOM      3  C   UNL     1      33.349 -12.702 -21.890  0.00  0.00    +0.054 C 
ATOM      4  C   UNL     1      34.219 -13.375 -21.031  0.00  0.00    +0.006 C 
ATOM      5  C   UNL     1      33.187 -13.143 -23.203  0.00  0.00    +0.006 C 
ATOM      6  C   UNL     1      34.763 -14.928 -22.800  0.00  0.00    +0.045 C 
ATOM      7  C   UNL     1      34.926 -14.488 -21.487  0.00  0.00    +0.014 C 
ATOM      8  C   UNL     1      33.893 -14.255 -23.659  0.00  0.00    +0.014 C 
BRANCH   3  16
ATOM      9  O   UNL     1      31.721 -11.751 -20.584  0.00  0.00    -0.270 OA
ATOM     10  N   UNL     1      32.954 -10.277 -21.917  0.00  0.00    -0.276 N 
ATOM     11  C   UNL     1      32.592  -8.084 -23.787  0.00  0.00    +0.102 C 
ATOM     12  C   UNL     1      31.583  -8.378 -22.672  0.00  0.00    +0.033 C 
ATOM     13  C   UNL     1      33.439  -9.311 -24.135  0.00  0.00    +0.033 C 
ATOM     14  C   UNL     1      32.220  -9.092 -21.481  0.00  0.00    +0.094 C 
ATOM     15  C   UNL     1      34.010 -10.017 -22.904  0.00  0.00    +0.094 C 
ATOM     16  C   UNL     1      32.605 -11.531 -21.411  0.00  0.00    +0.249 C 
BRANCH  11  18
ATOM     17  O   UNL     1      34.650  -6.836 -23.672  0.00  0.00    -0.250 OA
ATOM     18  C   UNL     1      33.458  -6.916 -23.410  0.00  0.00    +0.317 C 
BRANCH  18  19
ATOM     19  O   UNL     1      32.710  -5.990 -22.746  0.00  0.00    -0.444 OA
ATOM     20  C   UNL     1      32.244  -4.894 -23.540  0.00  0.00    +0.256 C 
ENDBRANCH  18  19
ENDBRANCH  11  18
ENDBRANCH   3  16
ENDBRANCH   1   6
BRANCH   1  21
ATOM     21  C   UNL     1      34.945 -17.381 -23.220  0.00  0.00    +0.145 C 
BRANCH  21  28
ATOM     22  N   UNL     1      34.584 -18.895 -21.343  0.00  0.00    -0.392 NA
ATOM     23  N   UNL     1      37.213 -18.638 -20.514  0.00  0.00    -0.200 NA
ATOM     24  N   UNL     1      36.812 -20.081 -18.749  0.00  0.00    -0.271 NA
ATOM     25  N   UNL     1      34.643 -21.048 -18.413  0.00  0.00    -0.310 NA
ATOM     26  N   UNL     1      32.887 -20.522 -19.903  0.00  0.00    -0.329 N 
ATOM     27  N   UNL     1      36.409 -21.544 -16.958  0.00  0.00    -0.283 N 
ATOM     28  C   UNL     1      35.449 -18.114 -22.009  0.00  0.00    +0.133 C 
ATOM     29  C   UNL     1      36.749 -17.988 -21.599  0.00  0.00    +0.193 C 
ATOM     30  C   UNL     1      35.050 -19.544 -20.258  0.00  0.00    +0.248 C 
ATOM     31  C   UNL     1      36.374 -19.425 -19.829  0.00  0.00    +0.131 C 
ATOM     32  C   UNL     1      34.241 -20.372 -19.505  0.00  0.00    +0.231 C 
ATOM     33  C   UNL     1      35.929 -20.859 -18.095  0.00  0.00    +0.207 C 
ATOM     34  H   UNL     1      32.284 -21.103 -19.387  0.00  0.00    +0.145 HD
ATOM     35  H   UNL     1      32.551 -20.043 -20.694  0.00  0.00    +0.145 HD
ATOM     36  H   UNL     1      37.348 -21.438 -16.680  0.00  0.00    +0.156 HD
ATOM     37  H   UNL     1      35.806 -22.126 -16.442  0.00  0.00    +0.156 HD
ENDBRANCH  21  28
ENDBRANCH   1  21
TORSDOF 6
ENDMDL
MODEL 5
REMARK VINA RESULT:     -11.7      4.303     11.336
REMARK  Name = 25243853
REMARK  6 active torsions:
REMARK  status: ('A' for Active; 'I' for Inactive)
REMARK    1  A    between atoms: N_1  and  C_6
REMARK    2  A    between atoms: N_1  and  C_21
REMARK    3  A    between atoms: C_3  and  C_16
REMARK    4  A    between atoms: C_11  and  C_18
REMARK    5  A    between atoms: C_18  and  O_19
REMARK    6  A    between atoms: C_21  and  C_28
REMARK                            x       y       z     vdW  Elec       q    Type
REMARK                         _______ _______ _______ _____ _____    ______ ____
ROOT
ATOM      1  N   UNL     1      36.623 -20.790 -18.538  0.00  0.00    -0.327 N 
ATOM      2  H   UNL     1      37.576 -20.988 -18.395  0.00  0.00    +0.147 HD
ENDROOT
BRANCH   1   6
ATOM      3  C   UNL     1      35.580 -17.996 -21.496  0.00  0.00    +0.054 C 
ATOM      4  C   UNL     1      34.617 -18.870 -20.992  0.00  0.00    +0.006 C 
ATOM      5  C   UNL     1      36.889 -18.050 -21.017  0.00  0.00    +0.006 C 
ATOM      6  C   UNL     1      36.272 -19.851 -19.532  0.00  0.00    +0.045 C 
ATOM      7  C   UNL     1      34.963 -19.797 -20.009  0.00  0.00    +0.014 C 
ATOM      8  C   UNL     1      37.236 -18.977 -20.036  0.00  0.00    +0.014 C 
BRANCH   3  16
ATOM      9  O   UNL     1      35.482 -17.332 -23.689  0.00  0.00    -0.270 OA
ATOM     10  N   UNL     1      34.602 -15.831 -22.126  0.00  0.00    -0.276 N 
ATOM     11  C   UNL     1      34.703 -13.024 -21.389  0.00  0.00    +0.102 C 
ATOM     12  C   UNL     1      34.937 -13.496 -22.828  0.00  0.00    +0.033 C 
ATOM     13  C   UNL     1      34.957 -14.137 -20.369  0.00  0.00    +0.033 C 
ATOM     14  C   UNL     1      34.247 -14.826 -23.125  0.00  0.00    +0.094 C 
ATOM     15  C   UNL     1      34.285 -15.459 -20.742  0.00  0.00    +0.094 C 
ATOM     16  C   UNL     1      35.216 -17.019 -22.530  0.00  0.00    +0.249 C 
BRANCH  11  18
ATOM     17  O   UNL     1      32.620 -12.110 -22.188  0.00  0.00    -0.250 OA
ATOM     18  C   UNL     1      33.317 -12.462 -21.245  0.00  0.00    +0.317 C 
BRANCH  18  19
ATOM     19  O   UNL     1      32.980 -12.413 -19.925  0.00  0.00    -0.444 OA
ATOM     20  C   UNL     1      31.726 -11.789 -19.635  0.00  0.00    +0.256 C 
ENDBRANCH  18  19
ENDBRANCH  11  18
ENDBRANCH   3  16
ENDBRANCH   1   6
BRANCH   1  21
ATOM     21  C   UNL     1      35.655 -21.467 -17.734  0.00  0.00    +0.145 C 
BRANCH  21  28
ATOM     22  N   UNL     1      35.486 -22.560 -15.560  0.00  0.00    -0.392 NA
ATOM     23  N   UNL     1      38.046 -21.768 -14.864  0.00  0.00    -0.200 NA
ATOM     24  N   UNL     1      37.830 -22.823 -12.814  0.00  0.00    -0.271 NA
ATOM     25  N   UNL     1      35.812 -23.978 -12.227  0.00  0.00    -0.310 NA
ATOM     26  N   UNL     1      34.015 -24.041 -13.760  0.00  0.00    -0.329 N 
ATOM     27  N   UNL     1      37.614 -23.891 -10.735  0.00  0.00    -0.283 N 
ATOM     28  C   UNL     1      36.242 -21.836 -16.400  0.00  0.00    +0.133 C 
ATOM     29  C   UNL     1      37.508 -21.446 -16.055  0.00  0.00    +0.193 C 
ATOM     30  C   UNL     1      36.026 -22.882 -14.368  0.00  0.00    +0.248 C 
ATOM     31  C   UNL     1      37.316 -22.490 -14.004  0.00  0.00    +0.131 C 
ATOM     32  C   UNL     1      35.331 -23.624 -13.433  0.00  0.00    +0.231 C 
ATOM     33  C   UNL     1      37.056 -23.549 -11.985  0.00  0.00    +0.207 C 
ATOM     34  H   UNL     1      33.492 -24.571 -13.116  0.00  0.00    +0.145 HD
ATOM     35  H   UNL     1      33.624 -23.801 -14.631  0.00  0.00    +0.145 HD
ATOM     36  H   UNL     1      38.526 -23.599 -10.507  0.00  0.00    +0.156 HD
ATOM     37  H   UNL     1      37.092 -24.421 -10.090  0.00  0.00    +0.156 HD
ENDBRANCH  21  28
ENDBRANCH   1  21
TORSDOF 6
ENDMDL
MODEL 6
REMARK VINA RESULT:     -11.6      6.102     10.335
REMARK  Name = 25243853
REMARK  6 active torsions:
REMARK  status: ('A' for Active; 'I' for Inactive)
REMARK    1  A    between atoms: N_1  and  C_6
REMARK    2  A    between atoms: N_1  and  C_21
REMARK    3  A    between atoms: C_3  and  C_16
REMARK    4  A    between atoms: C_11  and  C_18
REMARK    5  A    between atoms: C_18  and  O_19
REMARK    6  A    between atoms: C_21  and  C_28
REMARK                            x       y       z     vdW  Elec       q    Type
REMARK                         _______ _______ _______ _____ _____    ______ ____
ROOT
ATOM      1  N   UNL     1      33.705 -10.434 -24.185  0.00  0.00    -0.327 N 
ATOM      2  H   UNL     1      33.134 -10.019 -24.871  0.00  0.00    +0.147 HD
ENDROOT
BRANCH   1   6
ATOM      3  C   UNL     1      34.145 -14.611 -24.200  0.00  0.00    +0.054 C 
ATOM      4  C   UNL     1      34.013 -13.920 -25.404  0.00  0.00    +0.006 C 
ATOM      5  C   UNL     1      34.131 -13.915 -22.991  0.00  0.00    +0.006 C 
ATOM      6  C   UNL     1      33.853 -11.837 -24.190  0.00  0.00    +0.045 C 
ATOM      7  C   UNL     1      33.868 -12.532 -25.399  0.00  0.00    +0.014 C 
ATOM      8  C   UNL     1      33.985 -12.529 -22.986  0.00  0.00    +0.014 C 
BRANCH   3  16
ATOM      9  O   UNL     1      33.736 -16.673 -25.119  0.00  0.00    -0.270 OA
ATOM     10  N   UNL     1      35.061 -16.656 -23.191  0.00  0.00    -0.276 N 
ATOM     11  C   UNL     1      35.309 -17.970 -20.613  0.00  0.00    +0.102 C 
ATOM     12  C   UNL     1      34.700 -18.674 -21.829  0.00  0.00    +0.033 C 
ATOM     13  C   UNL     1      35.251 -16.445 -20.741  0.00  0.00    +0.033 C 
ATOM     14  C   UNL     1      35.217 -18.108 -23.150  0.00  0.00    +0.094 C 
ATOM     15  C   UNL     1      35.731 -15.937 -22.101  0.00  0.00    +0.094 C 
ATOM     16  C   UNL     1      34.299 -16.071 -24.205  0.00  0.00    +0.249 C 
BRANCH  11  18
ATOM     17  O   UNL     1      37.646 -18.207 -21.151  0.00  0.00    -0.250 OA
ATOM     18  C   UNL     1      36.718 -18.441 -20.390  0.00  0.00    +0.317 C 
BRANCH  18  19
ATOM     19  O   UNL     1      36.781 -19.154 -19.230  0.00  0.00    -0.444 OA
ATOM     20  C   UNL     1      36.461 -20.544 -19.345  0.00  0.00    +0.256 C 
ENDBRANCH  18  19
ENDBRANCH  11  18
ENDBRANCH   3  16
ENDBRANCH   1   6
BRANCH   1  21
ATOM     21  C   UNL     1      34.348  -9.589 -23.228  0.00  0.00    +0.145 C 
BRANCH  21  28
ATOM     22  N   UNL     1      33.521  -7.937 -21.636  0.00  0.00    -0.392 NA
ATOM     23  N   UNL     1      31.863  -6.801 -23.539  0.00  0.00    -0.200 NA
ATOM     24  N   UNL     1      31.114  -5.256 -21.985  0.00  0.00    -0.271 NA
ATOM     25  N   UNL     1      31.943  -5.269 -19.734  0.00  0.00    -0.310 NA
ATOM     26  N   UNL     1      33.545  -6.881 -19.090  0.00  0.00    -0.329 N 
ATOM     27  N   UNL     1      30.353  -3.690 -20.412  0.00  0.00    -0.283 N 
ATOM     28  C   UNL     1      33.473  -8.414 -22.889  0.00  0.00    +0.133 C 
ATOM     29  C   UNL     1      32.653  -7.852 -23.829  0.00  0.00    +0.193 C 
ATOM     30  C   UNL     1      32.731  -6.885 -21.347  0.00  0.00    +0.248 C 
ATOM     31  C   UNL     1      31.890  -6.301 -22.297  0.00  0.00    +0.131 C 
ATOM     32  C   UNL     1      32.708  -6.318 -20.087  0.00  0.00    +0.231 C 
ATOM     33  C   UNL     1      31.178  -4.792 -20.723  0.00  0.00    +0.207 C 
ATOM     34  H   UNL     1      33.552  -6.502 -18.181  0.00  0.00    +0.145 HD
ATOM     35  H   UNL     1      34.119  -7.651 -19.305  0.00  0.00    +0.145 HD
ATOM     36  H   UNL     1      29.770  -3.301 -21.103  0.00  0.00    +0.156 HD
ATOM     37  H   UNL     1      30.359  -3.310 -19.503  0.00  0.00    +0.156 HD
ENDBRANCH  21  28
ENDBRANCH   1  21
TORSDOF 6
ENDMDL
MODEL 7
REMARK VINA RESULT:     -11.5      7.563     13.309
REMARK  Name = 25243853
REMARK  6 active torsions:
REMARK  status: ('A' for Active; 'I' for Inactive)
REMARK    1  A    between atoms: N_1  and  C_6
REMARK    2  A    between atoms: N_1  and  C_21
REMARK    3  A    between atoms: C_3  and  C_16
REMARK    4  A    between atoms: C_11  and  C_18
REMARK    5  A    between atoms: C_18  and  O_19
REMARK    6  A    between atoms: C_21  and  C_28
REMARK                            x       y       z     vdW  Elec       q    Type
REMARK                         _______ _______ _______ _____ _____    ______ ____
ROOT
ATOM      1  N   UNL     1      33.036 -14.379 -24.965  0.00  0.00    -0.327 N 
ATOM      2  H   UNL     1      32.084 -14.601 -24.849  0.00  0.00    +0.147 HD
ENDROOT
BRANCH   1   6
ATOM      3  C   UNL     1      34.357 -10.557 -23.828  0.00  0.00    +0.054 C 
ATOM      4  C   UNL     1      34.163 -10.855 -25.177  0.00  0.00    +0.006 C 
ATOM      5  C   UNL     1      34.112 -11.529 -22.857  0.00  0.00    +0.006 C 
ATOM      6  C   UNL     1      33.479 -13.095 -24.583  0.00  0.00    +0.045 C 
ATOM      7  C   UNL     1      33.723 -12.124 -25.554  0.00  0.00    +0.014 C 
ATOM      8  C   UNL     1      33.674 -12.797 -23.234  0.00  0.00    +0.014 C 
BRANCH   3  16
ATOM      9  O   UNL     1      36.023  -9.004 -23.559  0.00  0.00    -0.270 OA
ATOM     10  N   UNL     1      33.873  -8.315 -22.946  0.00  0.00    -0.276 N 
ATOM     11  C   UNL     1      32.455  -7.017 -20.769  0.00  0.00    +0.102 C 
ATOM     12  C   UNL     1      33.934  -6.739 -21.057  0.00  0.00    +0.033 C 
ATOM     13  C   UNL     1      32.000  -8.363 -21.342  0.00  0.00    +0.033 C 
ATOM     14  C   UNL     1      34.300  -6.985 -22.519  0.00  0.00    +0.094 C 
ATOM     15  C   UNL     1      32.438  -8.577 -22.792  0.00  0.00    +0.094 C 
ATOM     16  C   UNL     1      34.819  -9.222 -23.430  0.00  0.00    +0.249 C 
BRANCH  11  18
ATOM     17  O   UNL     1      30.659  -6.043 -22.047  0.00  0.00    -0.250 OA
ATOM     18  C   UNL     1      31.604  -5.892 -21.285  0.00  0.00    +0.317 C 
BRANCH  18  19
ATOM     19  O   UNL     1      32.053  -4.711 -20.775  0.00  0.00    -0.444 OA
ATOM     20  C   UNL     1      32.017  -3.600 -21.676  0.00  0.00    +0.256 C 
ENDBRANCH  18  19
ENDBRANCH  11  18
ENDBRANCH   3  16
ENDBRANCH   1   6
BRANCH   1  21
ATOM     21  C   UNL     1      33.909 -15.371 -25.510  0.00  0.00    +0.145 C 
BRANCH  21  28
ATOM     22  N   UNL     1      34.643 -15.921 -23.250  0.00  0.00    -0.392 NA
ATOM     23  N   UNL     1      34.594 -18.634 -23.798  0.00  0.00    -0.200 NA
ATOM     24  N   UNL     1      35.292 -19.097 -21.640  0.00  0.00    -0.271 NA
ATOM     25  N   UNL     1      35.706 -17.330 -20.071  0.00  0.00    -0.310 NA
ATOM     26  N   UNL     1      35.398 -15.084 -20.735  0.00  0.00    -0.329 N 
ATOM     27  N   UNL     1      36.001 -19.569 -19.452  0.00  0.00    -0.283 N 
ATOM     28  C   UNL     1      34.284 -16.379 -24.459  0.00  0.00    +0.133 C 
ATOM     29  C   UNL     1      34.259 -17.721 -24.729  0.00  0.00    +0.193 C 
ATOM     30  C   UNL     1      34.977 -16.836 -22.320  0.00  0.00    +0.248 C 
ATOM     31  C   UNL     1      34.956 -18.208 -22.582  0.00  0.00    +0.131 C 
ATOM     32  C   UNL     1      35.361 -16.468 -21.045  0.00  0.00    +0.231 C 
ATOM     33  C   UNL     1      35.650 -18.617 -20.433  0.00  0.00    +0.207 C 
ATOM     34  H   UNL     1      35.668 -14.788 -19.836  0.00  0.00    +0.145 HD
ATOM     35  H   UNL     1      35.156 -14.419 -21.419  0.00  0.00    +0.145 HD
ATOM     36  H   UNL     1      35.977 -20.529 -19.668  0.00  0.00    +0.156 HD
ATOM     37  H   UNL     1      36.271 -19.273 -18.553  0.00  0.00    +0.156 HD
ENDBRANCH  21  28
ENDBRANCH   1  21
TORSDOF 6
ENDMDL
MODEL 8
REMARK VINA RESULT:     -11.5      4.158     11.478
REMARK  Name = 25243853
REMARK  6 active torsions:
REMARK  status: ('A' for Active; 'I' for Inactive)
REMARK    1  A    between atoms: N_1  and  C_6
REMARK    2  A    between atoms: N_1  and  C_21
REMARK    3  A    between atoms: C_3  and  C_16
REMARK    4  A    between atoms: C_11  and  C_18
REMARK    5  A    between atoms: C_18  and  O_19
REMARK    6  A    between atoms: C_21  and  C_28
REMARK                            x       y       z     vdW  Elec       q    Type
REMARK                         _______ _______ _______ _____ _____    ______ ____
ROOT
ATOM      1  N   UNL     1      36.331 -21.128 -17.820  0.00  0.00    -0.327 N 
ATOM      2  H   UNL     1      35.826 -21.972 -17.784  0.00  0.00    +0.147 HD
ENDROOT
BRANCH   1   6
ATOM      3  C   UNL     1      35.661 -18.526 -21.049  0.00  0.00    +0.054 C 
ATOM      4  C   UNL     1      34.622 -19.324 -20.570  0.00  0.00    +0.006 C 
ATOM      5  C   UNL     1      36.921 -18.592 -20.456  0.00  0.00    +0.006 C 
ATOM      6  C   UNL     1      36.105 -20.253 -18.905  0.00  0.00    +0.045 C 
ATOM      7  C   UNL     1      34.845 -20.187 -19.497  0.00  0.00    +0.014 C 
ATOM      8  C   UNL     1      37.144 -19.455 -19.385  0.00  0.00    +0.014 C 
BRANCH   3  16
ATOM      9  O   UNL     1      35.821 -18.004 -23.277  0.00  0.00    -0.270 OA
ATOM     10  N   UNL     1      34.782 -16.404 -21.923  0.00  0.00    -0.276 N 
ATOM     11  C   UNL     1      34.825 -13.555 -21.359  0.00  0.00    +0.102 C 
ATOM     12  C   UNL     1      35.218 -14.119 -22.728  0.00  0.00    +0.033 C 
ATOM     13  C   UNL     1      34.949 -14.601 -20.248  0.00  0.00    +0.033 C 
ATOM     14  C   UNL     1      34.553 -15.464 -23.018  0.00  0.00    +0.094 C 
ATOM     15  C   UNL     1      34.313 -15.943 -20.611  0.00  0.00    +0.094 C 
ATOM     16  C   UNL     1      35.427 -17.617 -22.178  0.00  0.00    +0.249 C 
BRANCH  11  18
ATOM     17  O   UNL     1      32.868 -12.662 -22.446  0.00  0.00    -0.250 OA
ATOM     18  C   UNL     1      33.437 -12.982 -21.411  0.00  0.00    +0.317 C 
BRANCH  18  19
ATOM     19  O   UNL     1      32.937 -12.884 -20.147  0.00  0.00    -0.444 OA
ATOM     20  C   UNL     1      31.889 -11.925 -19.974  0.00  0.00    +0.256 C 
ENDBRANCH  18  19
ENDBRANCH  11  18
ENDBRANCH   3  16
ENDBRANCH   1   6
BRANCH   1  21
ATOM     21  C   UNL     1      37.260 -20.841 -16.772  0.00  0.00    +0.145 C 
BRANCH  21  28
ATOM     22  N   UNL     1      38.132 -22.638 -15.373  0.00  0.00    -0.392 NA
ATOM     23  N   UNL     1      35.787 -22.755 -13.906  0.00  0.00    -0.200 NA
ATOM     24  N   UNL     1      36.666 -24.459 -12.610  0.00  0.00    -0.271 NA
ATOM     25  N   UNL     1      38.882 -25.291 -13.002  0.00  0.00    -0.310 NA
ATOM     26  N   UNL     1      40.187 -24.360 -14.737  0.00  0.00    -0.329 N 
ATOM     27  N   UNL     1      37.555 -26.188 -11.294  0.00  0.00    -0.283 N 
ATOM     28  C   UNL     1      37.101 -21.822 -15.644  0.00  0.00    +0.133 C 
ATOM     29  C   UNL     1      35.943 -21.880 -14.918  0.00  0.00    +0.193 C 
ATOM     30  C   UNL     1      37.974 -23.512 -14.360  0.00  0.00    +0.248 C 
ATOM     31  C   UNL     1      36.797 -23.582 -13.611  0.00  0.00    +0.131 C 
ATOM     32  C   UNL     1      38.974 -24.395 -14.001  0.00  0.00    +0.231 C 
ATOM     33  C   UNL     1      37.711 -25.269 -12.353  0.00  0.00    +0.207 C 
ATOM     34  H   UNL     1      40.920 -24.976 -14.507  0.00  0.00    +0.145 HD
ATOM     35  H   UNL     1      40.296 -23.722 -15.478  0.00  0.00    +0.145 HD
ATOM     36  H   UNL     1      36.713 -26.213 -10.785  0.00  0.00    +0.156 HD
ATOM     37  H   UNL     1      38.288 -26.804 -11.063  0.00  0.00    +0.156 HD
ENDBRANCH  21  28
ENDBRANCH   1  21
TORSDOF 6
ENDMDL
MODEL 9
REMARK VINA RESULT:     -11.5      5.081     11.532
REMARK  Name = 25243853
REMARK  6 active torsions:
REMARK  status: ('A' for Active; 'I' for Inactive)
REMARK    1  A    between atoms: N_1  and  C_6
REMARK    2  A    between atoms: N_1  and  C_21
REMARK    3  A    between atoms: C_3  and  C_16
REMARK    4  A    between atoms: C_11  and  C_18
REMARK    5  A    between atoms: C_18  and  O_19
REMARK    6  A    between atoms: C_21  and  C_28
REMARK                            x       y       z     vdW  Elec       q    Type
REMARK                         _______ _______ _______ _____ _____    ______ ____
ROOT
ATOM      1  N   UNL     1      36.173 -19.188 -19.683  0.00  0.00    -0.327 N 
ATOM      2  H   UNL     1      36.586 -18.853 -18.855  0.00  0.00    +0.147 HD
ENDROOT
BRANCH   1   6
ATOM      3  C   UNL     1      35.003 -16.410 -22.608  0.00  0.00    +0.054 C 
ATOM      4  C   UNL     1      35.407 -15.967 -21.348  0.00  0.00    +0.006 C 
ATOM      5  C   UNL     1      34.989 -17.774 -22.896  0.00  0.00    +0.006 C 
ATOM      6  C   UNL     1      35.781 -18.255 -20.666  0.00  0.00    +0.045 C 
ATOM      7  C   UNL     1      35.796 -16.890 -20.377  0.00  0.00    +0.014 C 
ATOM      8  C   UNL     1      35.377 -18.697 -21.926  0.00  0.00    +0.014 C 
BRANCH   3  16
ATOM      9  O   UNL     1      34.798 -15.764 -24.799  0.00  0.00    -0.270 OA
ATOM     10  N   UNL     1      34.011 -14.243 -23.206  0.00  0.00    -0.276 N 
ATOM     11  C   UNL     1      34.171 -11.430 -22.501  0.00  0.00    +0.102 C 
ATOM     12  C   UNL     1      34.327 -11.917 -23.945  0.00  0.00    +0.033 C 
ATOM     13  C   UNL     1      34.469 -12.536 -21.485  0.00  0.00    +0.033 C 
ATOM     14  C   UNL     1      33.612 -13.243 -24.194  0.00  0.00    +0.094 C 
ATOM     15  C   UNL     1      33.769 -13.857 -21.811  0.00  0.00    +0.094 C 
ATOM     16  C   UNL     1      34.594 -15.439 -23.631  0.00  0.00    +0.249 C 
BRANCH  11  18
ATOM     17  O   UNL     1      31.928 -11.393 -21.620  0.00  0.00    -0.250 OA
ATOM     18  C   UNL     1      32.799 -10.856 -22.291  0.00  0.00    +0.317 C 
BRANCH  18  19
ATOM     19  O   UNL     1      32.694  -9.671 -22.956  0.00  0.00    -0.444 OA
ATOM     20  C   UNL     1      32.211  -8.571 -22.178  0.00  0.00    +0.256 C 
ENDBRANCH  18  19
ENDBRANCH  11  18
ENDBRANCH   3  16
ENDBRANCH   1   6
BRANCH   1  21
ATOM     21  C   UNL     1      35.998 -20.599 -19.839  0.00  0.00    +0.145 C 
BRANCH  21  28
ATOM     22  N   UNL     1      35.410 -21.633 -17.710  0.00  0.00    -0.392 NA
ATOM     23  N   UNL     1      32.707 -21.513 -18.296  0.00  0.00    -0.200 NA
ATOM     24  N   UNL     1      32.208 -22.497 -16.262  0.00  0.00    -0.271 NA
ATOM     25  N   UNL     1      33.947 -23.117 -14.730  0.00  0.00    -0.310 NA
ATOM     26  N   UNL     1      36.203 -22.720 -15.305  0.00  0.00    -0.329 N 
ATOM     27  N   UNL     1      31.698 -23.496 -14.199  0.00  0.00    -0.283 N 
ATOM     28  C   UNL     1      34.973 -21.113 -18.867  0.00  0.00    +0.133 C 
ATOM     29  C   UNL     1      33.636 -21.054 -19.157  0.00  0.00    +0.193 C 
ATOM     30  C   UNL     1      34.479 -22.090 -16.850  0.00  0.00    +0.248 C 
ATOM     31  C   UNL     1      33.112 -22.036 -17.133  0.00  0.00    +0.131 C 
ATOM     32  C   UNL     1      34.825 -22.642 -15.632  0.00  0.00    +0.231 C 
ATOM     33  C   UNL     1      32.666 -23.014 -15.106  0.00  0.00    +0.207 C 
ATOM     34  H   UNL     1      36.484 -23.109 -14.445  0.00  0.00    +0.145 HD
ATOM     35  H   UNL     1      36.880 -22.387 -15.937  0.00  0.00    +0.145 HD
ATOM     36  H   UNL     1      30.741 -23.444 -14.428  0.00  0.00    +0.156 HD
ATOM     37  H   UNL     1      31.978 -23.885 -13.339  0.00  0.00    +0.156 HD
ENDBRANCH  21  28
ENDBRANCH   1  21
TORSDOF 6
ENDMDL
