MODEL 1
REMARK VINA RESULT:     -11.9      0.000      0.000
REMARK  Name = 448317
REMARK  6 active torsions:
REMARK  status: ('A' for Active; 'I' for Inactive)
REMARK    1  A    between atoms: C_1  and  C_18
REMARK    2  A    between atoms: C_4  and  N_24
REMARK    3  A    between atoms: C_5  and  S_25
REMARK    4  A    between atoms: S_25  and  C_26
REMARK    5  A    between atoms: C_27  and  O_32
REMARK    6  A    between atoms: O_32  and  C_33
REMARK                            x       y       z     vdW  Elec       q    Type
REMARK                         _______ _______ _______ _____ _____    ______ ____
ROOT
ATOM      1  C   UNL     1      34.254 -20.434 -19.084  0.00  0.00    +0.002 C 
ATOM      2  C   UNL     1      35.557 -19.956 -19.219  0.00  0.00    +0.025 C 
ATOM      3  C   UNL     1      33.283 -20.087 -20.023  0.00  0.00    +0.001 C 
ATOM      4  C   UNL     1      35.890 -19.132 -20.295  0.00  0.00    +0.149 C 
ATOM      5  C   UNL     1      34.919 -18.785 -21.234  0.00  0.00    +0.052 C 
ATOM      6  C   UNL     1      33.615 -19.263 -21.100  0.00  0.00    +0.008 C 
ENDROOT
BRANCH   1  18
ATOM      7  O   UNL     1      38.811 -23.481 -11.632  0.00  0.00    -0.275 OA
ATOM      8  N   UNL     1      35.570 -23.148 -15.253  0.00  0.00    -0.290 N 
ATOM      9  N   UNL     1      37.550 -24.097 -13.480  0.00  0.00    -0.276 N 
ATOM     10  N   UNL     1      33.239 -22.939 -15.815  0.00  0.00    -0.229 NA
ATOM     11  C   UNL     1      35.384 -24.449 -14.595  0.00  0.00    +0.114 C 
ATOM     12  C   UNL     1      36.431 -22.186 -14.547  0.00  0.00    +0.114 C 
ATOM     13  C   UNL     1      36.735 -25.059 -14.225  0.00  0.00    +0.115 C 
ATOM     14  C   UNL     1      37.764 -22.834 -14.182  0.00  0.00    +0.115 C 
ATOM     15  C   UNL     1      34.555 -22.635 -16.069  0.00  0.00    +0.132 C 
ATOM     16  C   UNL     1      38.115 -24.308 -12.225  0.00  0.00    +0.226 C 
ATOM     17  C   UNL     1      34.905 -21.806 -17.150  0.00  0.00    +0.034 C 
ATOM     18  C   UNL     1      33.908 -21.288 -17.969  0.00  0.00    +0.004 C 
ATOM     19  C   UNL     1      37.836 -25.640 -11.576  0.00  0.00    +0.095 C 
ATOM     20  C   UNL     1      32.576 -21.594 -17.712  0.00  0.00    +0.021 C 
ATOM     21  C   UNL     1      32.297 -22.417 -16.634  0.00  0.00    +0.100 C 
ENDBRANCH   1  18
BRANCH   4  24
ATOM     22  O   UNL     1      37.665 -18.302 -21.510  0.00  0.00    -0.126 OA
ATOM     23  O   UNL     1      37.938 -18.636 -19.357  0.00  0.00    -0.126 OA
ATOM     24  N   UNL     1      37.233 -18.667 -20.393  0.00  0.00    +0.058 N 
ENDBRANCH   4  24
BRANCH   5  25
ATOM     25  S   UNL     1      35.279 -17.732 -22.638  0.00  0.00    -0.082 S 
BRANCH  25  26
ATOM     26  C   UNL     1      35.065 -16.114 -21.913  0.00  0.00    +0.063 C 
ATOM     27  C   UNL     1      34.943 -14.972 -22.706  0.00  0.00    +0.144 C 
ATOM     28  C   UNL     1      35.022 -16.003 -20.522  0.00  0.00    +0.010 C 
ATOM     29  C   UNL     1      34.778 -13.723 -22.110  0.00  0.00    +0.037 C 
ATOM     30  C   UNL     1      34.857 -14.753 -19.926  0.00  0.00    +0.001 C 
ATOM     31  C   UNL     1      34.735 -13.612 -20.719  0.00  0.00    +0.003 C 
BRANCH  27  32
ATOM     32  O   UNL     1      34.979 -15.042 -24.067  0.00  0.00    -0.475 OA
BRANCH  32  33
ATOM     33  C   UNL     1      33.750 -14.830 -24.759  0.00  0.00    +0.206 C 
ATOM     34  C   UNL     1      33.291 -16.140 -25.361  0.00  0.00    +0.051 C 
ENDBRANCH  32  33
ENDBRANCH  27  32
ENDBRANCH  25  26
ENDBRANCH   5  25
TORSDOF 6
ENDMDL
MODEL 2
REMARK VINA RESULT:     -10.5      6.498     12.572
REMARK  Name = 448317
REMARK  6 active torsions:
REMARK  status: ('A' for Active; 'I' for Inactive)
REMARK    1  A    between atoms: C_1  and  C_18
REMARK    2  A    between atoms: C_4  and  N_24
REMARK    3  A    between atoms: C_5  and  S_25
REMARK    4  A    between atoms: S_25  and  C_26
REMARK    5  A    between atoms: C_27  and  O_32
REMARK    6  A    between atoms: O_32  and  C_33
REMARK                            x       y       z     vdW  Elec       q    Type
REMARK                         _______ _______ _______ _____ _____    ______ ____
ROOT
ATOM      1  C   UNL     1      33.385 -12.893 -21.558  0.00  0.00    +0.002 C 
ATOM      2  C   UNL     1      33.230 -13.110 -22.927  0.00  0.00    +0.025 C 
ATOM      3  C   UNL     1      34.231 -13.715 -20.814  0.00  0.00    +0.001 C 
ATOM      4  C   UNL     1      33.922 -14.147 -23.553  0.00  0.00    +0.149 C 
ATOM      5  C   UNL     1      34.767 -14.970 -22.809  0.00  0.00    +0.052 C 
ATOM      6  C   UNL     1      34.923 -14.754 -21.439  0.00  0.00    +0.008 C 
ENDROOT
BRANCH   1  18
ATOM      7  O   UNL     1      31.398  -4.154 -23.854  0.00  0.00    -0.275 OA
ATOM      8  N   UNL     1      32.218  -8.170 -21.223  0.00  0.00    -0.290 N 
ATOM      9  N   UNL     1      32.319  -5.538 -22.235  0.00  0.00    -0.276 N 
ATOM     10  N   UNL     1      31.283  -9.739 -19.654  0.00  0.00    -0.229 NA
ATOM     11  C   UNL     1      32.095  -7.037 -20.295  0.00  0.00    +0.114 C 
ATOM     12  C   UNL     1      31.810  -7.913 -22.613  0.00  0.00    +0.114 C 
ATOM     13  C   UNL     1      32.783  -5.799 -20.870  0.00  0.00    +0.115 C 
ATOM     14  C   UNL     1      32.504  -6.663 -23.148  0.00  0.00    +0.115 C 
ATOM     15  C   UNL     1      32.087  -9.477 -20.738  0.00  0.00    +0.132 C 
ATOM     16  C   UNL     1      31.763  -4.346 -22.692  0.00  0.00    +0.226 C 
ATOM     17  C   UNL     1      32.790 -10.514 -21.379  0.00  0.00    +0.034 C 
ATOM     18  C   UNL     1      32.669 -11.818 -20.910  0.00  0.00    +0.004 C 
ATOM     19  C   UNL     1      31.608  -3.242 -21.677  0.00  0.00    +0.095 C 
ATOM     20  C   UNL     1      31.855 -12.083 -19.813  0.00  0.00    +0.021 C 
ATOM     21  C   UNL     1      31.191 -11.019 -19.226  0.00  0.00    +0.100 C 
ENDBRANCH   1  18
BRANCH   4  24
ATOM     22  O   UNL     1      33.085 -15.328 -25.349  0.00  0.00    -0.126 OA
ATOM     23  O   UNL     1      34.219 -13.489 -25.743  0.00  0.00    -0.126 OA
ATOM     24  N   UNL     1      33.733 -14.331 -24.953  0.00  0.00    +0.058 N 
ENDBRANCH   4  24
BRANCH   5  25
ATOM     25  S   UNL     1      35.684 -16.319 -23.549  0.00  0.00    -0.082 S 
BRANCH  25  26
ATOM     26  C   UNL     1      35.598 -17.541 -22.250  0.00  0.00    +0.063 C 
ATOM     27  C   UNL     1      34.539 -18.447 -22.173  0.00  0.00    +0.144 C 
ATOM     28  C   UNL     1      36.618 -17.580 -21.297  0.00  0.00    +0.010 C 
ATOM     29  C   UNL     1      34.500 -19.390 -21.146  0.00  0.00    +0.037 C 
ATOM     30  C   UNL     1      36.578 -18.523 -20.269  0.00  0.00    +0.001 C 
ATOM     31  C   UNL     1      35.519 -19.428 -20.193  0.00  0.00    +0.003 C 
BRANCH  27  32
ATOM     32  O   UNL     1      33.527 -18.441 -23.086  0.00  0.00    -0.475 OA
BRANCH  32  33
ATOM     33  C   UNL     1      33.887 -18.627 -24.453  0.00  0.00    +0.206 C 
ATOM     34  C   UNL     1      32.637 -18.568 -25.304  0.00  0.00    +0.051 C 
ENDBRANCH  32  33
ENDBRANCH  27  32
ENDBRANCH  25  26
ENDBRANCH   5  25
TORSDOF 6
ENDMDL
MODEL 3
REMARK VINA RESULT:      -9.9      5.162     12.261
REMARK  Name = 448317
REMARK  6 active torsions:
REMARK  status: ('A' for Active; 'I' for Inactive)
REMARK    1  A    between atoms: C_1  and  C_18
REMARK    2  A    between atoms: C_4  and  N_24
REMARK    3  A    between atoms: C_5  and  S_25
REMARK    4  A    between atoms: S_25  and  C_26
REMARK    5  A    between atoms: C_27  and  O_32
REMARK    6  A    between atoms: O_32  and  C_33
REMARK                            x       y       z     vdW  Elec       q    Type
REMARK                         _______ _______ _______ _____ _____    ______ ____
ROOT
ATOM      1  C   UNL     1      33.706 -13.747 -20.612  0.00  0.00    +0.002 C 
ATOM      2  C   UNL     1      33.966 -14.168 -21.917  0.00  0.00    +0.025 C 
ATOM      3  C   UNL     1      34.192 -14.485 -19.533  0.00  0.00    +0.001 C 
ATOM      4  C   UNL     1      34.713 -15.324 -22.142  0.00  0.00    +0.149 C 
ATOM      5  C   UNL     1      35.199 -16.062 -21.062  0.00  0.00    +0.052 C 
ATOM      6  C   UNL     1      34.939 -15.642 -19.757  0.00  0.00    +0.008 C 
ENDROOT
BRANCH   1  18
ATOM      7  O   UNL     1      32.667  -5.750 -25.146  0.00  0.00    -0.275 OA
ATOM      8  N   UNL     1      32.741  -9.066 -21.578  0.00  0.00    -0.290 N 
ATOM      9  N   UNL     1      33.176  -6.734 -23.106  0.00  0.00    -0.276 N 
ATOM     10  N   UNL     1      31.435 -10.232 -19.926  0.00  0.00    -0.229 NA
ATOM     11  C   UNL     1      32.496  -7.751 -20.970  0.00  0.00    +0.114 C 
ATOM     12  C   UNL     1      32.630  -9.130 -23.044  0.00  0.00    +0.114 C 
ATOM     13  C   UNL     1      33.346  -6.680 -21.653  0.00  0.00    +0.115 C 
ATOM     14  C   UNL     1      33.480  -8.038 -23.690  0.00  0.00    +0.115 C 
ATOM     15  C   UNL     1      32.449 -10.227 -20.853  0.00  0.00    +0.132 C 
ATOM     16  C   UNL     1      32.784  -5.675 -23.920  0.00  0.00    +0.226 C 
ATOM     17  C   UNL     1      33.210 -11.387 -21.090  0.00  0.00    +0.034 C 
ATOM     18  C   UNL     1      32.932 -12.549 -20.379  0.00  0.00    +0.004 C 
ATOM     19  C   UNL     1      32.488  -4.368 -23.229  0.00  0.00    +0.095 C 
ATOM     20  C   UNL     1      31.905 -12.553 -19.441  0.00  0.00    +0.021 C 
ATOM     21  C   UNL     1      31.194 -11.379 -19.253  0.00  0.00    +0.100 C 
ENDBRANCH   1  18
BRANCH   4  24
ATOM     22  O   UNL     1      35.588 -14.939 -24.240  0.00  0.00    -0.126 OA
ATOM     23  O   UNL     1      34.525 -16.826 -23.881  0.00  0.00    -0.126 OA
ATOM     24  N   UNL     1      34.954 -15.716 -23.490  0.00  0.00    +0.058 N 
ENDBRANCH   4  24
BRANCH   5  25
ATOM     25  S   UNL     1      36.164 -17.555 -21.280  0.00  0.00    -0.082 S 
BRANCH  25  26
ATOM     26  C   UNL     1      35.063 -18.776 -20.584  0.00  0.00    +0.063 C 
ATOM     27  C   UNL     1      35.502 -19.689 -19.624  0.00  0.00    +0.144 C 
ATOM     28  C   UNL     1      33.736 -18.809 -21.019  0.00  0.00    +0.010 C 
ATOM     29  C   UNL     1      34.618 -20.631 -19.100  0.00  0.00    +0.037 C 
ATOM     30  C   UNL     1      32.852 -19.752 -20.495  0.00  0.00    +0.001 C 
ATOM     31  C   UNL     1      33.292 -20.663 -19.535  0.00  0.00    +0.003 C 
BRANCH  27  32
ATOM     32  O   UNL     1      36.789 -19.686 -19.173  0.00  0.00    -0.475 OA
BRANCH  32  33
ATOM     33  C   UNL     1      37.236 -20.852 -18.485  0.00  0.00    +0.206 C 
ATOM     34  C   UNL     1      37.191 -20.592 -16.994  0.00  0.00    +0.051 C 
ENDBRANCH  32  33
ENDBRANCH  27  32
ENDBRANCH  25  26
ENDBRANCH   5  25
TORSDOF 6
ENDMDL
MODEL 4
REMARK VINA RESULT:      -9.4      2.725      3.854
REMARK  Name = 448317
REMARK  6 active torsions:
REMARK  status: ('A' for Active; 'I' for Inactive)
REMARK    1  A    between atoms: C_1  and  C_18
REMARK    2  A    between atoms: C_4  and  N_24
REMARK    3  A    between atoms: C_5  and  S_25
REMARK    4  A    between atoms: S_25  and  C_26
REMARK    5  A    between atoms: C_27  and  O_32
REMARK    6  A    between atoms: O_32  and  C_33
REMARK                            x       y       z     vdW  Elec       q    Type
REMARK                         _______ _______ _______ _____ _____    ______ ____
ROOT
ATOM      1  C   UNL     1      36.151 -20.177 -18.844  0.00  0.00    +0.002 C 
ATOM      2  C   UNL     1      34.984 -20.063 -19.600  0.00  0.00    +0.025 C 
ATOM      3  C   UNL     1      37.305 -19.500 -19.237  0.00  0.00    +0.001 C 
ATOM      4  C   UNL     1      34.971 -19.270 -20.749  0.00  0.00    +0.149 C 
ATOM      5  C   UNL     1      36.126 -18.594 -21.142  0.00  0.00    +0.052 C 
ATOM      6  C   UNL     1      37.293 -18.708 -20.386  0.00  0.00    +0.008 C 
ENDROOT
BRANCH   1  18
ATOM      7  O   UNL     1      29.748 -25.084 -14.314  0.00  0.00    -0.275 OA
ATOM      8  N   UNL     1      33.786 -22.541 -15.295  0.00  0.00    -0.290 N 
ATOM      9  N   UNL     1      31.382 -23.447 -14.126  0.00  0.00    -0.276 N 
ATOM     10  N   UNL     1      36.192 -22.584 -15.352  0.00  0.00    -0.229 NA
ATOM     11  C   UNL     1      33.729 -22.762 -13.843  0.00  0.00    +0.114 C 
ATOM     12  C   UNL     1      32.837 -23.324 -16.104  0.00  0.00    +0.114 C 
ATOM     13  C   UNL     1      32.295 -22.617 -13.336  0.00  0.00    +0.115 C 
ATOM     14  C   UNL     1      31.419 -23.167 -15.559  0.00  0.00    +0.115 C 
ATOM     15  C   UNL     1      34.997 -22.172 -15.891  0.00  0.00    +0.132 C 
ATOM     16  C   UNL     1      30.517 -24.414 -13.621  0.00  0.00    +0.226 C 
ATOM     17  C   UNL     1      34.969 -21.372 -17.050  0.00  0.00    +0.034 C 
ATOM     18  C   UNL     1      36.164 -20.998 -17.654  0.00  0.00    +0.004 C 
ATOM     19  C   UNL     1      30.551 -24.636 -12.130  0.00  0.00    +0.095 C 
ATOM     20  C   UNL     1      37.373 -21.416 -17.108  0.00  0.00    +0.021 C 
ATOM     21  C   UNL     1      37.333 -22.200 -15.967  0.00  0.00    +0.100 C 
ENDBRANCH   1  18
BRANCH   4  24
ATOM     22  O   UNL     1      33.811 -18.861 -22.699  0.00  0.00    -0.126 OA
ATOM     23  O   UNL     1      32.677 -19.432 -20.908  0.00  0.00    -0.126 OA
ATOM     24  N   UNL     1      33.758 -19.183 -21.490  0.00  0.00    +0.058 N 
ENDBRANCH   4  24
BRANCH   5  25
ATOM     25  S   UNL     1      36.178 -17.561 -22.604  0.00  0.00    -0.082 S 
BRANCH  25  26
ATOM     26  C   UNL     1      35.494 -16.039 -21.971  0.00  0.00    +0.063 C 
ATOM     27  C   UNL     1      35.114 -15.001 -22.823  0.00  0.00    +0.144 C 
ATOM     28  C   UNL     1      35.344 -15.895 -20.589  0.00  0.00    +0.010 C 
ATOM     29  C   UNL     1      34.584 -13.824 -22.297  0.00  0.00    +0.037 C 
ATOM     30  C   UNL     1      34.813 -14.717 -20.064  0.00  0.00    +0.001 C 
ATOM     31  C   UNL     1      34.433 -13.681 -20.917  0.00  0.00    +0.003 C 
BRANCH  27  32
ATOM     32  O   UNL     1      35.245 -15.106 -24.176  0.00  0.00    -0.475 OA
BRANCH  32  33
ATOM     33  C   UNL     1      34.055 -14.986 -24.953  0.00  0.00    +0.206 C 
ATOM     34  C   UNL     1      33.491 -16.367 -25.206  0.00  0.00    +0.051 C 
ENDBRANCH  32  33
ENDBRANCH  27  32
ENDBRANCH  25  26
ENDBRANCH   5  25
TORSDOF 6
ENDMDL
MODEL 5
REMARK VINA RESULT:      -9.3      4.662     12.184
REMARK  Name = 448317
REMARK  6 active torsions:
REMARK  status: ('A' for Active; 'I' for Inactive)
REMARK    1  A    between atoms: C_1  and  C_18
REMARK    2  A    between atoms: C_4  and  N_24
REMARK    3  A    between atoms: C_5  and  S_25
REMARK    4  A    between atoms: S_25  and  C_26
REMARK    5  A    between atoms: C_27  and  O_32
REMARK    6  A    between atoms: O_32  and  C_33
REMARK                            x       y       z     vdW  Elec       q    Type
REMARK                         _______ _______ _______ _____ _____    ______ ____
ROOT
ATOM      1  C   UNL     1      34.461 -14.296 -21.342  0.00  0.00    +0.002 C 
ATOM      2  C   UNL     1      34.686 -15.155 -22.417  0.00  0.00    +0.025 C 
ATOM      3  C   UNL     1      34.853 -14.669 -20.056  0.00  0.00    +0.001 C 
ATOM      4  C   UNL     1      35.307 -16.387 -22.208  0.00  0.00    +0.149 C 
ATOM      5  C   UNL     1      35.700 -16.761 -20.923  0.00  0.00    +0.052 C 
ATOM      6  C   UNL     1      35.474 -15.902 -19.846  0.00  0.00    +0.008 C 
ENDROOT
BRANCH   1  18
ATOM      7  O   UNL     1      36.041  -7.152 -27.004  0.00  0.00    -0.275 OA
ATOM      8  N   UNL     1      34.495  -9.793 -23.214  0.00  0.00    -0.290 N 
ATOM      9  N   UNL     1      35.713  -7.803 -24.801  0.00  0.00    -0.276 N 
ATOM     10  N   UNL     1      32.575 -10.550 -21.975  0.00  0.00    -0.229 NA
ATOM     11  C   UNL     1      34.238  -8.378 -22.916  0.00  0.00    +0.114 C 
ATOM     12  C   UNL     1      34.867 -10.102 -24.604  0.00  0.00    +0.114 C 
ATOM     13  C   UNL     1      35.400  -7.510 -23.400  0.00  0.00    +0.115 C 
ATOM     14  C   UNL     1      36.018  -9.208 -25.057  0.00  0.00    +0.115 C 
ATOM     15  C   UNL     1      33.829 -10.785 -22.484  0.00  0.00    +0.132 C 
ATOM     16  C   UNL     1      35.756  -6.874 -25.837  0.00  0.00    +0.226 C 
ATOM     17  C   UNL     1      34.467 -12.023 -22.281  0.00  0.00    +0.034 C 
ATOM     18  C   UNL     1      33.818 -13.019 -21.558  0.00  0.00    +0.004 C 
ATOM     19  C   UNL     1      35.423  -5.448 -25.477  0.00  0.00    +0.095 C 
ATOM     20  C   UNL     1      32.548 -12.781 -21.044  0.00  0.00    +0.021 C 
ATOM     21  C   UNL     1      31.976 -11.541 -21.277  0.00  0.00    +0.100 C 
ENDBRANCH   1  18
BRANCH   4  24
ATOM     22  O   UNL     1      34.815 -17.060 -24.357  0.00  0.00    -0.126 OA
ATOM     23  O   UNL     1      36.399 -18.120 -23.267  0.00  0.00    -0.126 OA
ATOM     24  N   UNL     1      35.517 -17.232 -23.335  0.00  0.00    +0.058 N 
ENDBRANCH   4  24
BRANCH   5  25
ATOM     25  S   UNL     1      36.500 -18.327 -20.584  0.00  0.00    -0.082 S 
BRANCH  25  26
ATOM     26  C   UNL     1      35.117 -19.298 -20.009  0.00  0.00    +0.063 C 
ATOM     27  C   UNL     1      35.253 -20.209 -18.961  0.00  0.00    +0.144 C 
ATOM     28  C   UNL     1      33.877 -19.134 -20.631  0.00  0.00    +0.010 C 
ATOM     29  C   UNL     1      34.154 -20.954 -18.535  0.00  0.00    +0.037 C 
ATOM     30  C   UNL     1      32.778 -19.880 -20.205  0.00  0.00    +0.001 C 
ATOM     31  C   UNL     1      32.915 -20.790 -19.157  0.00  0.00    +0.003 C 
BRANCH  27  32
ATOM     32  O   UNL     1      36.447 -20.395 -18.328  0.00  0.00    -0.475 OA
BRANCH  32  33
ATOM     33  C   UNL     1      36.525 -21.471 -17.395  0.00  0.00    +0.206 C 
ATOM     34  C   UNL     1      36.982 -20.931 -16.057  0.00  0.00    +0.051 C 
ENDBRANCH  32  33
ENDBRANCH  27  32
ENDBRANCH  25  26
ENDBRANCH   5  25
TORSDOF 6
ENDMDL
MODEL 6
REMARK VINA RESULT:      -9.1      3.373      4.780
REMARK  Name = 448317
REMARK  6 active torsions:
REMARK  status: ('A' for Active; 'I' for Inactive)
REMARK    1  A    between atoms: C_1  and  C_18
REMARK    2  A    between atoms: C_4  and  N_24
REMARK    3  A    between atoms: C_5  and  S_25
REMARK    4  A    between atoms: S_25  and  C_26
REMARK    5  A    between atoms: C_27  and  O_32
REMARK    6  A    between atoms: O_32  and  C_33
REMARK                            x       y       z     vdW  Elec       q    Type
REMARK                         _______ _______ _______ _____ _____    ______ ____
ROOT
ATOM      1  C   UNL     1      35.476 -18.065 -20.881  0.00  0.00    +0.002 C 
ATOM      2  C   UNL     1      35.104 -18.116 -22.225  0.00  0.00    +0.025 C 
ATOM      3  C   UNL     1      35.562 -16.836 -20.229  0.00  0.00    +0.001 C 
ATOM      4  C   UNL     1      34.817 -16.939 -22.915  0.00  0.00    +0.149 C 
ATOM      5  C   UNL     1      34.903 -15.709 -22.263  0.00  0.00    +0.052 C 
ATOM      6  C   UNL     1      35.275 -15.657 -20.919  0.00  0.00    +0.008 C 
ENDROOT
BRANCH   1  18
ATOM      7  O   UNL     1      30.503 -23.866 -15.665  0.00  0.00    -0.275 OA
ATOM      8  N   UNL     1      34.272 -21.449 -17.583  0.00  0.00    -0.290 N 
ATOM      9  N   UNL     1      32.418 -22.560 -15.769  0.00  0.00    -0.276 N 
ATOM     10  N   UNL     1      36.352 -21.644 -18.781  0.00  0.00    -0.229 NA
ATOM     11  C   UNL     1      34.764 -22.216 -16.431  0.00  0.00    +0.114 C 
ATOM     12  C   UNL     1      32.915 -21.780 -18.047  0.00  0.00    +0.114 C 
ATOM     13  C   UNL     1      33.748 -22.177 -15.290  0.00  0.00    +0.115 C 
ATOM     14  C   UNL     1      31.932 -21.744 -16.879  0.00  0.00    +0.115 C 
ATOM     15  C   UNL     1      35.183 -20.967 -18.531  0.00  0.00    +0.132 C 
ATOM     16  C   UNL     1      31.628 -23.581 -15.248  0.00  0.00    +0.226 C 
ATOM     17  C   UNL     1      34.880 -19.777 -19.221  0.00  0.00    +0.034 C 
ATOM     18  C   UNL     1      35.774 -19.285 -20.165  0.00  0.00    +0.004 C 
ATOM     19  C   UNL     1      32.214 -24.371 -14.106  0.00  0.00    +0.095 C 
ATOM     20  C   UNL     1      36.956 -19.972 -20.419  0.00  0.00    +0.021 C 
ATOM     21  C   UNL     1      37.197 -21.135 -19.706  0.00  0.00    +0.100 C 
ENDBRANCH   1  18
BRANCH   4  24
ATOM     22  O   UNL     1      33.650 -17.947 -24.630  0.00  0.00    -0.126 OA
ATOM     23  O   UNL     1      34.915 -16.215 -25.102  0.00  0.00    -0.126 OA
ATOM     24  N   UNL     1      34.442 -17.039 -24.286  0.00  0.00    +0.058 N 
ENDBRANCH   4  24
BRANCH   5  25
ATOM     25  S   UNL     1      34.548 -14.160 -23.089  0.00  0.00    -0.082 S 
BRANCH  25  26
ATOM     26  C   UNL     1      33.572 -13.328 -21.848  0.00  0.00    +0.063 C 
ATOM     27  C   UNL     1      33.167 -12.002 -22.009  0.00  0.00    +0.144 C 
ATOM     28  C   UNL     1      33.214 -14.030 -20.694  0.00  0.00    +0.010 C 
ATOM     29  C   UNL     1      32.405 -11.380 -21.020  0.00  0.00    +0.037 C 
ATOM     30  C   UNL     1      32.453 -13.406 -19.705  0.00  0.00    +0.001 C 
ATOM     31  C   UNL     1      32.048 -12.081 -19.868  0.00  0.00    +0.003 C 
BRANCH  27  32
ATOM     32  O   UNL     1      33.495 -11.286 -23.121  0.00  0.00    -0.475 OA
BRANCH  32  33
ATOM     33  C   UNL     1      33.518  -9.866 -22.995  0.00  0.00    +0.206 C 
ATOM     34  C   UNL     1      34.772  -9.333 -23.653  0.00  0.00    +0.051 C 
ENDBRANCH  32  33
ENDBRANCH  27  32
ENDBRANCH  25  26
ENDBRANCH   5  25
TORSDOF 6
ENDMDL
