MODEL 1
REMARK VINA RESULT:     -11.0      0.000      0.000
REMARK  Name = 10477723
REMARK  8 active torsions:
REMARK  status: ('A' for Active; 'I' for Inactive)
REMARK    1  A    between atoms: C_1  and  C_9
REMARK    2  A    between atoms: C_2  and  N_24
REMARK    3  A    between atoms: N_8  and  C_13
REMARK    4  A    between atoms: C_11  and  C_21
REMARK    5  A    between atoms: C_12  and  C_20
REMARK    6  A    between atoms: C_21  and  C_22
REMARK    7  A    between atoms: N_24  and  C_26
REMARK    8  A    between atoms: C_26  and  C_29
REMARK                            x       y       z     vdW  Elec       q    Type
REMARK                         _______ _______ _______ _____ _____    ______ ____
ROOT
ATOM      1  C   UNL     1      36.648 -23.676 -13.291  0.00  0.00    +0.067 C 
ATOM      2  C   UNL     1      35.654 -23.976 -12.343  0.00  0.00    +0.049 C 
ATOM      3  C   UNL     1      37.990 -23.595 -12.919  0.00  0.00    +0.006 C 
ATOM      4  C   UNL     1      36.047 -24.194 -11.009  0.00  0.00    +0.014 C 
ATOM      5  C   UNL     1      38.360 -23.813 -11.592  0.00  0.00    +0.000 C 
ATOM      6  C   UNL     1      37.388 -24.113 -10.637  0.00  0.00    +0.001 C 
ENDROOT
BRANCH   1   9
ATOM      7  O   UNL     1      35.823 -24.376 -15.351  0.00  0.00    -0.270 OA
ATOM      8  N   UNL     1      36.502 -22.139 -15.156  0.00  0.00    -0.280 N 
ATOM      9  C   UNL     1      36.295 -23.441 -14.686  0.00  0.00    +0.251 C 
ATOM     10  H   UNL     1      36.885 -21.505 -14.508  0.00  0.00    +0.155 HD
BRANCH   8  13
ATOM     11  C   UNL     1      35.708 -20.590 -18.962  0.00  0.00    -0.018 C 
ATOM     12  C   UNL     1      34.670 -21.119 -18.193  0.00  0.00    +0.069 C 
ATOM     13  C   UNL     1      36.232 -21.615 -16.444  0.00  0.00    +0.050 C 
ATOM     14  C   UNL     1      37.009 -20.578 -18.461  0.00  0.00    -0.003 C 
ATOM     15  C   UNL     1      34.935 -21.635 -16.925  0.00  0.00    +0.018 C 
ATOM     16  C   UNL     1      37.274 -21.094 -17.193  0.00  0.00    +0.014 C 
BRANCH  12  20
ATOM     17  F   UNL     1      32.801 -19.912 -19.073  0.00  0.00    -0.166 F 
ATOM     18  F   UNL     1      33.106 -21.928 -19.812  0.00  0.00    -0.166 F 
ATOM     19  F   UNL     1      32.380 -21.615 -17.787  0.00  0.00    -0.166 F 
ATOM     20  C   UNL     1      33.268 -21.143 -18.708  0.00  0.00    +0.418 C 
ENDBRANCH  12  20
BRANCH  11  21
ATOM     21  C   UNL     1      35.448 -20.032 -20.322  0.00  0.00    +0.026 C 
BRANCH  21  22
ATOM     22  C   UNL     1      35.448 -18.497 -20.329  0.00  0.00    +0.005 C 
ATOM     23  C   UNL     1      36.544 -17.935 -21.219  0.00  0.00    +0.000 C 
ENDBRANCH  21  22
ENDBRANCH  11  21
ENDBRANCH   8  13
ENDBRANCH   1   9
BRANCH   2  24
ATOM     24  N   UNL     1      34.312 -24.061 -12.693  0.00  0.00    -0.329 N 
ATOM     25  H   UNL     1      33.959 -24.939 -12.964  0.00  0.00    +0.147 HD
BRANCH  24  26
ATOM     26  C   UNL     1      33.408 -22.945 -12.683  0.00  0.00    +0.116 C 
BRANCH  26  29
ATOM     27  O   UNL     1      28.802 -24.192 -15.531  0.00  0.00    -0.270 OA
ATOM     28  N   UNL     1      30.279 -24.692 -13.826  0.00  0.00    -0.280 N 
ATOM     29  C   UNL     1      32.162 -23.319 -13.420  0.00  0.00    +0.012 C 
ATOM     30  C   UNL     1      31.416 -24.392 -13.116  0.00  0.00    +0.061 C 
ATOM     31  C   UNL     1      31.745 -22.472 -14.520  0.00  0.00    +0.003 C 
ATOM     32  C   UNL     1      30.642 -22.740 -15.231  0.00  0.00    +0.058 C 
ATOM     33  C   UNL     1      29.816 -23.934 -14.888  0.00  0.00    +0.250 C 
ATOM     34  H   UNL     1      29.764 -25.489 -13.564  0.00  0.00    +0.155 HD
ENDBRANCH  26  29
ENDBRANCH  24  26
ENDBRANCH   2  24
TORSDOF 8
ENDMDL
MODEL 2
REMARK VINA RESULT:     -11.0      2.406      5.259
REMARK  Name = 10477723
REMARK  8 active torsions:
REMARK  status: ('A' for Active; 'I' for Inactive)
REMARK    1  A    between atoms: C_1  and  C_9
REMARK    2  A    between atoms: C_2  and  N_24
REMARK    3  A    between atoms: N_8  and  C_13
REMARK    4  A    between atoms: C_11  and  C_21
REMARK    5  A    between atoms: C_12  and  C_20
REMARK    6  A    between atoms: C_21  and  C_22
REMARK    7  A    between atoms: N_24  and  C_26
REMARK    8  A    between atoms: C_26  and  C_29
REMARK                            x       y       z     vdW  Elec       q    Type
REMARK                         _______ _______ _______ _____ _____    ______ ____
ROOT
ATOM      1  C   UNL     1      32.435 -23.166 -15.384  0.00  0.00    +0.067 C 
ATOM      2  C   UNL     1      32.879 -23.376 -14.066  0.00  0.00    +0.049 C 
ATOM      3  C   UNL     1      31.127 -23.477 -15.755  0.00  0.00    +0.006 C 
ATOM      4  C   UNL     1      31.971 -23.906 -13.131  0.00  0.00    +0.014 C 
ATOM      5  C   UNL     1      30.242 -24.003 -14.814  0.00  0.00    +0.000 C 
ATOM      6  C   UNL     1      30.664 -24.217 -13.501  0.00  0.00    +0.001 C 
ENDROOT
BRANCH   1   9
ATOM      7  O   UNL     1      34.499 -23.046 -16.451  0.00  0.00    -0.270 OA
ATOM      8  N   UNL     1      32.784 -21.654 -17.242  0.00  0.00    -0.280 N 
ATOM      9  C   UNL     1      33.335 -22.620 -16.391  0.00  0.00    +0.251 C 
ATOM     10  H   UNL     1      31.844 -21.418 -17.070  0.00  0.00    +0.155 HD
BRANCH   8  13
ATOM     11  C   UNL     1      34.611 -19.639 -20.422  0.00  0.00    -0.018 C 
ATOM     12  C   UNL     1      35.392 -20.206 -19.414  0.00  0.00    +0.069 C 
ATOM     13  C   UNL     1      33.403 -20.972 -18.318  0.00  0.00    +0.050 C 
ATOM     14  C   UNL     1      33.221 -19.744 -20.369  0.00  0.00    -0.003 C 
ATOM     15  C   UNL     1      34.783 -20.877 -18.355  0.00  0.00    +0.018 C 
ATOM     16  C   UNL     1      32.613 -20.416 -19.309  0.00  0.00    +0.014 C 
BRANCH  12  20
ATOM     17  F   UNL     1      37.337 -18.923 -19.960  0.00  0.00    -0.166 F 
ATOM     18  F   UNL     1      37.465 -20.212 -18.221  0.00  0.00    -0.166 F 
ATOM     19  F   UNL     1      37.454 -21.080 -20.214  0.00  0.00    -0.166 F 
ATOM     20  C   UNL     1      36.882 -20.106 -19.450  0.00  0.00    +0.418 C 
ENDBRANCH  12  20
BRANCH  11  21
ATOM     21  C   UNL     1      35.241 -18.916 -21.567  0.00  0.00    +0.026 C 
BRANCH  21  22
ATOM     22  C   UNL     1      35.054 -17.395 -21.465  0.00  0.00    +0.005 C 
ATOM     23  C   UNL     1      35.313 -16.702 -22.793  0.00  0.00    +0.000 C 
ENDBRANCH  21  22
ENDBRANCH  11  21
ENDBRANCH   8  13
ENDBRANCH   1   9
BRANCH   2  24
ATOM     24  N   UNL     1      34.178 -23.073 -13.676  0.00  0.00    -0.329 N 
ATOM     25  H   UNL     1      34.685 -22.426 -14.218  0.00  0.00    +0.147 HD
BRANCH  24  26
ATOM     26  C   UNL     1      34.827 -23.646 -12.529  0.00  0.00    +0.116 C 
BRANCH  26  29
ATOM     27  O   UNL     1      39.499 -26.268 -14.004  0.00  0.00    -0.270 OA
ATOM     28  N   UNL     1      37.452 -25.374 -14.595  0.00  0.00    -0.280 N 
ATOM     29  C   UNL     1      36.068 -24.353 -12.972  0.00  0.00    +0.012 C 
ATOM     30  C   UNL     1      36.294 -24.727 -14.240  0.00  0.00    +0.061 C 
ATOM     31  C   UNL     1      37.075 -24.644 -11.971  0.00  0.00    +0.003 C 
ATOM     32  C   UNL     1      38.214 -25.274 -12.287  0.00  0.00    +0.058 C 
ATOM     33  C   UNL     1      38.460 -25.688 -13.699  0.00  0.00    +0.250 C 
ATOM     34  H   UNL     1      37.572 -25.628 -15.539  0.00  0.00    +0.155 HD
ENDBRANCH  26  29
ENDBRANCH  24  26
ENDBRANCH   2  24
TORSDOF 8
ENDMDL
MODEL 3
REMARK VINA RESULT:     -10.9      6.788     11.197
REMARK  Name = 10477723
REMARK  8 active torsions:
REMARK  status: ('A' for Active; 'I' for Inactive)
REMARK    1  A    between atoms: C_1  and  C_9
REMARK    2  A    between atoms: C_2  and  N_24
REMARK    3  A    between atoms: N_8  and  C_13
REMARK    4  A    between atoms: C_11  and  C_21
REMARK    5  A    between atoms: C_12  and  C_20
REMARK    6  A    between atoms: C_21  and  C_22
REMARK    7  A    between atoms: N_24  and  C_26
REMARK    8  A    between atoms: C_26  and  C_29
REMARK                            x       y       z     vdW  Elec       q    Type
REMARK                         _______ _______ _______ _____ _____    ______ ____
ROOT
ATOM      1  C   UNL     1      34.538 -14.976 -22.795  0.00  0.00    +0.067 C 
ATOM      2  C   UNL     1      33.865 -13.761 -22.568  0.00  0.00    +0.049 C 
ATOM      3  C   UNL     1      34.764 -15.436 -24.093  0.00  0.00    +0.006 C 
ATOM      4  C   UNL     1      33.427 -13.022 -23.682  0.00  0.00    +0.014 C 
ATOM      5  C   UNL     1      34.321 -14.689 -25.184  0.00  0.00    +0.000 C 
ATOM      6  C   UNL     1      33.653 -13.482 -24.979  0.00  0.00    +0.001 C 
ENDROOT
BRANCH   1   9
ATOM      7  O   UNL     1      35.299 -15.215 -20.610  0.00  0.00    -0.270 OA
ATOM      8  N   UNL     1      35.081 -17.160 -21.904  0.00  0.00    -0.280 N 
ATOM      9  C   UNL     1      35.013 -15.780 -21.676  0.00  0.00    +0.251 C 
ATOM     10  H   UNL     1      34.821 -17.459 -22.805  0.00  0.00    +0.155 HD
BRANCH   8  13
ATOM     11  C   UNL     1      36.253 -20.177 -19.251  0.00  0.00    -0.018 C 
ATOM     12  C   UNL     1      34.925 -20.096 -19.673  0.00  0.00    +0.069 C 
ATOM     13  C   UNL     1      35.477 -18.182 -21.006  0.00  0.00    +0.050 C 
ATOM     14  C   UNL     1      37.189 -19.252 -19.713  0.00  0.00    -0.003 C 
ATOM     15  C   UNL     1      34.535 -19.090 -20.557  0.00  0.00    +0.018 C 
ATOM     16  C   UNL     1      36.798 -18.247 -20.597  0.00  0.00    +0.014 C 
BRANCH  12  20
ATOM     17  F   UNL     1      34.290 -22.377 -19.334  0.00  0.00    -0.166 F 
ATOM     18  F   UNL     1      33.599 -20.936 -17.868  0.00  0.00    -0.166 F 
ATOM     19  F   UNL     1      32.720 -20.966 -19.856  0.00  0.00    -0.166 F 
ATOM     20  C   UNL     1      33.905 -21.075 -19.191  0.00  0.00    +0.418 C 
ENDBRANCH  12  20
BRANCH  11  21
ATOM     21  C   UNL     1      36.694 -21.245 -18.305  0.00  0.00    +0.026 C 
BRANCH  21  22
ATOM     22  C   UNL     1      37.095 -20.677 -16.936  0.00  0.00    +0.005 C 
ATOM     23  C   UNL     1      36.821 -21.662 -15.811  0.00  0.00    +0.000 C 
ENDBRANCH  21  22
ENDBRANCH  11  21
ENDBRANCH   8  13
ENDBRANCH   1   9
BRANCH   2  24
ATOM     24  N   UNL     1      33.630 -13.286 -21.284  0.00  0.00    -0.329 N 
ATOM     25  H   UNL     1      34.408 -13.089 -20.714  0.00  0.00    +0.147 HD
BRANCH  24  26
ATOM     26  C   UNL     1      32.320 -13.061 -20.738  0.00  0.00    +0.116 C 
BRANCH  26  29
ATOM     27  O   UNL     1      31.893  -7.825 -18.926  0.00  0.00    -0.270 OA
ATOM     28  N   UNL     1      32.231  -9.302 -20.671  0.00  0.00    -0.280 N 
ATOM     29  C   UNL     1      32.212 -11.637 -20.297  0.00  0.00    +0.012 C 
ATOM     30  C   UNL     1      32.339 -10.592 -21.129  0.00  0.00    +0.061 C 
ATOM     31  C   UNL     1      31.958 -11.381 -18.893  0.00  0.00    +0.003 C 
ATOM     32  C   UNL     1      31.848 -10.133 -18.418  0.00  0.00    +0.058 C 
ATOM     33  C   UNL     1      31.990  -8.976 -19.347  0.00  0.00    +0.250 C 
ATOM     34  H   UNL     1      32.331  -8.568 -21.321  0.00  0.00    +0.155 HD
ENDBRANCH  26  29
ENDBRANCH  24  26
ENDBRANCH   2  24
TORSDOF 8
ENDMDL
MODEL 4
REMARK VINA RESULT:     -10.7      5.493     10.186
REMARK  Name = 10477723
REMARK  8 active torsions:
REMARK  status: ('A' for Active; 'I' for Inactive)
REMARK    1  A    between atoms: C_1  and  C_9
REMARK    2  A    between atoms: C_2  and  N_24
REMARK    3  A    between atoms: N_8  and  C_13
REMARK    4  A    between atoms: C_11  and  C_21
REMARK    5  A    between atoms: C_12  and  C_20
REMARK    6  A    between atoms: C_21  and  C_22
REMARK    7  A    between atoms: N_24  and  C_26
REMARK    8  A    between atoms: C_26  and  C_29
REMARK                            x       y       z     vdW  Elec       q    Type
REMARK                         _______ _______ _______ _____ _____    ______ ____
ROOT
ATOM      1  C   UNL     1      35.010 -17.622 -22.841  0.00  0.00    +0.067 C 
ATOM      2  C   UNL     1      34.991 -16.224 -22.997  0.00  0.00    +0.049 C 
ATOM      3  C   UNL     1      34.427 -18.455 -23.796  0.00  0.00    +0.006 C 
ATOM      4  C   UNL     1      34.371 -15.688 -24.140  0.00  0.00    +0.014 C 
ATOM      5  C   UNL     1      33.815 -17.904 -24.921  0.00  0.00    +0.000 C 
ATOM      6  C   UNL     1      33.788 -16.520 -25.094  0.00  0.00    +0.001 C 
ENDROOT
BRANCH   1   9
ATOM      7  O   UNL     1      36.779 -17.862 -21.348  0.00  0.00    -0.270 OA
ATOM      8  N   UNL     1      34.871 -19.181 -20.994  0.00  0.00    -0.280 N 
ATOM      9  C   UNL     1      35.639 -18.229 -21.675  0.00  0.00    +0.251 C 
ATOM     10  H   UNL     1      33.983 -19.367 -21.375  0.00  0.00    +0.155 HD
BRANCH   8  13
ATOM     11  C   UNL     1      35.862 -21.336 -17.546  0.00  0.00    -0.018 C 
ATOM     12  C   UNL     1      34.549 -21.342 -18.020  0.00  0.00    +0.069 C 
ATOM     13  C   UNL     1      35.205 -19.911 -19.827  0.00  0.00    +0.050 C 
ATOM     14  C   UNL     1      36.843 -20.611 -18.222  0.00  0.00    -0.003 C 
ATOM     15  C   UNL     1      34.219 -20.624 -19.169  0.00  0.00    +0.018 C 
ATOM     16  C   UNL     1      36.513 -19.893 -19.371  0.00  0.00    +0.014 C 
BRANCH  12  20
ATOM     17  F   UNL     1      33.594 -22.075 -15.952  0.00  0.00    -0.166 F 
ATOM     18  F   UNL     1      32.220 -21.663 -17.579  0.00  0.00    -0.166 F 
ATOM     19  F   UNL     1      33.480 -23.434 -17.647  0.00  0.00    -0.166 F 
ATOM     20  C   UNL     1      33.481 -22.111 -17.312  0.00  0.00    +0.418 C 
ENDBRANCH  12  20
BRANCH  11  21
ATOM     21  C   UNL     1      36.238 -22.098 -16.318  0.00  0.00    +0.026 C 
BRANCH  21  22
ATOM     22  C   UNL     1      37.653 -21.753 -15.833  0.00  0.00    +0.005 C 
ATOM     23  C   UNL     1      38.134 -22.714 -14.759  0.00  0.00    +0.000 C 
ENDBRANCH  21  22
ENDBRANCH  11  21
ENDBRANCH   8  13
ENDBRANCH   1   9
BRANCH   2  24
ATOM     24  N   UNL     1      35.566 -15.377 -22.058  0.00  0.00    -0.329 N 
ATOM     25  H   UNL     1      36.465 -15.022 -22.244  0.00  0.00    +0.147 HD
BRANCH  24  26
ATOM     26  C   UNL     1      34.927 -14.986 -20.832  0.00  0.00    +0.116 C 
BRANCH  26  29
ATOM     27  O   UNL     1      31.781 -10.471 -21.605  0.00  0.00    -0.270 OA
ATOM     28  N   UNL     1      33.590 -11.762 -22.235  0.00  0.00    -0.280 N 
ATOM     29  C   UNL     1      34.109 -13.758 -21.077  0.00  0.00    +0.012 C 
ATOM     30  C   UNL     1      34.374 -12.875 -22.052  0.00  0.00    +0.061 C 
ATOM     31  C   UNL     1      32.971 -13.518 -20.212  0.00  0.00    +0.003 C 
ATOM     32  C   UNL     1      32.189 -12.442 -20.367  0.00  0.00    +0.058 C 
ATOM     33  C   UNL     1      32.489 -11.463 -21.451  0.00  0.00    +0.250 C 
ATOM     34  H   UNL     1      33.825 -11.143 -22.964  0.00  0.00    +0.155 HD
ENDBRANCH  26  29
ENDBRANCH  24  26
ENDBRANCH   2  24
TORSDOF 8
ENDMDL
MODEL 5
REMARK VINA RESULT:     -10.3      9.571     14.161
REMARK  Name = 10477723
REMARK  8 active torsions:
REMARK  status: ('A' for Active; 'I' for Inactive)
REMARK    1  A    between atoms: C_1  and  C_9
REMARK    2  A    between atoms: C_2  and  N_24
REMARK    3  A    between atoms: N_8  and  C_13
REMARK    4  A    between atoms: C_11  and  C_21
REMARK    5  A    between atoms: C_12  and  C_20
REMARK    6  A    between atoms: C_21  and  C_22
REMARK    7  A    between atoms: N_24  and  C_26
REMARK    8  A    between atoms: C_26  and  C_29
REMARK                            x       y       z     vdW  Elec       q    Type
REMARK                         _______ _______ _______ _____ _____    ______ ____
ROOT
ATOM      1  C   UNL     1      34.414 -10.415 -23.768  0.00  0.00    +0.067 C 
ATOM      2  C   UNL     1      33.671  -9.426 -23.098  0.00  0.00    +0.049 C 
ATOM      3  C   UNL     1      35.370 -10.067 -24.722  0.00  0.00    +0.006 C 
ATOM      4  C   UNL     1      33.919  -8.077 -23.413  0.00  0.00    +0.014 C 
ATOM      5  C   UNL     1      35.600  -8.724 -25.021  0.00  0.00    +0.000 C 
ATOM      6  C   UNL     1      34.875  -7.729 -24.366  0.00  0.00    +0.001 C 
ENDROOT
BRANCH   1   9
ATOM      7  O   UNL     1      33.395 -12.466 -24.178  0.00  0.00    -0.270 OA
ATOM      8  N   UNL     1      34.953 -12.357 -22.427  0.00  0.00    -0.280 N 
ATOM      9  C   UNL     1      34.197 -11.827 -23.480  0.00  0.00    +0.251 C 
ATOM     10  H   UNL     1      35.548 -11.724 -21.965  0.00  0.00    +0.155 HD
BRANCH   8  13
ATOM     11  C   UNL     1      35.010 -16.286 -20.986  0.00  0.00    -0.018 C 
ATOM     12  C   UNL     1      35.049 -16.046 -22.360  0.00  0.00    +0.069 C 
ATOM     13  C   UNL     1      34.972 -13.687 -21.940  0.00  0.00    +0.050 C 
ATOM     14  C   UNL     1      34.950 -15.216 -20.093  0.00  0.00    -0.003 C 
ATOM     15  C   UNL     1      35.031 -14.737 -22.840  0.00  0.00    +0.018 C 
ATOM     16  C   UNL     1      34.931 -13.907 -20.573  0.00  0.00    +0.014 C 
BRANCH  12  20
ATOM     17  F   UNL     1      36.268 -17.900 -23.255  0.00  0.00    -0.166 F 
ATOM     18  F   UNL     1      34.108 -18.087 -23.179  0.00  0.00    -0.166 F 
ATOM     19  F   UNL     1      35.031 -16.755 -24.630  0.00  0.00    -0.166 F 
ATOM     20  C   UNL     1      35.113 -17.176 -23.335  0.00  0.00    +0.418 C 
ENDBRANCH  12  20
BRANCH  11  21
ATOM     21  C   UNL     1      35.029 -17.679 -20.449  0.00  0.00    +0.026 C 
BRANCH  21  22
ATOM     22  C   UNL     1      36.458 -18.195 -20.226  0.00  0.00    +0.005 C 
ATOM     23  C   UNL     1      36.475 -19.657 -19.812  0.00  0.00    +0.000 C 
ENDBRANCH  21  22
ENDBRANCH  11  21
ENDBRANCH   8  13
ENDBRANCH   1   9
BRANCH   2  24
ATOM     24  N   UNL     1      32.714  -9.751 -22.145  0.00  0.00    -0.329 N 
ATOM     25  H   UNL     1      32.834 -10.584 -21.634  0.00  0.00    +0.147 HD
BRANCH  24  26
ATOM     26  C   UNL     1      31.560  -8.945 -21.859  0.00  0.00    +0.116 C 
BRANCH  26  29
ATOM     27  O   UNL     1      32.782  -5.196 -17.943  0.00  0.00    -0.270 OA
ATOM     28  N   UNL     1      32.613  -7.407 -18.592  0.00  0.00    -0.280 N 
ATOM     29  C   UNL     1      31.900  -7.973 -20.775  0.00  0.00    +0.012 C 
ATOM     30  C   UNL     1      32.313  -8.342 -19.553  0.00  0.00    +0.061 C 
ATOM     31  C   UNL     1      31.773  -6.560 -21.069  0.00  0.00    +0.003 C 
ATOM     32  C   UNL     1      32.058  -5.626 -20.152  0.00  0.00    +0.058 C 
ATOM     33  C   UNL     1      32.517  -6.041 -18.795  0.00  0.00    +0.250 C 
ATOM     34  H   UNL     1      32.914  -7.727 -17.711  0.00  0.00    +0.155 HD
ENDBRANCH  26  29
ENDBRANCH  24  26
ENDBRANCH   2  24
TORSDOF 8
ENDMDL
MODEL 6
REMARK VINA RESULT:     -10.1      7.597     11.834
REMARK  Name = 10477723
REMARK  8 active torsions:
REMARK  status: ('A' for Active; 'I' for Inactive)
REMARK    1  A    between atoms: C_1  and  C_9
REMARK    2  A    between atoms: C_2  and  N_24
REMARK    3  A    between atoms: N_8  and  C_13
REMARK    4  A    between atoms: C_11  and  C_21
REMARK    5  A    between atoms: C_12  and  C_20
REMARK    6  A    between atoms: C_21  and  C_22
REMARK    7  A    between atoms: N_24  and  C_26
REMARK    8  A    between atoms: C_26  and  C_29
REMARK                            x       y       z     vdW  Elec       q    Type
REMARK                         _______ _______ _______ _____ _____    ______ ____
ROOT
ATOM      1  C   UNL     1      34.208 -14.984 -23.410  0.00  0.00    +0.067 C 
ATOM      2  C   UNL     1      34.748 -16.191 -22.930  0.00  0.00    +0.049 C 
ATOM      3  C   UNL     1      33.623 -14.916 -24.675  0.00  0.00    +0.006 C 
ATOM      4  C   UNL     1      34.683 -17.328 -23.757  0.00  0.00    +0.014 C 
ATOM      5  C   UNL     1      33.569 -16.053 -25.480  0.00  0.00    +0.000 C 
ATOM      6  C   UNL     1      34.099 -17.260 -25.021  0.00  0.00    +0.001 C 
ENDROOT
BRANCH   1   9
ATOM      7  O   UNL     1      35.277 -13.527 -21.945  0.00  0.00    -0.270 OA
ATOM      8  N   UNL     1      33.105 -12.973 -22.637  0.00  0.00    -0.280 N 
ATOM      9  C   UNL     1      34.250 -13.778 -22.594  0.00  0.00    +0.251 C 
ATOM     10  H   UNL     1      32.368 -13.305 -23.199  0.00  0.00    +0.155 HD
BRANCH   8  13
ATOM     11  C   UNL     1      32.406  -9.337 -20.686  0.00  0.00    -0.018 C 
ATOM     12  C   UNL     1      32.141 -10.541 -20.033  0.00  0.00    +0.069 C 
ATOM     13  C   UNL     1      32.868 -11.743 -21.975  0.00  0.00    +0.050 C 
ATOM     14  C   UNL     1      32.903  -9.345 -21.989  0.00  0.00    -0.003 C 
ATOM     15  C   UNL     1      32.374 -11.753 -20.683  0.00  0.00    +0.018 C 
ATOM     16  C   UNL     1      33.136 -10.557 -22.639  0.00  0.00    +0.014 C 
BRANCH  12  20
ATOM     17  F   UNL     1      32.318  -9.771 -17.774  0.00  0.00    -0.166 F 
ATOM     18  F   UNL     1      30.319 -10.120 -18.542  0.00  0.00    -0.166 F 
ATOM     19  F   UNL     1      31.615 -11.806 -18.089  0.00  0.00    -0.166 F 
ATOM     20  C   UNL     1      31.608 -10.557 -18.637  0.00  0.00    +0.418 C 
ENDBRANCH  12  20
BRANCH  11  21
ATOM     21  C   UNL     1      32.165  -8.028 -20.009  0.00  0.00    +0.026 C 
BRANCH  21  22
ATOM     22  C   UNL     1      33.066  -6.915 -20.562  0.00  0.00    +0.005 C 
ATOM     23  C   UNL     1      32.443  -5.540 -20.384  0.00  0.00    +0.000 C 
ENDBRANCH  21  22
ENDBRANCH  11  21
ENDBRANCH   8  13
ENDBRANCH   1   9
BRANCH   2  24
ATOM     24  N   UNL     1      35.335 -16.280 -21.674  0.00  0.00    -0.329 N 
ATOM     25  H   UNL     1      34.932 -15.767 -20.937  0.00  0.00    +0.147 HD
BRANCH  24  26
ATOM     26  C   UNL     1      36.496 -17.077 -21.385  0.00  0.00    +0.116 C 
BRANCH  26  29
ATOM     27  O   UNL     1      34.789 -21.478 -18.452  0.00  0.00    -0.270 OA
ATOM     28  N   UNL     1      36.500 -20.069 -19.105  0.00  0.00    -0.280 N 
ATOM     29  C   UNL     1      36.082 -18.267 -20.579  0.00  0.00    +0.012 C 
ATOM     30  C   UNL     1      36.931 -18.983 -19.827  0.00  0.00    +0.061 C 
ATOM     31  C   UNL     1      34.688 -18.661 -20.620  0.00  0.00    +0.003 C 
ATOM     32  C   UNL     1      34.238 -19.715 -19.928  0.00  0.00    +0.058 C 
ATOM     33  C   UNL     1      35.186 -20.508 -19.093  0.00  0.00    +0.250 C 
ATOM     34  H   UNL     1      37.161 -20.562 -18.567  0.00  0.00    +0.155 HD
ENDBRANCH  26  29
ENDBRANCH  24  26
ENDBRANCH   2  24
TORSDOF 8
ENDMDL
MODEL 7
REMARK VINA RESULT:     -10.1      2.831      7.388
REMARK  Name = 10477723
REMARK  8 active torsions:
REMARK  status: ('A' for Active; 'I' for Inactive)
REMARK    1  A    between atoms: C_1  and  C_9
REMARK    2  A    between atoms: C_2  and  N_24
REMARK    3  A    between atoms: N_8  and  C_13
REMARK    4  A    between atoms: C_11  and  C_21
REMARK    5  A    between atoms: C_12  and  C_20
REMARK    6  A    between atoms: C_21  and  C_22
REMARK    7  A    between atoms: N_24  and  C_26
REMARK    8  A    between atoms: C_26  and  C_29
REMARK                            x       y       z     vdW  Elec       q    Type
REMARK                         _______ _______ _______ _____ _____    ______ ____
ROOT
ATOM      1  C   UNL     1      34.728 -20.696 -19.284  0.00  0.00    +0.067 C 
ATOM      2  C   UNL     1      36.077 -20.434 -18.986  0.00  0.00    +0.049 C 
ATOM      3  C   UNL     1      34.052 -19.952 -20.251  0.00  0.00    +0.006 C 
ATOM      4  C   UNL     1      36.728 -19.403 -19.688  0.00  0.00    +0.014 C 
ATOM      5  C   UNL     1      34.714 -18.934 -20.936  0.00  0.00    +0.000 C 
ATOM      6  C   UNL     1      36.053 -18.660 -20.655  0.00  0.00    +0.001 C 
ENDROOT
BRANCH   1   9
ATOM      7  O   UNL     1      34.165 -22.929 -18.948  0.00  0.00    -0.270 OA
ATOM      8  N   UNL     1      33.196 -21.337 -17.522  0.00  0.00    -0.280 N 
ATOM      9  C   UNL     1      34.007 -21.753 -18.585  0.00  0.00    +0.251 C 
ATOM     10  H   UNL     1      33.172 -20.367 -17.355  0.00  0.00    +0.155 HD
BRANCH   8  13
ATOM     11  C   UNL     1      30.862 -23.683 -14.959  0.00  0.00    -0.018 C 
ATOM     12  C   UNL     1      30.249 -22.801 -15.850  0.00  0.00    +0.069 C 
ATOM     13  C   UNL     1      32.405 -22.131 -16.655  0.00  0.00    +0.050 C 
ATOM     14  C   UNL     1      32.253 -23.782 -14.924  0.00  0.00    -0.003 C 
ATOM     15  C   UNL     1      31.027 -22.019 -16.704  0.00  0.00    +0.018 C 
ATOM     16  C   UNL     1      33.031 -23.000 -15.778  0.00  0.00    +0.014 C 
BRANCH  12  20
ATOM     17  F   UNL     1      28.187 -22.456 -14.687  0.00  0.00    -0.166 F 
ATOM     18  F   UNL     1      28.330 -21.652 -16.696  0.00  0.00    -0.166 F 
ATOM     19  F   UNL     1      28.162 -23.799 -16.398  0.00  0.00    -0.166 F 
ATOM     20  C   UNL     1      28.762 -22.677 -15.906  0.00  0.00    +0.418 C 
ENDBRANCH  12  20
BRANCH  11  21
ATOM     21  C   UNL     1      30.050 -24.530 -14.036  0.00  0.00    +0.026 C 
BRANCH  21  22
ATOM     22  C   UNL     1      30.594 -24.508 -12.601  0.00  0.00    +0.005 C 
ATOM     23  C   UNL     1      30.729 -23.092 -12.067  0.00  0.00    +0.000 C 
ENDBRANCH  21  22
ENDBRANCH  11  21
ENDBRANCH   8  13
ENDBRANCH   1   9
BRANCH   2  24
ATOM     24  N   UNL     1      36.768 -21.163 -18.026  0.00  0.00    -0.329 N 
ATOM     25  H   UNL     1      36.973 -22.106 -18.220  0.00  0.00    +0.147 HD
BRANCH  24  26
ATOM     26  C   UNL     1      37.203 -20.624 -16.767  0.00  0.00    +0.116 C 
BRANCH  26  29
ATOM     27  O   UNL     1      37.328 -24.696 -12.988  0.00  0.00    -0.270 OA
ATOM     28  N   UNL     1      38.391 -23.501 -14.656  0.00  0.00    -0.280 N 
ATOM     29  C   UNL     1      37.283 -21.730 -15.764  0.00  0.00    +0.012 C 
ATOM     30  C   UNL     1      38.369 -22.497 -15.593  0.00  0.00    +0.061 C 
ATOM     31  C   UNL     1      36.119 -21.978 -14.936  0.00  0.00    +0.003 C 
ATOM     32  C   UNL     1      36.110 -22.950 -14.014  0.00  0.00    +0.058 C 
ATOM     33  C   UNL     1      37.321 -23.800 -13.829  0.00  0.00    +0.250 C 
ATOM     34  H   UNL     1      39.212 -24.037 -14.567  0.00  0.00    +0.155 HD
ENDBRANCH  26  29
ENDBRANCH  24  26
ENDBRANCH   2  24
TORSDOF 8
ENDMDL
MODEL 8
REMARK VINA RESULT:     -10.1      7.765     12.005
REMARK  Name = 10477723
REMARK  8 active torsions:
REMARK  status: ('A' for Active; 'I' for Inactive)
REMARK    1  A    between atoms: C_1  and  C_9
REMARK    2  A    between atoms: C_2  and  N_24
REMARK    3  A    between atoms: N_8  and  C_13
REMARK    4  A    between atoms: C_11  and  C_21
REMARK    5  A    between atoms: C_12  and  C_20
REMARK    6  A    between atoms: C_21  and  C_22
REMARK    7  A    between atoms: N_24  and  C_26
REMARK    8  A    between atoms: C_26  and  C_29
REMARK                            x       y       z     vdW  Elec       q    Type
REMARK                         _______ _______ _______ _____ _____    ______ ____
ROOT
ATOM      1  C   UNL     1      34.368 -15.897 -23.786  0.00  0.00    +0.067 C 
ATOM      2  C   UNL     1      35.034 -16.990 -23.203  0.00  0.00    +0.049 C 
ATOM      3  C   UNL     1      33.477 -16.084 -24.843  0.00  0.00    +0.006 C 
ATOM      4  C   UNL     1      34.778 -18.277 -23.712  0.00  0.00    +0.014 C 
ATOM      5  C   UNL     1      33.237 -17.367 -25.335  0.00  0.00    +0.000 C 
ATOM      6  C   UNL     1      33.887 -18.464 -24.769  0.00  0.00    +0.001 C 
ENDROOT
BRANCH   1   9
ATOM      7  O   UNL     1      35.709 -14.255 -22.828  0.00  0.00    -0.270 OA
ATOM      8  N   UNL     1      33.521 -13.657 -23.428  0.00  0.00    -0.280 N 
ATOM      9  C   UNL     1      34.597 -14.544 -23.297  0.00  0.00    +0.251 C 
ATOM     10  H   UNL     1      32.701 -14.034 -23.821  0.00  0.00    +0.155 HD
BRANCH   8  13
ATOM     11  C   UNL     1      33.335  -9.614 -22.363  0.00  0.00    -0.018 C 
ATOM     12  C   UNL     1      34.188 -10.028 -23.386  0.00  0.00    +0.069 C 
ATOM     13  C   UNL     1      33.458 -12.289 -23.068  0.00  0.00    +0.050 C 
ATOM     14  C   UNL     1      32.545 -10.549 -21.694  0.00  0.00    -0.003 C 
ATOM     15  C   UNL     1      34.250 -11.375 -23.742  0.00  0.00    +0.018 C 
ATOM     16  C   UNL     1      32.606 -11.897 -22.050  0.00  0.00    +0.014 C 
BRANCH  12  20
ATOM     17  F   UNL     1      34.356  -7.958 -24.574  0.00  0.00    -0.166 F 
ATOM     18  F   UNL     1      36.056  -8.534 -23.356  0.00  0.00    -0.166 F 
ATOM     19  F   UNL     1      35.646  -9.588 -25.213  0.00  0.00    -0.166 F 
ATOM     20  C   UNL     1      35.044  -9.045 -24.116  0.00  0.00    +0.418 C 
ENDBRANCH  12  20
BRANCH  11  21
ATOM     21  C   UNL     1      33.252  -8.177 -21.966  0.00  0.00    +0.026 C 
BRANCH  21  22
ATOM     22  C   UNL     1      32.513  -7.986 -20.634  0.00  0.00    +0.005 C 
ATOM     23  C   UNL     1      33.211  -6.974 -19.740  0.00  0.00    +0.000 C 
ENDBRANCH  21  22
ENDBRANCH  11  21
ENDBRANCH   8  13
ENDBRANCH   1   9
BRANCH   2  24
ATOM     24  N   UNL     1      35.925 -16.826 -22.151  0.00  0.00    -0.329 N 
ATOM     25  H   UNL     1      36.875 -16.687 -22.366  0.00  0.00    +0.147 HD
BRANCH  24  26
ATOM     26  C   UNL     1      35.543 -16.845 -20.765  0.00  0.00    +0.116 C 
BRANCH  26  29
ATOM     27  O   UNL     1      35.248 -22.105 -18.997  0.00  0.00    -0.270 OA
ATOM     28  N   UNL     1      36.532 -20.271 -19.567  0.00  0.00    -0.280 N 
ATOM     29  C   UNL     1      35.513 -18.261 -20.287  0.00  0.00    +0.012 C 
ATOM     30  C   UNL     1      36.615 -18.971 -20.004  0.00  0.00    +0.061 C 
ATOM     31  C   UNL     1      34.219 -18.892 -20.122  0.00  0.00    +0.003 C 
ATOM     32  C   UNL     1      34.106 -20.158 -19.698  0.00  0.00    +0.058 C 
ATOM     33  C   UNL     1      35.335 -20.943 -19.386  0.00  0.00    +0.250 C 
ATOM     34  H   UNL     1      37.369 -20.750 -19.372  0.00  0.00    +0.155 HD
ENDBRANCH  26  29
ENDBRANCH  24  26
ENDBRANCH   2  24
TORSDOF 8
ENDMDL
MODEL 9
REMARK VINA RESULT:     -10.0      8.828     13.450
REMARK  Name = 10477723
REMARK  8 active torsions:
REMARK  status: ('A' for Active; 'I' for Inactive)
REMARK    1  A    between atoms: C_1  and  C_9
REMARK    2  A    between atoms: C_2  and  N_24
REMARK    3  A    between atoms: N_8  and  C_13
REMARK    4  A    between atoms: C_11  and  C_21
REMARK    5  A    between atoms: C_12  and  C_20
REMARK    6  A    between atoms: C_21  and  C_22
REMARK    7  A    between atoms: N_24  and  C_26
REMARK    8  A    between atoms: C_26  and  C_29
REMARK                            x       y       z     vdW  Elec       q    Type
REMARK                         _______ _______ _______ _____ _____    ______ ____
ROOT
ATOM      1  C   UNL     1      34.464 -10.177 -23.941  0.00  0.00    +0.067 C 
ATOM      2  C   UNL     1      33.593  -9.218 -23.393  0.00  0.00    +0.049 C 
ATOM      3  C   UNL     1      35.531  -9.792 -24.754  0.00  0.00    +0.006 C 
ATOM      4  C   UNL     1      33.825  -7.862 -23.684  0.00  0.00    +0.014 C 
ATOM      5  C   UNL     1      35.744  -8.442 -25.031  0.00  0.00    +0.000 C 
ATOM      6  C   UNL     1      34.891  -7.477 -24.495  0.00  0.00    +0.001 C 
ENDROOT
BRANCH   1   9
ATOM      7  O   UNL     1      33.581 -12.267 -24.458  0.00  0.00    -0.270 OA
ATOM      8  N   UNL     1      34.910 -12.095 -22.532  0.00  0.00    -0.280 N 
ATOM      9  C   UNL     1      34.267 -11.596 -23.672  0.00  0.00    +0.251 C 
ATOM     10  H   UNL     1      35.420 -11.438 -22.006  0.00  0.00    +0.155 HD
BRANCH   8  13
ATOM     11  C   UNL     1      34.943 -16.016 -21.069  0.00  0.00    -0.018 C 
ATOM     12  C   UNL     1      35.013 -15.783 -22.443  0.00  0.00    +0.069 C 
ATOM     13  C   UNL     1      34.921 -13.422 -22.038  0.00  0.00    +0.050 C 
ATOM     14  C   UNL     1      34.862 -14.941 -20.184  0.00  0.00    -0.003 C 
ATOM     15  C   UNL     1      35.002 -14.476 -22.931  0.00  0.00    +0.018 C 
ATOM     16  C   UNL     1      34.851 -13.634 -20.671  0.00  0.00    +0.014 C 
BRANCH  12  20
ATOM     17  F   UNL     1      35.080 -16.523 -24.717  0.00  0.00    -0.166 F 
ATOM     18  F   UNL     1      36.238 -17.660 -23.278  0.00  0.00    -0.166 F 
ATOM     19  F   UNL     1      34.068 -17.800 -23.277  0.00  0.00    -0.166 F 
ATOM     20  C   UNL     1      35.100 -16.918 -23.411  0.00  0.00    +0.418 C 
ENDBRANCH  12  20
BRANCH  11  21
ATOM     21  C   UNL     1      34.953 -17.406 -20.524  0.00  0.00    +0.026 C 
BRANCH  21  22
ATOM     22  C   UNL     1      36.378 -17.926 -20.291  0.00  0.00    +0.005 C 
ATOM     23  C   UNL     1      36.395 -19.415 -19.984  0.00  0.00    +0.000 C 
ENDBRANCH  21  22
ENDBRANCH  11  21
ENDBRANCH   8  13
ENDBRANCH   1   9
BRANCH   2  24
ATOM     24  N   UNL     1      32.524  -9.581 -22.583  0.00  0.00    -0.329 N 
ATOM     25  H   UNL     1      32.242 -10.524 -22.584  0.00  0.00    +0.147 HD
BRANCH  24  26
ATOM     26  C   UNL     1      31.807  -8.663 -21.741  0.00  0.00    +0.116 C 
BRANCH  26  29
ATOM     27  O   UNL     1      31.642 -10.803 -16.615  0.00  0.00    -0.270 OA
ATOM     28  N   UNL     1      32.204  -9.058 -18.021  0.00  0.00    -0.280 N 
ATOM     29  C   UNL     1      31.784  -9.198 -20.345  0.00  0.00    +0.012 C 
ATOM     30  C   UNL     1      32.250  -8.521 -19.285  0.00  0.00    +0.061 C 
ATOM     31  C   UNL     1      31.225 -10.518 -20.135  0.00  0.00    +0.003 C 
ATOM     32  C   UNL     1      31.167 -11.068 -18.915  0.00  0.00    +0.058 C 
ATOM     33  C   UNL     1      31.687 -10.311 -17.740  0.00  0.00    +0.250 C 
ATOM     34  H   UNL     1      32.558  -8.522 -17.275  0.00  0.00    +0.155 HD
ENDBRANCH  26  29
ENDBRANCH  24  26
ENDBRANCH   2  24
TORSDOF 8
ENDMDL
