MODEL 1
REMARK VINA RESULT:     -12.0      0.000      0.000
REMARK  Name = 6918151
REMARK  4 active torsions:
REMARK  status: ('A' for Active; 'I' for Inactive)
REMARK    1  A    between atoms: C_2  and  C_11
REMARK    2  A    between atoms: C_7  and  C_18
REMARK    3  A    between atoms: C_11  and  C_12
REMARK    4  A    between atoms: C_18  and  C_23
REMARK                            x       y       z     vdW  Elec       q    Type
REMARK                         _______ _______ _______ _____ _____    ______ ____
ROOT
ATOM      1  O   UNL     1      34.652 -18.559 -20.712  0.00  0.00    -0.479 OA
ATOM      2  C   UNL     1      35.970 -18.521 -21.280  0.00  0.00    +0.171 C 
ATOM      3  C   UNL     1      37.042 -18.722 -20.210  0.00  0.00    +0.049 C 
ATOM      4  C   UNL     1      36.879 -20.107 -19.595  0.00  0.00    +0.033 C 
ATOM      5  C   UNL     1      35.437 -20.376 -19.281  0.00  0.00    +0.012 C 
ATOM      6  C   UNL     1      34.418 -19.607 -19.858  0.00  0.00    +0.134 C 
ATOM      7  C   UNL     1      33.755 -21.688 -18.121  0.00  0.00    -0.021 C 
ATOM      8  C   UNL     1      35.093 -21.428 -18.421  0.00  0.00    -0.006 C 
ATOM      9  C   UNL     1      33.080 -19.860 -19.547  0.00  0.00    +0.036 C 
ATOM     10  C   UNL     1      32.750 -20.902 -18.681  0.00  0.00    -0.001 C 
ENDROOT
BRANCH   2  11
ATOM     11  C   UNL     1      36.130 -17.166 -21.959  0.00  0.00    +0.070 C 
BRANCH  11  12
ATOM     12  C   UNL     1      35.191 -17.013 -23.125  0.00  0.00    -0.019 C 
ATOM     13  C   UNL     1      34.970 -15.752 -23.664  0.00  0.00    -0.004 C 
ATOM     14  C   UNL     1      34.559 -18.134 -23.647  0.00  0.00    -0.004 C 
ATOM     15  C   UNL     1      34.100 -15.611 -24.745  0.00  0.00    -0.000 C 
ATOM     16  C   UNL     1      33.690 -17.991 -24.728  0.00  0.00    -0.000 C 
ATOM     17  C   UNL     1      33.460 -16.730 -25.277  0.00  0.00    -0.000 C 
ENDBRANCH  11  12
ENDBRANCH   2  11
BRANCH   7  18
ATOM     18  C   UNL     1      33.402 -22.805 -17.199  0.00  0.00    +0.047 C 
BRANCH  18  23
ATOM     19  S   UNL     1      33.761 -23.169 -14.487  0.00  0.00    -0.048 S 
ATOM     20  O   UNL     1      30.565 -22.189 -16.417  0.00  0.00    -0.274 OA
ATOM     21  O   UNL     1      32.245 -24.402 -12.728  0.00  0.00    -0.263 OA
ATOM     22  N   UNL     1      31.211 -23.332 -14.513  0.00  0.00    -0.246 N 
ATOM     23  C   UNL     1      32.911 -22.305 -15.843  0.00  0.00    +0.137 C 
ATOM     24  C   UNL     1      31.437 -22.585 -15.651  0.00  0.00    +0.239 C 
ATOM     25  C   UNL     1      32.277 -23.740 -13.754  0.00  0.00    +0.279 C 
ATOM     26  H   UNL     1      30.293 -23.569 -14.249  0.00  0.00    +0.158 HD
ENDBRANCH  18  23
ENDBRANCH   7  18
TORSDOF 4
ENDMDL
MODEL 2
REMARK VINA RESULT:     -11.9      1.191      2.037
REMARK  Name = 6918151
REMARK  4 active torsions:
REMARK  status: ('A' for Active; 'I' for Inactive)
REMARK    1  A    between atoms: C_2  and  C_11
REMARK    2  A    between atoms: C_7  and  C_18
REMARK    3  A    between atoms: C_11  and  C_12
REMARK    4  A    between atoms: C_18  and  C_23
REMARK                            x       y       z     vdW  Elec       q    Type
REMARK                         _______ _______ _______ _____ _____    ______ ____
ROOT
ATOM      1  O   UNL     1      36.130 -19.301 -19.807  0.00  0.00    -0.479 OA
ATOM      2  C   UNL     1      35.320 -18.359 -20.526  0.00  0.00    +0.171 C 
ATOM      3  C   UNL     1      34.172 -19.056 -21.254  0.00  0.00    +0.049 C 
ATOM      4  C   UNL     1      33.256 -19.713 -20.228  0.00  0.00    +0.033 C 
ATOM      5  C   UNL     1      34.064 -20.455 -19.203  0.00  0.00    +0.012 C 
ATOM      6  C   UNL     1      35.433 -20.202 -19.044  0.00  0.00    +0.134 C 
ATOM      7  C   UNL     1      34.183 -22.093 -17.415  0.00  0.00    -0.021 C 
ATOM      8  C   UNL     1      33.442 -21.396 -18.371  0.00  0.00    -0.006 C 
ATOM      9  C   UNL     1      36.175 -20.910 -18.095  0.00  0.00    +0.036 C 
ATOM     10  C   UNL     1      35.549 -21.852 -17.280  0.00  0.00    -0.001 C 
ENDROOT
BRANCH   2  11
ATOM     11  C   UNL     1      36.231 -17.641 -21.514  0.00  0.00    +0.070 C 
BRANCH  11  12
ATOM     12  C   UNL     1      35.559 -16.439 -22.120  0.00  0.00    -0.019 C 
ATOM     13  C   UNL     1      35.237 -15.356 -21.311  0.00  0.00    -0.004 C 
ATOM     14  C   UNL     1      35.270 -16.427 -23.477  0.00  0.00    -0.004 C 
ATOM     15  C   UNL     1      34.614 -14.242 -21.872  0.00  0.00    -0.000 C 
ATOM     16  C   UNL     1      34.648 -15.312 -24.038  0.00  0.00    -0.000 C 
ATOM     17  C   UNL     1      34.319 -14.220 -23.236  0.00  0.00    -0.000 C 
ENDBRANCH  11  12
ENDBRANCH   2  11
BRANCH   7  18
ATOM     18  C   UNL     1      33.512 -23.097 -16.540  0.00  0.00    +0.047 C 
BRANCH  18  23
ATOM     19  S   UNL     1      33.231 -23.316 -13.803  0.00  0.00    -0.048 S 
ATOM     20  O   UNL     1      30.682 -22.090 -16.429  0.00  0.00    -0.274 OA
ATOM     21  O   UNL     1      31.223 -24.236 -12.376  0.00  0.00    -0.263 OA
ATOM     22  N   UNL     1      30.747 -23.171 -14.385  0.00  0.00    -0.246 N 
ATOM     23  C   UNL     1      32.813 -22.450 -15.347  0.00  0.00    +0.137 C 
ATOM     24  C   UNL     1      31.309 -22.536 -15.474  0.00  0.00    +0.239 C 
ATOM     25  C   UNL     1      31.562 -23.653 -13.394  0.00  0.00    +0.279 C 
ATOM     26  H   UNL     1      29.771 -23.277 -14.321  0.00  0.00    +0.158 HD
ENDBRANCH  18  23
ENDBRANCH   7  18
TORSDOF 4
ENDMDL
MODEL 3
REMARK VINA RESULT:     -11.9      4.374      9.704
REMARK  Name = 6918151
REMARK  4 active torsions:
REMARK  status: ('A' for Active; 'I' for Inactive)
REMARK    1  A    between atoms: C_2  and  C_11
REMARK    2  A    between atoms: C_7  and  C_18
REMARK    3  A    between atoms: C_11  and  C_12
REMARK    4  A    between atoms: C_18  and  C_23
REMARK                            x       y       z     vdW  Elec       q    Type
REMARK                         _______ _______ _______ _____ _____    ______ ____
ROOT
ATOM      1  O   UNL     1      34.794 -22.520 -16.402  0.00  0.00    -0.479 OA
ATOM      2  C   UNL     1      35.530 -22.436 -15.173  0.00  0.00    +0.171 C 
ATOM      3  C   UNL     1      37.037 -22.467 -15.423  0.00  0.00    +0.049 C 
ATOM      4  C   UNL     1      37.431 -21.244 -16.242  0.00  0.00    +0.033 C 
ATOM      5  C   UNL     1      36.477 -21.047 -17.385  0.00  0.00    +0.012 C 
ATOM      6  C   UNL     1      35.226 -21.677 -17.395  0.00  0.00    +0.134 C 
ATOM      7  C   UNL     1      35.946 -20.012 -19.515  0.00  0.00    -0.021 C 
ATOM      8  C   UNL     1      36.824 -20.202 -18.447  0.00  0.00    -0.006 C 
ATOM      9  C   UNL     1      34.353 -21.496 -18.470  0.00  0.00    +0.036 C 
ATOM     10  C   UNL     1      34.713 -20.661 -19.528  0.00  0.00    -0.001 C 
ENDROOT
BRANCH   2  11
ATOM     11  C   UNL     1      35.101 -23.617 -14.309  0.00  0.00    +0.070 C 
BRANCH  11  12
ATOM     12  C   UNL     1      36.105 -23.909 -13.226  0.00  0.00    -0.019 C 
ATOM     13  C   UNL     1      36.913 -25.034 -13.327  0.00  0.00    -0.004 C 
ATOM     14  C   UNL     1      36.210 -23.049 -12.141  0.00  0.00    -0.004 C 
ATOM     15  C   UNL     1      37.843 -25.304 -12.324  0.00  0.00    -0.000 C 
ATOM     16  C   UNL     1      37.141 -23.320 -11.138  0.00  0.00    -0.000 C 
ATOM     17  C   UNL     1      37.957 -24.447 -11.229  0.00  0.00    -0.000 C 
ENDBRANCH  11  12
ENDBRANCH   2  11
BRANCH   7  18
ATOM     18  C   UNL     1      36.329 -19.115 -20.643  0.00  0.00    +0.047 C 
BRANCH  18  23
ATOM     19  S   UNL     1      34.954 -18.337 -22.907  0.00  0.00    -0.048 S 
ATOM     20  O   UNL     1      35.660 -16.348 -19.675  0.00  0.00    -0.274 OA
ATOM     21  O   UNL     1      35.034 -16.074 -24.242  0.00  0.00    -0.263 OA
ATOM     22  N   UNL     1      35.360 -16.006 -21.943  0.00  0.00    -0.246 N 
ATOM     23  C   UNL     1      35.169 -18.236 -21.104  0.00  0.00    +0.137 C 
ATOM     24  C   UNL     1      35.426 -16.777 -20.800  0.00  0.00    +0.239 C 
ATOM     25  C   UNL     1      35.120 -16.611 -23.149  0.00  0.00    +0.279 C 
ATOM     26  H   UNL     1      35.483 -15.031 -21.892  0.00  0.00    +0.158 HD
ENDBRANCH  18  23
ENDBRANCH   7  18
TORSDOF 4
ENDMDL
MODEL 4
REMARK VINA RESULT:     -11.7      4.132      6.136
REMARK  Name = 6918151
REMARK  4 active torsions:
REMARK  status: ('A' for Active; 'I' for Inactive)
REMARK    1  A    between atoms: C_2  and  C_11
REMARK    2  A    between atoms: C_7  and  C_18
REMARK    3  A    between atoms: C_11  and  C_12
REMARK    4  A    between atoms: C_18  and  C_23
REMARK                            x       y       z     vdW  Elec       q    Type
REMARK                         _______ _______ _______ _____ _____    ______ ____
ROOT
ATOM      1  O   UNL     1      35.740 -21.831 -17.049  0.00  0.00    -0.479 OA
ATOM      2  C   UNL     1      34.320 -21.750 -17.243  0.00  0.00    +0.171 C 
ATOM      3  C   UNL     1      33.597 -22.896 -16.537  0.00  0.00    +0.049 C 
ATOM      4  C   UNL     1      33.831 -22.784 -15.036  0.00  0.00    +0.033 C 
ATOM      5  C   UNL     1      35.279 -22.511 -14.748  0.00  0.00    +0.012 C 
ATOM      6  C   UNL     1      36.137 -22.045 -15.753  0.00  0.00    +0.134 C 
ATOM      7  C   UNL     1      37.127 -22.449 -13.175  0.00  0.00    -0.021 C 
ATOM      8  C   UNL     1      35.782 -22.698 -13.454  0.00  0.00    -0.006 C 
ATOM      9  C   UNL     1      37.486 -21.808 -15.475  0.00  0.00    +0.036 C 
ATOM     10  C   UNL     1      37.978 -22.008 -14.186  0.00  0.00    -0.001 C 
ENDROOT
BRANCH   2  11
ATOM     11  C   UNL     1      34.067 -21.794 -18.745  0.00  0.00    +0.070 C 
BRANCH  11  12
ATOM     12  C   UNL     1      34.696 -20.623 -19.450  0.00  0.00    -0.019 C 
ATOM     13  C   UNL     1      33.887 -19.716 -20.123  0.00  0.00    -0.004 C 
ATOM     14  C   UNL     1      36.075 -20.464 -19.419  0.00  0.00    -0.004 C 
ATOM     15  C   UNL     1      34.469 -18.630 -20.777  0.00  0.00    -0.000 C 
ATOM     16  C   UNL     1      36.656 -19.378 -20.072  0.00  0.00    -0.000 C 
ATOM     17  C   UNL     1      35.854 -18.461 -20.751  0.00  0.00    -0.000 C 
ENDBRANCH  11  12
ENDBRANCH   2  11
BRANCH   7  18
ATOM     18  C   UNL     1      37.652 -22.656 -11.795  0.00  0.00    +0.047 C 
BRANCH  18  23
ATOM     19  S   UNL     1      39.250 -24.540 -13.027  0.00  0.00    -0.048 S 
ATOM     20  O   UNL     1      36.242 -25.059 -10.664  0.00  0.00    -0.274 OA
ATOM     21  O   UNL     1      38.599 -26.778 -14.244  0.00  0.00    -0.263 OA
ATOM     22  N   UNL     1      37.296 -26.083 -12.450  0.00  0.00    -0.246 N 
ATOM     23  C   UNL     1      38.232 -24.055 -11.600  0.00  0.00    +0.137 C 
ATOM     24  C   UNL     1      37.142 -25.097 -11.497  0.00  0.00    +0.239 C 
ATOM     25  C   UNL     1      38.329 -25.994 -13.347  0.00  0.00    +0.279 C 
ATOM     26  H   UNL     1      36.670 -26.841 -12.486  0.00  0.00    +0.158 HD
ENDBRANCH  18  23
ENDBRANCH   7  18
TORSDOF 4
ENDMDL
MODEL 5
REMARK VINA RESULT:     -11.5      2.682      3.678
REMARK  Name = 6918151
REMARK  4 active torsions:
REMARK  status: ('A' for Active; 'I' for Inactive)
REMARK    1  A    between atoms: C_2  and  C_11
REMARK    2  A    between atoms: C_7  and  C_18
REMARK    3  A    between atoms: C_11  and  C_12
REMARK    4  A    between atoms: C_18  and  C_23
REMARK                            x       y       z     vdW  Elec       q    Type
REMARK                         _______ _______ _______ _____ _____    ______ ____
ROOT
ATOM      1  O   UNL     1      36.508 -19.758 -19.106  0.00  0.00    -0.479 OA
ATOM      2  C   UNL     1      35.469 -19.143 -19.883  0.00  0.00    +0.171 C 
ATOM      3  C   UNL     1      34.460 -20.178 -20.380  0.00  0.00    +0.049 C 
ATOM      4  C   UNL     1      33.774 -20.820 -19.180  0.00  0.00    +0.033 C 
ATOM      5  C   UNL     1      34.784 -21.189 -18.132  0.00  0.00    +0.012 C 
ATOM      6  C   UNL     1      36.071 -20.636 -18.147  0.00  0.00    +0.134 C 
ATOM      7  C   UNL     1      35.365 -22.430 -16.128  0.00  0.00    -0.021 C 
ATOM      8  C   UNL     1      34.434 -22.078 -17.107  0.00  0.00    -0.006 C 
ATOM      9  C   UNL     1      37.006 -20.999 -17.173  0.00  0.00    +0.036 C 
ATOM     10  C   UNL     1      36.651 -21.893 -16.164  0.00  0.00    -0.001 C 
ENDROOT
BRANCH   2  11
ATOM     11  C   UNL     1      36.141 -18.437 -21.055  0.00  0.00    +0.070 C 
BRANCH  11  12
ATOM     12  C   UNL     1      35.656 -17.021 -21.204  0.00  0.00    -0.019 C 
ATOM     13  C   UNL     1      35.536 -16.468 -22.473  0.00  0.00    -0.004 C 
ATOM     14  C   UNL     1      35.334 -16.285 -20.072  0.00  0.00    -0.004 C 
ATOM     15  C   UNL     1      35.086 -15.156 -22.611  0.00  0.00    -0.000 C 
ATOM     16  C   UNL     1      34.883 -14.972 -20.211  0.00  0.00    -0.000 C 
ATOM     17  C   UNL     1      34.760 -14.407 -21.480  0.00  0.00    -0.000 C 
ENDBRANCH  11  12
ENDBRANCH   2  11
BRANCH   7  18
ATOM     18  C   UNL     1      34.984 -23.381 -15.045  0.00  0.00    +0.047 C 
BRANCH  18  23
ATOM     19  S   UNL     1      37.213 -23.782 -13.467  0.00  0.00    -0.048 S 
ATOM     20  O   UNL     1      33.550 -23.180 -12.411  0.00  0.00    -0.274 OA
ATOM     21  O   UNL     1      37.523 -25.267 -11.320  0.00  0.00    -0.263 OA
ATOM     22  N   UNL     1      35.448 -24.288 -11.690  0.00  0.00    -0.246 N 
ATOM     23  C   UNL     1      35.589 -22.997 -13.697  0.00  0.00    +0.137 C 
ATOM     24  C   UNL     1      34.731 -23.480 -12.549  0.00  0.00    +0.239 C 
ATOM     25  C   UNL     1      36.759 -24.573 -11.973  0.00  0.00    +0.279 C 
ATOM     26  H   UNL     1      35.023 -24.656 -10.883  0.00  0.00    +0.158 HD
ENDBRANCH  18  23
ENDBRANCH   7  18
TORSDOF 4
ENDMDL
MODEL 6
REMARK VINA RESULT:     -11.4      4.276      6.623
REMARK  Name = 6918151
REMARK  4 active torsions:
REMARK  status: ('A' for Active; 'I' for Inactive)
REMARK    1  A    between atoms: C_2  and  C_11
REMARK    2  A    between atoms: C_7  and  C_18
REMARK    3  A    between atoms: C_11  and  C_12
REMARK    4  A    between atoms: C_18  and  C_23
REMARK                            x       y       z     vdW  Elec       q    Type
REMARK                         _______ _______ _______ _____ _____    ______ ____
ROOT
ATOM      1  O   UNL     1      34.486 -14.049 -23.458  0.00  0.00    -0.479 OA
ATOM      2  C   UNL     1      34.372 -12.733 -22.895  0.00  0.00    +0.171 C 
ATOM      3  C   UNL     1      33.596 -12.757 -21.579  0.00  0.00    +0.049 C 
ATOM      4  C   UNL     1      34.366 -13.592 -20.563  0.00  0.00    +0.033 C 
ATOM      5  C   UNL     1      34.840 -14.873 -21.186  0.00  0.00    +0.012 C 
ATOM      6  C   UNL     1      34.884 -15.023 -22.578  0.00  0.00    +0.134 C 
ATOM      7  C   UNL     1      35.712 -17.125 -20.940  0.00  0.00    -0.021 C 
ATOM      8  C   UNL     1      35.270 -15.929 -20.371  0.00  0.00    -0.006 C 
ATOM      9  C   UNL     1      35.315 -16.225 -23.145  0.00  0.00    +0.036 C 
ATOM     10  C   UNL     1      35.731 -17.274 -22.325  0.00  0.00    -0.001 C 
ENDROOT
BRANCH   2  11
ATOM     11  C   UNL     1      33.662 -11.862 -23.926  0.00  0.00    +0.070 C 
BRANCH  11  12
ATOM     12  C   UNL     1      34.412 -10.583 -24.185  0.00  0.00    -0.019 C 
ATOM     13  C   UNL     1      35.069 -10.410 -25.397  0.00  0.00    -0.004 C 
ATOM     14  C   UNL     1      34.437  -9.595 -23.211  0.00  0.00    -0.004 C 
ATOM     15  C   UNL     1      35.764  -9.225 -25.638  0.00  0.00    -0.000 C 
ATOM     16  C   UNL     1      35.132  -8.410 -23.453  0.00  0.00    -0.000 C 
ATOM     17  C   UNL     1      35.795  -8.225 -24.665  0.00  0.00    -0.000 C 
ENDBRANCH  11  12
ENDBRANCH   2  11
BRANCH   7  18
ATOM     18  C   UNL     1      36.162 -18.244 -20.063  0.00  0.00    +0.047 C 
BRANCH  18  23
ATOM     19  S   UNL     1      33.715 -19.520 -20.088  0.00  0.00    -0.048 S 
ATOM     20  O   UNL     1      37.237 -21.005 -19.553  0.00  0.00    -0.274 OA
ATOM     21  O   UNL     1      32.757 -21.378 -18.493  0.00  0.00    -0.263 OA
ATOM     22  N   UNL     1      35.042 -21.363 -18.917  0.00  0.00    -0.246 N 
ATOM     23  C   UNL     1      35.500 -19.570 -20.430  0.00  0.00    +0.137 C 
ATOM     24  C   UNL     1      36.047 -20.709 -19.600  0.00  0.00    +0.239 C 
ATOM     25  C   UNL     1      33.751 -20.914 -19.030  0.00  0.00    +0.279 C 
ATOM     26  H   UNL     1      35.249 -22.143 -18.354  0.00  0.00    +0.158 HD
ENDBRANCH  18  23
ENDBRANCH   7  18
TORSDOF 4
ENDMDL
MODEL 7
REMARK VINA RESULT:     -11.3      3.582      9.048
REMARK  Name = 6918151
REMARK  4 active torsions:
REMARK  status: ('A' for Active; 'I' for Inactive)
REMARK    1  A    between atoms: C_2  and  C_11
REMARK    2  A    between atoms: C_7  and  C_18
REMARK    3  A    between atoms: C_11  and  C_12
REMARK    4  A    between atoms: C_18  and  C_23
REMARK                            x       y       z     vdW  Elec       q    Type
REMARK                         _______ _______ _______ _____ _____    ______ ____
ROOT
ATOM      1  O   UNL     1      34.476 -22.523 -16.469  0.00  0.00    -0.479 OA
ATOM      2  C   UNL     1      35.200 -22.510 -15.229  0.00  0.00    +0.171 C 
ATOM      3  C   UNL     1      36.705 -22.624 -15.464  0.00  0.00    +0.049 C 
ATOM      4  C   UNL     1      37.181 -21.408 -16.250  0.00  0.00    +0.033 C 
ATOM      5  C   UNL     1      36.254 -21.129 -17.398  0.00  0.00    +0.012 C 
ATOM      6  C   UNL     1      34.968 -21.684 -17.436  0.00  0.00    +0.134 C 
ATOM      7  C   UNL     1      35.812 -20.017 -19.509  0.00  0.00    -0.021 C 
ATOM      8  C   UNL     1      36.664 -20.282 -18.436  0.00  0.00    -0.006 C 
ATOM      9  C   UNL     1      34.121 -21.427 -18.517  0.00  0.00    +0.036 C 
ATOM     10  C   UNL     1      34.543 -20.592 -19.551  0.00  0.00    -0.001 C 
ENDROOT
BRANCH   2  11
ATOM     11  C   UNL     1      34.691 -23.683 -14.398  0.00  0.00    +0.070 C 
BRANCH  11  12
ATOM     12  C   UNL     1      33.240 -23.520 -14.036  0.00  0.00    -0.019 C 
ATOM     13  C   UNL     1      32.552 -22.390 -14.458  0.00  0.00    -0.004 C 
ATOM     14  C   UNL     1      32.608 -24.502 -13.284  0.00  0.00    -0.004 C 
ATOM     15  C   UNL     1      31.207 -22.239 -14.121  0.00  0.00    -0.000 C 
ATOM     16  C   UNL     1      31.263 -24.350 -12.949  0.00  0.00    -0.000 C 
ATOM     17  C   UNL     1      30.562 -23.219 -13.367  0.00  0.00    -0.000 C 
ENDBRANCH  11  12
ENDBRANCH   2  11
BRANCH   7  18
ATOM     18  C   UNL     1      36.260 -19.119 -20.612  0.00  0.00    +0.047 C 
BRANCH  18  23
ATOM     19  S   UNL     1      34.968 -18.315 -22.915  0.00  0.00    -0.048 S 
ATOM     20  O   UNL     1      35.659 -16.324 -19.681  0.00  0.00    -0.274 OA
ATOM     21  O   UNL     1      35.155 -16.066 -24.264  0.00  0.00    -0.263 OA
ATOM     22  N   UNL     1      35.426 -15.990 -21.958  0.00  0.00    -0.246 N 
ATOM     23  C   UNL     1      35.142 -18.206 -21.108  0.00  0.00    +0.137 C 
ATOM     24  C   UNL     1      35.439 -16.754 -20.808  0.00  0.00    +0.239 C 
ATOM     25  C   UNL     1      35.197 -16.597 -23.165  0.00  0.00    +0.279 C 
ATOM     26  H   UNL     1      35.580 -15.019 -21.911  0.00  0.00    +0.158 HD
ENDBRANCH  18  23
ENDBRANCH   7  18
TORSDOF 4
ENDMDL
MODEL 8
REMARK VINA RESULT:     -11.1      8.246     11.702
REMARK  Name = 6918151
REMARK  4 active torsions:
REMARK  status: ('A' for Active; 'I' for Inactive)
REMARK    1  A    between atoms: C_2  and  C_11
REMARK    2  A    between atoms: C_7  and  C_18
REMARK    3  A    between atoms: C_11  and  C_12
REMARK    4  A    between atoms: C_18  and  C_23
REMARK                            x       y       z     vdW  Elec       q    Type
REMARK                         _______ _______ _______ _____ _____    ______ ____
ROOT
ATOM      1  O   UNL     1      34.712 -12.794 -22.792  0.00  0.00    -0.479 OA
ATOM      2  C   UNL     1      34.245 -14.018 -22.206  0.00  0.00    +0.171 C 
ATOM      3  C   UNL     1      33.860 -13.822 -20.741  0.00  0.00    +0.049 C 
ATOM      4  C   UNL     1      32.699 -12.838 -20.658  0.00  0.00    +0.033 C 
ATOM      5  C   UNL     1      32.953 -11.650 -21.541  0.00  0.00    +0.012 C 
ATOM      6  C   UNL     1      33.922 -11.698 -22.551  0.00  0.00    +0.134 C 
ATOM      7  C   UNL     1      32.425  -9.371 -22.189  0.00  0.00    -0.021 C 
ATOM      8  C   UNL     1      32.197 -10.482 -21.376  0.00  0.00    -0.006 C 
ATOM      9  C   UNL     1      34.158 -10.581 -23.357  0.00  0.00    +0.036 C 
ATOM     10  C   UNL     1      33.407  -9.420 -23.177  0.00  0.00    -0.001 C 
ENDROOT
BRANCH   2  11
ATOM     11  C   UNL     1      35.370 -15.039 -22.337  0.00  0.00    +0.070 C 
BRANCH  11  12
ATOM     12  C   UNL     1      34.933 -16.253 -23.112  0.00  0.00    -0.019 C 
ATOM     13  C   UNL     1      34.300 -16.091 -24.337  0.00  0.00    -0.004 C 
ATOM     14  C   UNL     1      35.169 -17.518 -22.591  0.00  0.00    -0.004 C 
ATOM     15  C   UNL     1      33.895 -17.215 -25.055  0.00  0.00    -0.000 C 
ATOM     16  C   UNL     1      34.765 -18.643 -23.311  0.00  0.00    -0.000 C 
ATOM     17  C   UNL     1      34.127 -18.492 -24.541  0.00  0.00    -0.000 C 
ENDBRANCH  11  12
ENDBRANCH   2  11
BRANCH   7  18
ATOM     18  C   UNL     1      31.618  -8.132 -22.001  0.00  0.00    +0.047 C 
BRANCH  18  23
ATOM     19  S   UNL     1      33.056  -7.320 -19.789  0.00  0.00    -0.048 S 
ATOM     20  O   UNL     1      31.039  -5.197 -22.302  0.00  0.00    -0.274 OA
ATOM     21  O   UNL     1      32.448  -5.574 -17.921  0.00  0.00    -0.263 OA
ATOM     22  N   UNL     1      31.655  -5.203 -20.073  0.00  0.00    -0.246 N 
ATOM     23  C   UNL     1      32.454  -6.970 -21.469  0.00  0.00    +0.137 C 
ATOM     24  C   UNL     1      31.636  -5.704 -21.359  0.00  0.00    +0.239 C 
ATOM     25  C   UNL     1      32.337  -5.882 -19.097  0.00  0.00    +0.279 C 
ATOM     26  H   UNL     1      31.183  -4.366 -19.859  0.00  0.00    +0.158 HD
ENDBRANCH  18  23
ENDBRANCH   7  18
TORSDOF 4
ENDMDL
MODEL 9
REMARK VINA RESULT:     -11.0      6.001     10.385
REMARK  Name = 6918151
REMARK  4 active torsions:
REMARK  status: ('A' for Active; 'I' for Inactive)
REMARK    1  A    between atoms: C_2  and  C_11
REMARK    2  A    between atoms: C_7  and  C_18
REMARK    3  A    between atoms: C_11  and  C_12
REMARK    4  A    between atoms: C_18  and  C_23
REMARK                            x       y       z     vdW  Elec       q    Type
REMARK                         _______ _______ _______ _____ _____    ______ ____
ROOT
ATOM      1  O   UNL     1      35.322 -17.293 -22.523  0.00  0.00    -0.479 OA
ATOM      2  C   UNL     1      35.174 -17.616 -21.133  0.00  0.00    +0.171 C 
ATOM      3  C   UNL     1      35.747 -16.514 -20.242  0.00  0.00    +0.049 C 
ATOM      4  C   UNL     1      34.959 -15.230 -20.470  0.00  0.00    +0.033 C 
ATOM      5  C   UNL     1      34.758 -14.989 -21.938  0.00  0.00    +0.012 C 
ATOM      6  C   UNL     1      34.936 -16.022 -22.867  0.00  0.00    +0.134 C 
ATOM      7  C   UNL     1      34.172 -13.488 -23.753  0.00  0.00    -0.021 C 
ATOM      8  C   UNL     1      34.361 -13.724 -22.390  0.00  0.00    -0.006 C 
ATOM      9  C   UNL     1      34.759 -15.781 -24.232  0.00  0.00    +0.036 C 
ATOM     10  C   UNL     1      34.374 -14.515 -24.673  0.00  0.00    -0.001 C 
ENDROOT
BRANCH   2  11
ATOM     11  C   UNL     1      35.901 -18.935 -20.897  0.00  0.00    +0.070 C 
BRANCH  11  12
ATOM     12  C   UNL     1      35.151 -19.821 -19.939  0.00  0.00    -0.019 C 
ATOM     13  C   UNL     1      33.762 -19.794 -19.928  0.00  0.00    -0.004 C 
ATOM     14  C   UNL     1      35.856 -20.652 -19.080  0.00  0.00    -0.004 C 
ATOM     15  C   UNL     1      33.066 -20.615 -19.041  0.00  0.00    -0.000 C 
ATOM     16  C   UNL     1      35.159 -21.474 -18.193  0.00  0.00    -0.000 C 
ATOM     17  C   UNL     1      33.765 -21.455 -18.174  0.00  0.00    -0.000 C 
ENDBRANCH  11  12
ENDBRANCH   2  11
BRANCH   7  18
ATOM     18  C   UNL     1      33.755 -12.136 -24.224  0.00  0.00    +0.047 C 
BRANCH  18  23
ATOM     19  S   UNL     1      32.755 -10.514 -22.228  0.00  0.00    -0.048 S 
ATOM     20  O   UNL     1      35.531  -9.782 -24.807  0.00  0.00    -0.274 OA
ATOM     21  O   UNL     1      32.124  -7.962 -22.276  0.00  0.00    -0.263 OA
ATOM     22  N   UNL     1      33.881  -8.686 -23.613  0.00  0.00    -0.246 N 
ATOM     23  C   UNL     1      34.165 -11.032 -23.253  0.00  0.00    +0.137 C 
ATOM     24  C   UNL     1      34.619  -9.790 -23.988  0.00  0.00    +0.239 C 
ATOM     25  C   UNL     1      32.864  -8.834 -22.705  0.00  0.00    +0.279 C 
ATOM     26  H   UNL     1      34.083  -7.801 -23.993  0.00  0.00    +0.158 HD
ENDBRANCH  18  23
ENDBRANCH   7  18
TORSDOF 4
ENDMDL
