MODEL 1
REMARK VINA RESULT:     -11.9      0.000      0.000
REMARK  Name = 445841
REMARK  2 active torsions:
REMARK  status: ('A' for Active; 'I' for Inactive)
REMARK    1  A    between atoms: N_2  and  C_22
REMARK    2  A    between atoms: C_6  and  C_27
REMARK                            x       y       z     vdW  Elec       q    Type
REMARK                         _______ _______ _______ _____ _____    ______ ____
ROOT
ATOM      1  O   UNL     1      34.364 -20.211 -20.227  0.00  0.00    -0.252 OA
ATOM      2  N   UNL     1      35.976 -18.707 -21.017  0.00  0.00    -0.268 N 
ATOM      3  N   UNL     1      35.400 -22.098 -16.623  0.00  0.00    -0.241 N 
ATOM      4  N   UNL     1      36.350 -19.850 -19.045  0.00  0.00    -0.252 N 
ATOM      5  N   UNL     1      35.126 -21.461 -17.775  0.00  0.00    -0.166 NA
ATOM      6  C   UNL     1      36.602 -21.759 -16.078  0.00  0.00    +0.026 C 
ATOM      7  C   UNL     1      37.155 -20.836 -16.932  0.00  0.00    +0.046 C 
ATOM      8  C   UNL     1      36.200 -20.702 -17.944  0.00  0.00    +0.154 C 
ATOM      9  C   UNL     1      35.448 -19.653 -20.102  0.00  0.00    +0.309 C 
ATOM     10  H   UNL     1      36.861 -18.340 -20.788  0.00  0.00    +0.156 HD
ATOM     11  H   UNL     1      34.788 -22.749 -16.211  0.00  0.00    +0.174 HD
ATOM     12  H   UNL     1      37.184 -19.328 -19.080  0.00  0.00    +0.158 HD
ENDROOT
BRANCH   2  22
ATOM     13  O   UNL     1      33.984 -14.265 -24.376  0.00  0.00    -0.270 OA
ATOM     14  N   UNL     1      35.077 -14.596 -22.314  0.00  0.00    -0.274 N 
ATOM     15  C   UNL     1      35.589 -15.719 -21.547  0.00  0.00    +0.100 C 
ATOM     16  C   UNL     1      34.901 -15.524 -20.204  0.00  0.00    +0.026 C 
ATOM     17  C   UNL     1      34.915 -13.994 -20.060  0.00  0.00    +0.024 C 
ATOM     18  C   UNL     1      34.679 -13.478 -21.483  0.00  0.00    +0.094 C 
ATOM     19  C   UNL     1      35.229 -16.873 -22.412  0.00  0.00    +0.014 C 
ATOM     20  C   UNL     1      34.676 -16.416 -23.615  0.00  0.00    +0.052 C 
ATOM     21  C   UNL     1      34.543 -14.952 -23.541  0.00  0.00    +0.249 C 
ATOM     22  C   UNL     1      35.410 -18.226 -22.196  0.00  0.00    +0.049 C 
ATOM     23  C   UNL     1      34.277 -17.271 -24.623  0.00  0.00    +0.004 C 
ATOM     24  C   UNL     1      35.017 -19.111 -23.205  0.00  0.00    +0.014 C 
ATOM     25  C   UNL     1      34.457 -18.638 -24.408  0.00  0.00    +0.001 C 
ENDBRANCH   2  22
BRANCH   6  27
ATOM     26  N   UNL     1      36.081 -23.214 -14.151  0.00  0.00    +0.388 N 
ATOM     27  C   UNL     1      37.098 -22.360 -14.783  0.00  0.00    -0.023 C 
ATOM     28  C   UNL     1      38.331 -23.256 -14.964  0.00  0.00    -0.018 C 
ATOM     29  C   UNL     1      37.935 -24.594 -14.357  0.00  0.00    -0.025 C 
ATOM     30  C   UNL     1      36.809 -24.238 -13.409  0.00  0.00    -0.081 C 
ATOM     31  H   UNL     1      35.490 -23.646 -14.862  0.00  0.00    -0.084 HD
ATOM     32  H   UNL     1      35.471 -22.673 -13.537  0.00  0.00    -0.084 HD
ENDBRANCH   6  27
TORSDOF 2
ENDMDL
MODEL 2
REMARK VINA RESULT:     -11.1      3.040     10.050
REMARK  Name = 445841
REMARK  2 active torsions:
REMARK  status: ('A' for Active; 'I' for Inactive)
REMARK    1  A    between atoms: N_2  and  C_22
REMARK    2  A    between atoms: C_6  and  C_27
REMARK                            x       y       z     vdW  Elec       q    Type
REMARK                         _______ _______ _______ _____ _____    ______ ____
ROOT
ATOM      1  O   UNL     1      32.530 -21.254 -17.719  0.00  0.00    -0.252 OA
ATOM      2  N   UNL     1      34.405 -22.082 -16.586  0.00  0.00    -0.268 N 
ATOM      3  N   UNL     1      33.442 -19.170 -21.247  0.00  0.00    -0.241 N 
ATOM      4  N   UNL     1      34.688 -20.906 -18.554  0.00  0.00    -0.252 N 
ATOM      5  N   UNL     1      33.215 -19.848 -20.108  0.00  0.00    -0.166 NA
ATOM      6  C   UNL     1      34.761 -19.070 -21.576  0.00  0.00    +0.026 C 
ATOM      7  C   UNL     1      35.446 -19.728 -20.583  0.00  0.00    +0.046 C 
ATOM      8  C   UNL     1      34.441 -20.177 -19.723  0.00  0.00    +0.154 C 
ATOM      9  C   UNL     1      33.746 -21.395 -17.636  0.00  0.00    +0.309 C 
ATOM     10  H   UNL     1      35.387 -22.116 -16.650  0.00  0.00    +0.156 HD
ATOM     11  H   UNL     1      32.721 -18.782 -21.793  0.00  0.00    +0.174 HD
ATOM     12  H   UNL     1      35.632 -21.100 -18.354  0.00  0.00    +0.158 HD
ENDROOT
BRANCH   2  22
ATOM     13  O   UNL     1      34.865 -24.349 -11.143  0.00  0.00    -0.270 OA
ATOM     14  N   UNL     1      36.171 -23.151 -12.697  0.00  0.00    -0.274 N 
ATOM     15  C   UNL     1      35.993 -22.573 -14.018  0.00  0.00    +0.100 C 
ATOM     16  C   UNL     1      37.140 -23.201 -14.795  0.00  0.00    +0.026 C 
ATOM     17  C   UNL     1      38.261 -23.221 -13.743  0.00  0.00    +0.024 C 
ATOM     18  C   UNL     1      37.542 -23.538 -12.429  0.00  0.00    +0.094 C 
ATOM     19  C   UNL     1      34.588 -22.943 -14.329  0.00  0.00    +0.014 C 
ATOM     20  C   UNL     1      33.999 -23.564 -13.220  0.00  0.00    +0.052 C 
ATOM     21  C   UNL     1      35.026 -23.732 -12.180  0.00  0.00    +0.249 C 
ATOM     22  C   UNL     1      33.850 -22.716 -15.476  0.00  0.00    +0.049 C 
ATOM     23  C   UNL     1      32.685 -23.988 -13.215  0.00  0.00    +0.004 C 
ATOM     24  C   UNL     1      32.515 -23.132 -15.492  0.00  0.00    +0.014 C 
ATOM     25  C   UNL     1      31.937 -23.761 -14.371  0.00  0.00    +0.001 C 
ENDBRANCH   2  22
BRANCH   6  27
ATOM     26  N   UNL     1      34.143 -18.182 -23.797  0.00  0.00    +0.388 N 
ATOM     27  C   UNL     1      35.230 -18.350 -22.819  0.00  0.00    -0.023 C 
ATOM     28  C   UNL     1      35.751 -16.934 -22.539  0.00  0.00    -0.018 C 
ATOM     29  C   UNL     1      34.931 -16.028 -23.444  0.00  0.00    -0.025 C 
ATOM     30  C   UNL     1      34.440 -16.958 -24.534  0.00  0.00    -0.081 C 
ATOM     31  H   UNL     1      33.246 -18.096 -23.318  0.00  0.00    -0.084 HD
ATOM     32  H   UNL     1      34.078 -18.986 -24.422  0.00  0.00    -0.084 HD
ENDBRANCH   6  27
TORSDOF 2
ENDMDL
MODEL 3
REMARK VINA RESULT:     -10.9      2.813     10.415
REMARK  Name = 445841
REMARK  2 active torsions:
REMARK  status: ('A' for Active; 'I' for Inactive)
REMARK    1  A    between atoms: N_2  and  C_22
REMARK    2  A    between atoms: C_6  and  C_27
REMARK                            x       y       z     vdW  Elec       q    Type
REMARK                         _______ _______ _______ _____ _____    ______ ____
ROOT
ATOM      1  O   UNL     1      34.173 -21.939 -16.819  0.00  0.00    -0.252 OA
ATOM      2  N   UNL     1      36.201 -22.022 -15.652  0.00  0.00    -0.268 N 
ATOM      3  N   UNL     1      34.380 -19.882 -20.472  0.00  0.00    -0.241 N 
ATOM      4  N   UNL     1      36.100 -20.938 -17.689  0.00  0.00    -0.252 N 
ATOM      5  N   UNL     1      34.379 -20.528 -19.294  0.00  0.00    -0.166 NA
ATOM      6  C   UNL     1      35.594 -19.365 -20.816  0.00  0.00    +0.026 C 
ATOM      7  C   UNL     1      36.447 -19.695 -19.791  0.00  0.00    +0.046 C 
ATOM      8  C   UNL     1      35.638 -20.403 -18.898  0.00  0.00    +0.154 C 
ATOM      9  C   UNL     1      35.364 -21.659 -16.737  0.00  0.00    +0.309 C 
ATOM     10  H   UNL     1      37.139 -21.728 -15.721  0.00  0.00    +0.156 HD
ATOM     11  H   UNL     1      33.578 -19.790 -21.036  0.00  0.00    +0.174 HD
ATOM     12  H   UNL     1      37.052 -20.791 -17.484  0.00  0.00    +0.158 HD
ENDROOT
BRANCH   2  22
ATOM     13  O   UNL     1      37.728 -25.409 -11.050  0.00  0.00    -0.270 OA
ATOM     14  N   UNL     1      38.748 -24.221 -12.812  0.00  0.00    -0.274 N 
ATOM     15  C   UNL     1      38.324 -23.359 -13.902  0.00  0.00    +0.100 C 
ATOM     16  C   UNL     1      38.952 -24.042 -15.108  0.00  0.00    +0.026 C 
ATOM     17  C   UNL     1      40.299 -24.516 -14.538  0.00  0.00    +0.024 C 
ATOM     18  C   UNL     1      39.974 -24.938 -13.101  0.00  0.00    +0.094 C 
ATOM     19  C   UNL     1      36.848 -23.349 -13.732  0.00  0.00    +0.014 C 
ATOM     20  C   UNL     1      36.495 -24.046 -12.569  0.00  0.00    +0.052 C 
ATOM     21  C   UNL     1      37.713 -24.640 -11.994  0.00  0.00    +0.249 C 
ATOM     22  C   UNL     1      35.876 -22.739 -14.502  0.00  0.00    +0.049 C 
ATOM     23  C   UNL     1      35.187 -24.173 -12.145  0.00  0.00    +0.004 C 
ATOM     24  C   UNL     1      34.544 -22.849 -14.089  0.00  0.00    +0.014 C 
ATOM     25  C   UNL     1      34.204 -23.559 -12.921  0.00  0.00    +0.001 C 
ENDBRANCH   2  22
BRANCH   6  27
ATOM     26  N   UNL     1      34.569 -18.484 -22.884  0.00  0.00    +0.388 N 
ATOM     27  C   UNL     1      35.810 -18.603 -22.104  0.00  0.00    -0.023 C 
ATOM     28  C   UNL     1      36.296 -17.164 -21.883  0.00  0.00    -0.018 C 
ATOM     29  C   UNL     1      35.290 -16.294 -22.619  0.00  0.00    -0.025 C 
ATOM     30  C   UNL     1      34.675 -17.236 -23.633  0.00  0.00    -0.081 C 
ATOM     31  H   UNL     1      33.761 -18.454 -22.261  0.00  0.00    -0.084 HD
ATOM     32  H   UNL     1      34.443 -19.282 -23.507  0.00  0.00    -0.084 HD
ENDBRANCH   6  27
TORSDOF 2
ENDMDL
MODEL 4
REMARK VINA RESULT:     -10.7      3.675      9.847
REMARK  Name = 445841
REMARK  2 active torsions:
REMARK  status: ('A' for Active; 'I' for Inactive)
REMARK    1  A    between atoms: N_2  and  C_22
REMARK    2  A    between atoms: C_6  and  C_27
REMARK                            x       y       z     vdW  Elec       q    Type
REMARK                         _______ _______ _______ _____ _____    ______ ____
ROOT
ATOM      1  O   UNL     1      36.288 -20.751 -17.241  0.00  0.00    -0.252 OA
ATOM      2  N   UNL     1      34.271 -21.933 -17.097  0.00  0.00    -0.268 N 
ATOM      3  N   UNL     1      36.711 -18.503 -20.760  0.00  0.00    -0.241 N 
ATOM      4  N   UNL     1      34.701 -20.630 -18.955  0.00  0.00    -0.252 N 
ATOM      5  N   UNL     1      36.516 -19.243 -19.655  0.00  0.00    -0.166 NA
ATOM      6  C   UNL     1      35.677 -18.554 -21.648  0.00  0.00    +0.026 C 
ATOM      7  C   UNL     1      34.739 -19.385 -21.084  0.00  0.00    +0.046 C 
ATOM      8  C   UNL     1      35.317 -19.768 -19.871  0.00  0.00    +0.154 C 
ATOM      9  C   UNL     1      35.204 -21.066 -17.720  0.00  0.00    +0.309 C 
ATOM     10  H   UNL     1      33.440 -22.097 -17.600  0.00  0.00    +0.156 HD
ATOM     11  H   UNL     1      37.526 -17.973 -20.915  0.00  0.00    +0.174 HD
ATOM     12  H   UNL     1      33.811 -20.968 -19.208  0.00  0.00    +0.158 HD
ENDROOT
BRANCH   2  22
ATOM     13  O   UNL     1      31.829 -24.766 -12.517  0.00  0.00    -0.270 OA
ATOM     14  N   UNL     1      31.207 -23.893 -14.616  0.00  0.00    -0.274 N 
ATOM     15  C   UNL     1      31.864 -23.238 -15.735  0.00  0.00    +0.100 C 
ATOM     16  C   UNL     1      31.033 -21.973 -15.892  0.00  0.00    +0.026 C 
ATOM     17  C   UNL     1      29.615 -22.487 -15.594  0.00  0.00    +0.024 C 
ATOM     18  C   UNL     1      29.813 -23.520 -14.481  0.00  0.00    +0.094 C 
ATOM     19  C   UNL     1      33.270 -23.155 -15.261  0.00  0.00    +0.014 C 
ATOM     20  C   UNL     1      33.404 -23.821 -14.036  0.00  0.00    +0.052 C 
ATOM     21  C   UNL     1      32.070 -24.266 -13.600  0.00  0.00    +0.249 C 
ATOM     22  C   UNL     1      34.372 -22.584 -15.869  0.00  0.00    +0.049 C 
ATOM     23  C   UNL     1      34.611 -23.930 -13.376  0.00  0.00    +0.004 C 
ATOM     24  C   UNL     1      35.608 -22.686 -15.221  0.00  0.00    +0.014 C 
ATOM     25  C   UNL     1      35.726 -23.354 -13.987  0.00  0.00    +0.001 C 
ENDBRANCH   2  22
BRANCH   6  27
ATOM     26  N   UNL     1      34.473 -18.018 -23.737  0.00  0.00    +0.388 N 
ATOM     27  C   UNL     1      35.697 -17.792 -22.953  0.00  0.00    -0.023 C 
ATOM     28  C   UNL     1      35.789 -16.272 -22.766  0.00  0.00    -0.018 C 
ATOM     29  C   UNL     1      34.596 -15.711 -23.525  0.00  0.00    -0.025 C 
ATOM     30  C   UNL     1      34.255 -16.804 -24.516  0.00  0.00    -0.081 C 
ATOM     31  H   UNL     1      33.681 -18.186 -23.116  0.00  0.00    -0.084 HD
ATOM     32  H   UNL     1      34.564 -18.836 -24.341  0.00  0.00    -0.084 HD
ENDBRANCH   6  27
TORSDOF 2
ENDMDL
MODEL 5
REMARK VINA RESULT:     -10.5      3.303      6.150
REMARK  Name = 445841
REMARK  2 active torsions:
REMARK  status: ('A' for Active; 'I' for Inactive)
REMARK    1  A    between atoms: N_2  and  C_22
REMARK    2  A    between atoms: C_6  and  C_27
REMARK                            x       y       z     vdW  Elec       q    Type
REMARK                         _______ _______ _______ _____ _____    ______ ____
ROOT
ATOM      1  O   UNL     1      34.248 -14.828 -23.538  0.00  0.00    -0.252 OA
ATOM      2  N   UNL     1      34.594 -13.079 -22.020  0.00  0.00    -0.268 N 
ATOM      3  N   UNL     1      35.303 -18.613 -22.061  0.00  0.00    -0.241 N 
ATOM      4  N   UNL     1      35.109 -15.245 -21.403  0.00  0.00    -0.252 N 
ATOM      5  N   UNL     1      34.984 -17.375 -22.475  0.00  0.00    -0.166 NA
ATOM      6  C   UNL     1      35.788 -18.661 -20.788  0.00  0.00    +0.026 C 
ATOM      7  C   UNL     1      35.787 -17.363 -20.337  0.00  0.00    +0.046 C 
ATOM      8  C   UNL     1      35.284 -16.634 -21.418  0.00  0.00    +0.154 C 
ATOM      9  C   UNL     1      34.613 -14.434 -22.435  0.00  0.00    +0.309 C 
ATOM     10  H   UNL     1      34.918 -12.909 -21.105  0.00  0.00    +0.156 HD
ATOM     11  H   UNL     1      35.196 -19.413 -22.625  0.00  0.00    +0.174 HD
ATOM     12  H   UNL     1      35.362 -14.784 -20.570  0.00  0.00    +0.158 HD
ENDROOT
BRANCH   2  22
ATOM     13  O   UNL     1      31.529  -8.037 -22.420  0.00  0.00    -0.270 OA
ATOM     14  N   UNL     1      32.079  -9.672 -20.814  0.00  0.00    -0.274 N 
ATOM     15  C   UNL     1      32.882 -10.882 -20.756  0.00  0.00    +0.100 C 
ATOM     16  C   UNL     1      31.880 -11.901 -20.235  0.00  0.00    +0.026 C 
ATOM     17  C   UNL     1      31.073 -11.066 -19.228  0.00  0.00    +0.024 C 
ATOM     18  C   UNL     1      30.971  -9.683 -19.880  0.00  0.00    +0.094 C 
ATOM     19  C   UNL     1      33.393 -10.980 -22.148  0.00  0.00    +0.014 C 
ATOM     20  C   UNL     1      33.007  -9.850 -22.881  0.00  0.00    +0.052 C 
ATOM     21  C   UNL     1      32.131  -9.023 -22.036  0.00  0.00    +0.249 C 
ATOM     22  C   UNL     1      34.180 -11.955 -22.731  0.00  0.00    +0.049 C 
ATOM     23  C   UNL     1      33.369  -9.658 -24.199  0.00  0.00    +0.004 C 
ATOM     24  C   UNL     1      34.563 -11.780 -24.065  0.00  0.00    +0.014 C 
ATOM     25  C   UNL     1      34.163 -10.641 -24.791  0.00  0.00    +0.001 C 
ENDBRANCH   2  22
BRANCH   6  27
ATOM     26  N   UNL     1      36.926 -19.725 -18.871  0.00  0.00    +0.388 N 
ATOM     27  C   UNL     1      36.204 -19.957 -20.131  0.00  0.00    -0.023 C 
ATOM     28  C   UNL     1      35.018 -20.859 -19.764  0.00  0.00    -0.018 C 
ATOM     29  C   UNL     1      35.177 -21.129 -18.276  0.00  0.00    -0.025 C 
ATOM     30  C   UNL     1      36.648 -20.879 -18.021  0.00  0.00    -0.081 C 
ATOM     31  H   UNL     1      36.593 -18.870 -18.424  0.00  0.00    -0.084 HD
ATOM     32  H   UNL     1      37.928 -19.614 -19.031  0.00  0.00    -0.084 HD
ENDBRANCH   6  27
TORSDOF 2
ENDMDL
MODEL 6
REMARK VINA RESULT:     -10.5      2.835      9.670
REMARK  Name = 445841
REMARK  2 active torsions:
REMARK  status: ('A' for Active; 'I' for Inactive)
REMARK    1  A    between atoms: N_2  and  C_22
REMARK    2  A    between atoms: C_6  and  C_27
REMARK                            x       y       z     vdW  Elec       q    Type
REMARK                         _______ _______ _______ _____ _____    ______ ____
ROOT
ATOM      1  O   UNL     1      37.002 -19.417 -18.626  0.00  0.00    -0.252 OA
ATOM      2  N   UNL     1      35.423 -21.092 -18.198  0.00  0.00    -0.268 N 
ATOM      3  N   UNL     1      36.384 -17.359 -22.232  0.00  0.00    -0.241 N 
ATOM      4  N   UNL     1      35.261 -19.838 -20.131  0.00  0.00    -0.252 N 
ATOM      5  N   UNL     1      36.528 -18.055 -21.091  0.00  0.00    -0.166 NA
ATOM      6  C   UNL     1      35.311 -17.743 -22.980  0.00  0.00    +0.026 C 
ATOM      7  C   UNL     1      34.711 -18.762 -22.281  0.00  0.00    +0.046 C 
ATOM      8  C   UNL     1      35.506 -18.899 -21.140  0.00  0.00    +0.154 C 
ATOM      9  C   UNL     1      36.001 -20.044 -18.957  0.00  0.00    +0.309 C 
ATOM     10  H   UNL     1      34.619 -21.507 -18.588  0.00  0.00    +0.156 HD
ATOM     11  H   UNL     1      36.996 -16.637 -22.502  0.00  0.00    +0.174 HD
ATOM     12  H   UNL     1      34.478 -20.420 -20.260  0.00  0.00    +0.158 HD
ENDROOT
BRANCH   2  22
ATOM     13  O   UNL     1      34.354 -24.067 -13.199  0.00  0.00    -0.270 OA
ATOM     14  N   UNL     1      33.266 -23.507 -15.214  0.00  0.00    -0.274 N 
ATOM     15  C   UNL     1      33.593 -22.803 -16.443  0.00  0.00    +0.100 C 
ATOM     16  C   UNL     1      32.478 -21.772 -16.523  0.00  0.00    +0.026 C 
ATOM     17  C   UNL     1      31.272 -22.568 -15.997  0.00  0.00    +0.024 C 
ATOM     18  C   UNL     1      31.855 -23.448 -14.887  0.00  0.00    +0.094 C 
ATOM     19  C   UNL     1      34.993 -22.374 -16.188  0.00  0.00    +0.014 C 
ATOM     20  C   UNL     1      35.443 -22.904 -14.972  0.00  0.00    +0.052 C 
ATOM     21  C   UNL     1      34.322 -23.604 -14.325  0.00  0.00    +0.249 C 
ATOM     22  C   UNL     1      35.839 -21.615 -16.975  0.00  0.00    +0.049 C 
ATOM     23  C   UNL     1      36.722 -22.691 -14.496  0.00  0.00    +0.004 C 
ATOM     24  C   UNL     1      37.141 -21.391 -16.515  0.00  0.00    +0.014 C 
ATOM     25  C   UNL     1      37.578 -21.926 -15.287  0.00  0.00    +0.001 C 
ENDBRANCH   2  22
BRANCH   6  27
ATOM     26  N   UNL     1      33.598 -17.399 -24.728  0.00  0.00    +0.388 N 
ATOM     27  C   UNL     1      34.971 -17.086 -24.298  0.00  0.00    -0.023 C 
ATOM     28  C   UNL     1      35.046 -15.555 -24.250  0.00  0.00    -0.018 C 
ATOM     29  C   UNL     1      33.679 -15.080 -24.717  0.00  0.00    -0.025 C 
ATOM     30  C   UNL     1      33.143 -16.254 -25.509  0.00  0.00    -0.081 C 
ATOM     31  H   UNL     1      32.996 -17.533 -23.915  0.00  0.00    -0.084 HD
ATOM     32  H   UNL     1      33.567 -18.259 -25.275  0.00  0.00    -0.084 HD
ENDBRANCH   6  27
TORSDOF 2
ENDMDL
MODEL 7
REMARK VINA RESULT:      -9.7      2.952      9.816
REMARK  Name = 445841
REMARK  2 active torsions:
REMARK  status: ('A' for Active; 'I' for Inactive)
REMARK    1  A    between atoms: N_2  and  C_22
REMARK    2  A    between atoms: C_6  and  C_27
REMARK                            x       y       z     vdW  Elec       q    Type
REMARK                         _______ _______ _______ _____ _____    ______ ____
ROOT
ATOM      1  O   UNL     1      37.183 -19.967 -17.416  0.00  0.00    -0.252 OA
ATOM      2  N   UNL     1      35.578 -21.639 -17.081  0.00  0.00    -0.268 N 
ATOM      3  N   UNL     1      36.837 -17.970 -21.092  0.00  0.00    -0.241 N 
ATOM      4  N   UNL     1      35.562 -20.417 -19.041  0.00  0.00    -0.252 N 
ATOM      5  N   UNL     1      36.895 -18.646 -19.931  0.00  0.00    -0.166 NA
ATOM      6  C   UNL     1      35.825 -18.369 -21.913  0.00  0.00    +0.026 C 
ATOM      7  C   UNL     1      35.175 -19.378 -21.244  0.00  0.00    +0.046 C 
ATOM      8  C   UNL     1      35.881 -19.494 -20.044  0.00  0.00    +0.154 C 
ATOM      9  C   UNL     1      36.211 -20.601 -17.811  0.00  0.00    +0.309 C 
ATOM     10  H   UNL     1      34.806 -22.061 -17.523  0.00  0.00    +0.156 HD
ATOM     11  H   UNL     1      37.467 -17.251 -21.327  0.00  0.00    +0.174 HD
ATOM     12  H   UNL     1      34.791 -21.003 -19.219  0.00  0.00    +0.158 HD
ENDROOT
BRANCH   2  22
ATOM     13  O   UNL     1      34.062 -24.264 -12.003  0.00  0.00    -0.270 OA
ATOM     14  N   UNL     1      33.102 -23.700 -14.080  0.00  0.00    -0.274 N 
ATOM     15  C   UNL     1      33.536 -23.088 -15.324  0.00  0.00    +0.100 C 
ATOM     16  C   UNL     1      32.526 -21.962 -15.492  0.00  0.00    +0.026 C 
ATOM     17  C   UNL     1      31.234 -22.617 -14.979  0.00  0.00    +0.024 C 
ATOM     18  C   UNL     1      31.693 -23.495 -13.810  0.00  0.00    +0.094 C 
ATOM     19  C   UNL     1      34.960 -22.779 -15.035  0.00  0.00    +0.014 C 
ATOM     20  C   UNL     1      35.317 -23.291 -13.781  0.00  0.00    +0.052 C 
ATOM     21  C   UNL     1      34.113 -23.853 -13.147  0.00  0.00    +0.249 C 
ATOM     22  C   UNL     1      35.900 -22.140 -15.821  0.00  0.00    +0.049 C 
ATOM     23  C   UNL     1      36.592 -23.176 -13.265  0.00  0.00    +0.004 C 
ATOM     24  C   UNL     1      37.202 -22.017 -15.322  0.00  0.00    +0.014 C 
ATOM     25  C   UNL     1      37.544 -22.532 -14.056  0.00  0.00    +0.001 C 
ENDBRANCH   2  22
BRANCH   6  27
ATOM     26  N   UNL     1      34.283 -18.126 -23.828  0.00  0.00    +0.388 N 
ATOM     27  C   UNL     1      35.585 -17.735 -23.264  0.00  0.00    -0.023 C 
ATOM     28  C   UNL     1      35.569 -16.201 -23.219  0.00  0.00    -0.018 C 
ATOM     29  C   UNL     1      34.232 -15.806 -23.828  0.00  0.00    -0.025 C 
ATOM     30  C   UNL     1      33.847 -17.010 -24.661  0.00  0.00    -0.081 C 
ATOM     31  H   UNL     1      33.609 -18.293 -23.081  0.00  0.00    -0.084 HD
ATOM     32  H   UNL     1      34.356 -18.988 -24.370  0.00  0.00    -0.084 HD
ENDBRANCH   6  27
TORSDOF 2
ENDMDL
MODEL 8
REMARK VINA RESULT:      -9.7      5.737     12.136
REMARK  Name = 445841
REMARK  2 active torsions:
REMARK  status: ('A' for Active; 'I' for Inactive)
REMARK    1  A    between atoms: N_2  and  C_22
REMARK    2  A    between atoms: C_6  and  C_27
REMARK                            x       y       z     vdW  Elec       q    Type
REMARK                         _______ _______ _______ _____ _____    ______ ____
ROOT
ATOM      1  O   UNL     1      32.600 -11.785 -21.061  0.00  0.00    -0.252 OA
ATOM      2  N   UNL     1      34.530 -12.529 -22.159  0.00  0.00    -0.268 N 
ATOM      3  N   UNL     1      31.228  -8.035 -22.356  0.00  0.00    -0.241 N 
ATOM      4  N   UNL     1      33.609 -10.487 -22.726  0.00  0.00    -0.252 N 
ATOM      5  N   UNL     1      31.717  -9.231 -21.986  0.00  0.00    -0.166 NA
ATOM      6  C   UNL     1      31.948  -7.426 -23.341  0.00  0.00    +0.026 C 
ATOM      7  C   UNL     1      32.981  -8.283 -23.636  0.00  0.00    +0.046 C 
ATOM      8  C   UNL     1      32.777  -9.362 -22.772  0.00  0.00    +0.154 C 
ATOM      9  C   UNL     1      33.482 -11.611 -21.895  0.00  0.00    +0.309 C 
ATOM     10  H   UNL     1      35.169 -12.256 -22.857  0.00  0.00    +0.156 HD
ATOM     11  H   UNL     1      30.424  -7.635 -21.953  0.00  0.00    +0.174 HD
ATOM     12  H   UNL     1      34.372 -10.490 -23.349  0.00  0.00    +0.158 HD
ENDROOT
BRANCH   2  22
ATOM     13  O   UNL     1      35.193 -18.397 -22.476  0.00  0.00    -0.270 OA
ATOM     14  N   UNL     1      34.890 -16.552 -23.911  0.00  0.00    -0.274 N 
ATOM     15  C   UNL     1      34.776 -15.109 -23.783  0.00  0.00    +0.100 C 
ATOM     16  C   UNL     1      33.467 -14.830 -24.508  0.00  0.00    +0.026 C 
ATOM     17  C   UNL     1      33.532 -15.831 -25.673  0.00  0.00    +0.024 C 
ATOM     18  C   UNL     1      34.190 -17.075 -25.067  0.00  0.00    +0.094 C 
ATOM     19  C   UNL     1      34.871 -14.922 -22.312  0.00  0.00    +0.014 C 
ATOM     20  C   UNL     1      35.140 -16.147 -21.689  0.00  0.00    +0.052 C 
ATOM     21  C   UNL     1      35.118 -17.205 -22.712  0.00  0.00    +0.249 C 
ATOM     22  C   UNL     1      34.778 -13.764 -21.563  0.00  0.00    +0.049 C 
ATOM     23  C   UNL     1      35.310 -16.267 -20.324  0.00  0.00    +0.004 C 
ATOM     24  C   UNL     1      34.952 -13.860 -20.178  0.00  0.00    +0.014 C 
ATOM     25  C   UNL     1      35.217 -15.100 -19.565  0.00  0.00    +0.001 C 
ENDBRANCH   2  22
BRANCH   6  27
ATOM     26  N   UNL     1      31.678  -5.012 -22.892  0.00  0.00    +0.388 N 
ATOM     27  C   UNL     1      31.565  -6.076 -23.902  0.00  0.00    -0.023 C 
ATOM     28  C   UNL     1      32.456  -5.630 -25.069  0.00  0.00    -0.018 C 
ATOM     29  C   UNL     1      32.997  -4.271 -24.652  0.00  0.00    -0.025 C 
ATOM     30  C   UNL     1      31.999  -3.789 -23.620  0.00  0.00    -0.081 C 
ATOM     31  H   UNL     1      32.421  -5.232 -22.228  0.00  0.00    -0.084 HD
ATOM     32  H   UNL     1      30.814  -4.912 -22.359  0.00  0.00    -0.084 HD
ENDBRANCH   6  27
TORSDOF 2
ENDMDL
MODEL 9
REMARK VINA RESULT:      -9.7      4.257      9.839
REMARK  Name = 445841
REMARK  2 active torsions:
REMARK  status: ('A' for Active; 'I' for Inactive)
REMARK    1  A    between atoms: N_2  and  C_22
REMARK    2  A    between atoms: C_6  and  C_27
REMARK                            x       y       z     vdW  Elec       q    Type
REMARK                         _______ _______ _______ _____ _____    ______ ____
ROOT
ATOM      1  O   UNL     1      33.433 -22.753 -17.702  0.00  0.00    -0.252 OA
ATOM      2  N   UNL     1      31.492 -21.713 -16.906  0.00  0.00    -0.268 N 
ATOM      3  N   UNL     1      35.589 -20.463 -20.482  0.00  0.00    -0.241 N 
ATOM      4  N   UNL     1      32.825 -20.619 -18.444  0.00  0.00    -0.252 N 
ATOM      5  N   UNL     1      34.855 -21.146 -19.587  0.00  0.00    -0.166 NA
ATOM      6  C   UNL     1      35.079 -19.237 -20.792  0.00  0.00    +0.026 C 
ATOM      7  C   UNL     1      33.930 -19.109 -20.050  0.00  0.00    +0.046 C 
ATOM      8  C   UNL     1      33.856 -20.310 -19.339  0.00  0.00    +0.154 C 
ATOM      9  C   UNL     1      32.670 -21.793 -17.691  0.00  0.00    +0.309 C 
ATOM     10  H   UNL     1      30.974 -20.880 -16.999  0.00  0.00    +0.156 HD
ATOM     11  H   UNL     1      36.420 -20.814 -20.876  0.00  0.00    +0.174 HD
ATOM     12  H   UNL     1      32.128 -19.932 -18.329  0.00  0.00    +0.158 HD
ENDROOT
BRANCH   2  22
ATOM     13  O   UNL     1      31.878 -24.996 -12.003  0.00  0.00    -0.270 OA
ATOM     14  N   UNL     1      33.071 -23.293 -13.112  0.00  0.00    -0.274 N 
ATOM     15  C   UNL     1      32.907 -22.480 -14.306  0.00  0.00    +0.100 C 
ATOM     16  C   UNL     1      34.217 -22.729 -15.040  0.00  0.00    +0.026 C 
ATOM     17  C   UNL     1      35.223 -22.792 -13.880  0.00  0.00    +0.024 C 
ATOM     18  C   UNL     1      34.460 -23.500 -12.755  0.00  0.00    +0.094 C 
ATOM     19  C   UNL     1      31.629 -22.999 -14.859  0.00  0.00    +0.014 C 
ATOM     20  C   UNL     1      31.070 -23.933 -13.977  0.00  0.00    +0.052 C 
ATOM     21  C   UNL     1      32.013 -24.152 -12.869  0.00  0.00    +0.249 C 
ATOM     22  C   UNL     1      30.968 -22.653 -16.022  0.00  0.00    +0.049 C 
ATOM     23  C   UNL     1      29.863 -24.557 -14.222  0.00  0.00    +0.004 C 
ATOM     24  C   UNL     1      29.740 -23.269 -16.289  0.00  0.00    +0.014 C 
ATOM     25  C   UNL     1      29.193 -24.211 -15.396  0.00  0.00    +0.001 C 
ENDBRANCH   2  22
BRANCH   6  27
ATOM     26  N   UNL     1      34.947 -18.117 -22.991  0.00  0.00    +0.388 N 
ATOM     27  C   UNL     1      35.754 -18.308 -21.776  0.00  0.00    -0.023 C 
ATOM     28  C   UNL     1      35.992 -16.900 -21.215  0.00  0.00    -0.018 C 
ATOM     29  C   UNL     1      35.321 -15.964 -22.210  0.00  0.00    -0.025 C 
ATOM     30  C   UNL     1      35.259 -16.780 -23.484  0.00  0.00    -0.081 C 
ATOM     31  H   UNL     1      33.953 -18.189 -22.770  0.00  0.00    -0.084 HD
ATOM     32  H   UNL     1      35.154 -18.830 -23.691  0.00  0.00    -0.084 HD
ENDBRANCH   6  27
TORSDOF 2
ENDMDL
