MODEL 1
REMARK VINA RESULT:     -12.4      0.000      0.000
REMARK  Name = 5073
REMARK  4 active torsions:
REMARK  status: ('A' for Active; 'I' for Inactive)
REMARK    1  A    between atoms: N_1  and  C_18
REMARK    2  A    between atoms: C_2  and  C_11
REMARK    3  A    between atoms: C_18  and  C_19
REMARK    4  A    between atoms: C_19  and  C_23
REMARK                            x       y       z     vdW  Elec       q    Type
REMARK                         _______ _______ _______ _____ _____    ______ ____
ROOT
ATOM      1  N   UNL     1      35.008 -20.895 -18.156  0.00  0.00    +0.387 N 
ATOM      2  C   UNL     1      35.199 -19.576 -20.770  0.00  0.00    +0.039 C 
ATOM      3  C   UNL     1      33.863 -19.752 -20.029  0.00  0.00    -0.017 C 
ATOM      4  C   UNL     1      36.359 -19.581 -19.760  0.00  0.00    -0.017 C 
ATOM      5  C   UNL     1      33.894 -20.976 -19.112  0.00  0.00    -0.077 C 
ATOM      6  C   UNL     1      36.299 -20.812 -18.852  0.00  0.00    -0.077 C 
ATOM      7  H   UNL     1      34.890 -20.043 -17.608  0.00  0.00    -0.080 HD
ENDROOT
BRANCH   2  11
ATOM      8  F   UNL     1      34.985 -12.892 -21.474  0.00  0.00    -0.204 F 
ATOM      9  O   UNL     1      35.293 -17.238 -23.510  0.00  0.00    -0.354 OA
ATOM     10  N   UNL     1      35.309 -18.525 -22.986  0.00  0.00    -0.081 NA
ATOM     11  C   UNL     1      35.212 -18.360 -21.669  0.00  0.00    +0.100 A 
ATOM     12  C   UNL     1      35.132 -17.013 -21.287  0.00  0.00    +0.054 A 
ATOM     13  C   UNL     1      35.189 -16.338 -22.495  0.00  0.00    +0.179 A 
ATOM     14  C   UNL     1      35.023 -16.276 -20.099  0.00  0.00    +0.007 C 
ATOM     15  C   UNL     1      35.144 -14.952 -22.621  0.00  0.00    +0.070 C 
ATOM     16  C   UNL     1      34.974 -14.877 -20.189  0.00  0.00    +0.030 C 
ATOM     17  C   UNL     1      35.034 -14.230 -21.428  0.00  0.00    +0.143 C 
ENDBRANCH   2  11
BRANCH   1  18
ATOM     18  C   UNL     1      34.988 -22.043 -17.250  0.00  0.00    -0.076 C 
BRANCH  18  19
ATOM     19  C   UNL     1      35.347 -21.595 -15.840  0.00  0.00    -0.007 C 
BRANCH  19  23
ATOM     20  O   UNL     1      38.123 -21.785 -15.872  0.00  0.00    -0.274 OA
ATOM     21  N   UNL     1      38.227 -23.678 -14.519  0.00  0.00    -0.237 N 
ATOM     22  N   UNL     1      36.219 -24.675 -13.763  0.00  0.00    -0.399 NA
ATOM     23  C   UNL     1      36.073 -22.683 -15.102  0.00  0.00    +0.123 C 
ATOM     24  C   UNL     1      39.685 -23.740 -14.667  0.00  0.00    +0.100 C 
ATOM     25  C   UNL     1      40.392 -24.607 -13.642  0.00  0.00    +0.022 C 
ATOM     26  C   UNL     1      37.512 -24.651 -13.844  0.00  0.00    +0.165 C 
ATOM     27  C   UNL     1      39.689 -25.946 -13.557  0.00  0.00    +0.011 C 
ATOM     28  C   UNL     1      38.267 -25.727 -13.086  0.00  0.00    +0.075 C 
ATOM     29  C   UNL     1      37.566 -22.657 -15.206  0.00  0.00    +0.237 C 
ATOM     30  C   UNL     1      35.511 -23.681 -14.394  0.00  0.00    +0.096 C 
ATOM     31  C   UNL     1      34.023 -23.802 -14.190  0.00  0.00    +0.062 C 
ENDBRANCH  19  23
ENDBRANCH  18  19
ENDBRANCH   1  18
TORSDOF 4
ENDMDL
MODEL 2
REMARK VINA RESULT:     -12.3      2.782      4.221
REMARK  Name = 5073
REMARK  4 active torsions:
REMARK  status: ('A' for Active; 'I' for Inactive)
REMARK    1  A    between atoms: N_1  and  C_18
REMARK    2  A    between atoms: C_2  and  C_11
REMARK    3  A    between atoms: C_18  and  C_19
REMARK    4  A    between atoms: C_19  and  C_23
REMARK                            x       y       z     vdW  Elec       q    Type
REMARK                         _______ _______ _______ _____ _____    ______ ____
ROOT
ATOM      1  N   UNL     1      36.007 -19.006 -19.834  0.00  0.00    +0.387 N 
ATOM      2  C   UNL     1      35.383 -18.059 -22.540  0.00  0.00    +0.039 C 
ATOM      3  C   UNL     1      34.306 -18.601 -21.585  0.00  0.00    -0.017 C 
ATOM      4  C   UNL     1      36.573 -17.519 -21.730  0.00  0.00    -0.017 C 
ATOM      5  C   UNL     1      34.898 -19.603 -20.591  0.00  0.00    -0.077 C 
ATOM      6  C   UNL     1      37.082 -18.561 -20.731  0.00  0.00    -0.077 C 
ATOM      7  H   UNL     1      35.648 -18.188 -19.342  0.00  0.00    -0.080 HD
ENDROOT
BRANCH   2  11
ATOM      8  F   UNL     1      33.734 -11.704 -23.991  0.00  0.00    -0.204 F 
ATOM      9  O   UNL     1      34.011 -16.303 -25.370  0.00  0.00    -0.354 OA
ATOM     10  N   UNL     1      34.452 -17.453 -24.730  0.00  0.00    -0.081 NA
ATOM     11  C   UNL     1      34.837 -17.047 -23.522  0.00  0.00    +0.100 A 
ATOM     12  C   UNL     1      34.671 -15.669 -23.326  0.00  0.00    +0.054 A 
ATOM     13  C   UNL     1      34.142 -15.239 -24.531  0.00  0.00    +0.179 A 
ATOM     14  C   UNL     1      34.892 -14.731 -22.307  0.00  0.00    +0.007 C 
ATOM     15  C   UNL     1      33.807 -13.918 -24.814  0.00  0.00    +0.070 C 
ATOM     16  C   UNL     1      34.565 -13.391 -22.557  0.00  0.00    +0.030 C 
ATOM     17  C   UNL     1      34.034 -12.994 -23.788  0.00  0.00    +0.143 C 
ENDBRANCH   2  11
BRANCH   1  18
ATOM     18  C   UNL     1      36.523 -19.957 -18.849  0.00  0.00    -0.076 C 
BRANCH  18  19
ATOM     19  C   UNL     1      35.781 -21.280 -18.970  0.00  0.00    -0.007 C 
BRANCH  19  23
ATOM     20  O   UNL     1      33.072 -21.828 -18.652  0.00  0.00    -0.274 OA
ATOM     21  N   UNL     1      33.219 -22.341 -16.384  0.00  0.00    -0.237 N 
ATOM     22  N   UNL     1      35.309 -22.168 -15.289  0.00  0.00    -0.399 NA
ATOM     23  C   UNL     1      35.210 -21.695 -17.646  0.00  0.00    +0.123 C 
ATOM     24  C   UNL     1      31.766 -22.526 -16.302  0.00  0.00    +0.100 C 
ATOM     25  C   UNL     1      31.290 -23.277 -15.072  0.00  0.00    +0.022 C 
ATOM     26  C   UNL     1      34.036 -22.407 -15.270  0.00  0.00    +0.165 C 
ATOM     27  C   UNL     1      31.941 -22.679 -13.843  0.00  0.00    +0.011 C 
ATOM     28  C   UNL     1      33.442 -22.852 -13.946  0.00  0.00    +0.075 C 
ATOM     29  C   UNL     1      33.737 -21.961 -17.624  0.00  0.00    +0.237 C 
ATOM     30  C   UNL     1      35.886 -21.817 -16.486  0.00  0.00    +0.096 C 
ATOM     31  C   UNL     1      37.373 -21.606 -16.381  0.00  0.00    +0.062 C 
ENDBRANCH  19  23
ENDBRANCH  18  19
ENDBRANCH   1  18
TORSDOF 4
ENDMDL
MODEL 3
REMARK VINA RESULT:     -12.2      0.900      1.328
REMARK  Name = 5073
REMARK  4 active torsions:
REMARK  status: ('A' for Active; 'I' for Inactive)
REMARK    1  A    between atoms: N_1  and  C_18
REMARK    2  A    between atoms: C_2  and  C_11
REMARK    3  A    between atoms: C_18  and  C_19
REMARK    4  A    between atoms: C_19  and  C_23
REMARK                            x       y       z     vdW  Elec       q    Type
REMARK                         _______ _______ _______ _____ _____    ______ ____
ROOT
ATOM      1  N   UNL     1      34.643 -21.665 -18.742  0.00  0.00    +0.387 N 
ATOM      2  C   UNL     1      34.916 -19.088 -20.119  0.00  0.00    +0.039 C 
ATOM      3  C   UNL     1      36.079 -20.087 -19.998  0.00  0.00    -0.017 C 
ATOM      4  C   UNL     1      33.575 -19.834 -20.022  0.00  0.00    -0.017 C 
ATOM      5  C   UNL     1      35.933 -20.960 -18.749  0.00  0.00    -0.077 C 
ATOM      6  C   UNL     1      33.521 -20.716 -18.772  0.00  0.00    -0.077 C 
ATOM      7  H   UNL     1      34.594 -22.238 -19.584  0.00  0.00    -0.080 HD
ENDROOT
BRANCH   2  11
ATOM      8  F   UNL     1      35.029 -12.977 -22.922  0.00  0.00    -0.204 F 
ATOM      9  O   UNL     1      35.212 -17.753 -23.452  0.00  0.00    -0.354 OA
ATOM     10  N   UNL     1      35.152 -18.804 -22.547  0.00  0.00    -0.081 NA
ATOM     11  C   UNL     1      35.015 -18.224 -21.356  0.00  0.00    +0.100 A 
ATOM     12  C   UNL     1      34.983 -16.824 -21.427  0.00  0.00    +0.054 A 
ATOM     13  C   UNL     1      35.113 -16.572 -22.783  0.00  0.00    +0.179 A 
ATOM     14  C   UNL     1      34.865 -15.743 -20.542  0.00  0.00    +0.007 C 
ATOM     15  C   UNL     1      35.135 -15.299 -23.345  0.00  0.00    +0.070 C 
ATOM     16  C   UNL     1      34.882 -14.445 -21.075  0.00  0.00    +0.030 C 
ATOM     17  C   UNL     1      35.015 -14.231 -22.450  0.00  0.00    +0.143 C 
ENDBRANCH   2  11
BRANCH   1  18
ATOM     18  C   UNL     1      34.544 -22.538 -17.573  0.00  0.00    -0.076 C 
BRANCH  18  19
ATOM     19  C   UNL     1      34.770 -21.729 -16.303  0.00  0.00    -0.007 C 
BRANCH  19  23
ATOM     20  O   UNL     1      37.493 -22.215 -15.997  0.00  0.00    -0.274 OA
ATOM     21  N   UNL     1      37.260 -23.587 -14.129  0.00  0.00    -0.237 N 
ATOM     22  N   UNL     1      35.094 -24.075 -13.311  0.00  0.00    -0.399 NA
ATOM     23  C   UNL     1      35.298 -22.600 -15.201  0.00  0.00    +0.123 C 
ATOM     24  C   UNL     1      38.703 -23.848 -14.105  0.00  0.00    +0.100 C 
ATOM     25  C   UNL     1      39.222 -24.420 -12.799  0.00  0.00    +0.022 C 
ATOM     26  C   UNL     1      36.380 -24.216 -13.266  0.00  0.00    +0.165 C 
ATOM     27  C   UNL     1      38.344 -25.581 -12.381  0.00  0.00    +0.011 C 
ATOM     28  C   UNL     1      36.937 -25.073 -12.144  0.00  0.00    +0.075 C 
ATOM     29  C   UNL     1      36.784 -22.769 -15.157  0.00  0.00    +0.237 C 
ATOM     30  C   UNL     1      34.564 -23.259 -14.282  0.00  0.00    +0.096 C 
ATOM     31  C   UNL     1      33.064 -23.149 -14.201  0.00  0.00    +0.062 C 
ENDBRANCH  19  23
ENDBRANCH  18  19
ENDBRANCH   1  18
TORSDOF 4
ENDMDL
MODEL 4
REMARK VINA RESULT:     -12.1      1.832      2.609
REMARK  Name = 5073
REMARK  4 active torsions:
REMARK  status: ('A' for Active; 'I' for Inactive)
REMARK    1  A    between atoms: N_1  and  C_18
REMARK    2  A    between atoms: C_2  and  C_11
REMARK    3  A    between atoms: C_18  and  C_19
REMARK    4  A    between atoms: C_19  and  C_23
REMARK                            x       y       z     vdW  Elec       q    Type
REMARK                         _______ _______ _______ _____ _____    ______ ____
ROOT
ATOM      1  N   UNL     1      34.696 -21.146 -18.196  0.00  0.00    +0.387 N 
ATOM      2  C   UNL     1      35.035 -19.444 -20.562  0.00  0.00    +0.039 C 
ATOM      3  C   UNL     1      33.704 -19.541 -19.798  0.00  0.00    -0.017 C 
ATOM      4  C   UNL     1      36.201 -19.796 -19.624  0.00  0.00    -0.017 C 
ATOM      5  C   UNL     1      33.562 -20.894 -19.098  0.00  0.00    -0.077 C 
ATOM      6  C   UNL     1      35.968 -21.141 -18.931  0.00  0.00    -0.077 C 
ATOM      7  H   UNL     1      34.725 -20.393 -17.510  0.00  0.00    -0.080 HD
ENDROOT
BRANCH   2  11
ATOM      8  F   UNL     1      34.124 -15.525 -25.950  0.00  0.00    -0.204 F 
ATOM      9  O   UNL     1      35.845 -16.059 -21.491  0.00  0.00    -0.354 OA
ATOM     10  N   UNL     1      35.844 -17.126 -20.602  0.00  0.00    -0.081 NA
ATOM     11  C   UNL     1      35.218 -18.108 -21.247  0.00  0.00    +0.100 A 
ATOM     12  C   UNL     1      34.799 -17.742 -22.534  0.00  0.00    +0.054 A 
ATOM     13  C   UNL     1      35.220 -16.427 -22.642  0.00  0.00    +0.179 A 
ATOM     14  C   UNL     1      34.125 -18.332 -23.613  0.00  0.00    +0.007 C 
ATOM     15  C   UNL     1      35.022 -15.631 -23.766  0.00  0.00    +0.070 C 
ATOM     16  C   UNL     1      33.909 -17.558 -24.763  0.00  0.00    +0.030 C 
ATOM     17  C   UNL     1      34.350 -16.233 -24.835  0.00  0.00    +0.143 C 
ENDBRANCH   2  11
BRANCH   1  18
ATOM     18  C   UNL     1      34.516 -22.417 -17.493  0.00  0.00    -0.076 C 
BRANCH  18  19
ATOM     19  C   UNL     1      34.649 -22.200 -15.992  0.00  0.00    -0.007 C 
BRANCH  19  23
ATOM     20  O   UNL     1      34.916 -24.675 -14.750  0.00  0.00    -0.274 OA
ATOM     21  N   UNL     1      37.210 -24.491 -14.390  0.00  0.00    -0.237 N 
ATOM     22  N   UNL     1      38.332 -22.515 -15.048  0.00  0.00    -0.399 NA
ATOM     23  C   UNL     1      35.976 -22.695 -15.496  0.00  0.00    +0.123 C 
ATOM     24  C   UNL     1      37.230 -25.772 -13.675  0.00  0.00    +0.100 C 
ATOM     25  C   UNL     1      38.607 -26.389 -13.516  0.00  0.00    +0.022 C 
ATOM     26  C   UNL     1      38.331 -23.687 -14.497  0.00  0.00    +0.165 C 
ATOM     27  C   UNL     1      39.565 -25.338 -12.995  0.00  0.00    +0.011 C 
ATOM     28  C   UNL     1      39.667 -24.218 -14.010  0.00  0.00    +0.075 C 
ATOM     29  C   UNL     1      35.969 -24.046 -14.852  0.00  0.00    +0.237 C 
ATOM     30  C   UNL     1      37.147 -22.031 -15.548  0.00  0.00    +0.096 C 
ATOM     31  C   UNL     1      37.293 -20.679 -16.195  0.00  0.00    +0.062 C 
ENDBRANCH  19  23
ENDBRANCH  18  19
ENDBRANCH   1  18
TORSDOF 4
ENDMDL
MODEL 5
REMARK VINA RESULT:     -12.1      2.061      2.643
REMARK  Name = 5073
REMARK  4 active torsions:
REMARK  status: ('A' for Active; 'I' for Inactive)
REMARK    1  A    between atoms: N_1  and  C_18
REMARK    2  A    between atoms: C_2  and  C_11
REMARK    3  A    between atoms: C_18  and  C_19
REMARK    4  A    between atoms: C_19  and  C_23
REMARK                            x       y       z     vdW  Elec       q    Type
REMARK                         _______ _______ _______ _____ _____    ______ ____
ROOT
ATOM      1  N   UNL     1      34.485 -21.362 -17.996  0.00  0.00    +0.387 N 
ATOM      2  C   UNL     1      34.989 -19.611 -20.296  0.00  0.00    +0.039 C 
ATOM      3  C   UNL     1      33.590 -19.784 -19.680  0.00  0.00    -0.017 C 
ATOM      4  C   UNL     1      36.064 -19.919 -19.241  0.00  0.00    -0.017 C 
ATOM      5  C   UNL     1      33.443 -21.153 -19.012  0.00  0.00    -0.077 C 
ATOM      6  C   UNL     1      35.827 -21.283 -18.588  0.00  0.00    -0.077 C 
ATOM      7  H   UNL     1      34.401 -20.618 -17.303  0.00  0.00    -0.080 HD
ENDROOT
BRANCH   2  11
ATOM      8  F   UNL     1      34.419 -15.652 -25.701  0.00  0.00    -0.204 F 
ATOM      9  O   UNL     1      35.733 -16.181 -21.105  0.00  0.00    -0.354 OA
ATOM     10  N   UNL     1      35.696 -17.260 -20.232  0.00  0.00    -0.081 NA
ATOM     11  C   UNL     1      35.178 -18.259 -20.945  0.00  0.00    +0.100 A 
ATOM     12  C   UNL     1      34.866 -17.891 -22.261  0.00  0.00    +0.054 A 
ATOM     13  C   UNL     1      35.237 -16.558 -22.315  0.00  0.00    +0.179 A 
ATOM     14  C   UNL     1      34.324 -18.493 -23.407  0.00  0.00    +0.007 C 
ATOM     15  C   UNL     1      35.111 -15.753 -23.443  0.00  0.00    +0.070 C 
ATOM     16  C   UNL     1      34.183 -17.711 -24.562  0.00  0.00    +0.030 C 
ATOM     17  C   UNL     1      34.570 -16.367 -24.577  0.00  0.00    +0.143 C 
ENDBRANCH   2  11
BRANCH   1  18
ATOM     18  C   UNL     1      34.295 -22.649 -17.327  0.00  0.00    -0.076 C 
BRANCH  18  19
ATOM     19  C   UNL     1      33.266 -22.508 -16.214  0.00  0.00    -0.007 C 
BRANCH  19  23
ATOM     20  O   UNL     1      36.021 -22.601 -15.829  0.00  0.00    -0.274 OA
ATOM     21  N   UNL     1      35.905 -23.197 -13.580  0.00  0.00    -0.237 N 
ATOM     22  N   UNL     1      33.789 -23.536 -12.577  0.00  0.00    -0.399 NA
ATOM     23  C   UNL     1      33.866 -22.857 -14.884  0.00  0.00    +0.123 C 
ATOM     24  C   UNL     1      37.366 -23.300 -13.503  0.00  0.00    +0.100 C 
ATOM     25  C   UNL     1      37.929 -23.298 -12.094  0.00  0.00    +0.022 C 
ATOM     26  C   UNL     1      35.083 -23.535 -12.520  0.00  0.00    +0.165 C 
ATOM     27  C   UNL     1      37.161 -24.294 -11.251  0.00  0.00    +0.011 C 
ATOM     28  C   UNL     1      35.710 -23.862 -11.177  0.00  0.00    +0.075 C 
ATOM     29  C   UNL     1      35.362 -22.865 -14.823  0.00  0.00    +0.237 C 
ATOM     30  C   UNL     1      33.192 -23.190 -13.766  0.00  0.00    +0.096 C 
ATOM     31  C   UNL     1      31.688 -23.192 -13.688  0.00  0.00    +0.062 C 
ENDBRANCH  19  23
ENDBRANCH  18  19
ENDBRANCH   1  18
TORSDOF 4
ENDMDL
MODEL 6
REMARK VINA RESULT:     -12.0      4.906     12.294
REMARK  Name = 5073
REMARK  4 active torsions:
REMARK  status: ('A' for Active; 'I' for Inactive)
REMARK    1  A    between atoms: N_1  and  C_18
REMARK    2  A    between atoms: C_2  and  C_11
REMARK    3  A    between atoms: C_18  and  C_19
REMARK    4  A    between atoms: C_19  and  C_23
REMARK                            x       y       z     vdW  Elec       q    Type
REMARK                         _______ _______ _______ _____ _____    ______ ____
ROOT
ATOM      1  N   UNL     1      34.220 -14.963 -22.635  0.00  0.00    +0.387 N 
ATOM      2  C   UNL     1      35.942 -17.007 -21.425  0.00  0.00    +0.039 C 
ATOM      3  C   UNL     1      35.188 -15.961 -20.587  0.00  0.00    -0.017 C 
ATOM      4  C   UNL     1      35.216 -17.225 -22.763  0.00  0.00    -0.017 C 
ATOM      5  C   UNL     1      34.944 -14.679 -21.388  0.00  0.00    -0.077 C 
ATOM      6  C   UNL     1      34.971 -15.897 -23.484  0.00  0.00    -0.077 C 
ATOM      7  H   UNL     1      33.333 -15.403 -22.390  0.00  0.00    -0.080 HD
ENDROOT
BRANCH   2  11
ATOM      8  F   UNL     1      33.475 -22.416 -18.284  0.00  0.00    -0.204 F 
ATOM      9  O   UNL     1      37.298 -19.888 -19.740  0.00  0.00    -0.354 OA
ATOM     10  N   UNL     1      37.428 -18.694 -20.437  0.00  0.00    -0.081 NA
ATOM     11  C   UNL     1      36.179 -18.297 -20.672  0.00  0.00    +0.100 A 
ATOM     12  C   UNL     1      35.216 -19.178 -20.161  0.00  0.00    +0.054 A 
ATOM     13  C   UNL     1      35.978 -20.176 -19.577  0.00  0.00    +0.179 A 
ATOM     14  C   UNL     1      33.818 -19.273 -20.112  0.00  0.00    +0.007 C 
ATOM     15  C   UNL     1      35.450 -21.290 -18.931  0.00  0.00    +0.070 C 
ATOM     16  C   UNL     1      33.251 -20.382 -19.468  0.00  0.00    +0.030 C 
ATOM     17  C   UNL     1      34.053 -21.371 -18.890  0.00  0.00    +0.143 C 
ENDBRANCH   2  11
BRANCH   1  18
ATOM     18  C   UNL     1      33.944 -13.722 -23.359  0.00  0.00    -0.076 C 
BRANCH  18  19
ATOM     19  C   UNL     1      34.645 -12.557 -22.674  0.00  0.00    -0.007 C 
BRANCH  19  23
ATOM     20  O   UNL     1      34.957 -10.186 -24.098  0.00  0.00    -0.274 OA
ATOM     21  N   UNL     1      33.117  -9.119 -23.149  0.00  0.00    -0.237 N 
ATOM     22  N   UNL     1      31.853 -10.240 -21.492  0.00  0.00    -0.399 NA
ATOM     23  C   UNL     1      33.707 -11.399 -22.496  0.00  0.00    +0.123 C 
ATOM     24  C   UNL     1      33.416  -7.886 -23.884  0.00  0.00    +0.100 C 
ATOM     25  C   UNL     1      32.271  -6.893 -23.952  0.00  0.00    +0.022 C 
ATOM     26  C   UNL     1      32.096  -9.196 -22.219  0.00  0.00    +0.165 C 
ATOM     27  C   UNL     1      31.698  -6.701 -22.564  0.00  0.00    +0.011 C 
ATOM     28  C   UNL     1      31.144  -8.022 -22.072  0.00  0.00    +0.075 C 
ATOM     29  C   UNL     1      33.995 -10.190 -23.330  0.00  0.00    +0.237 C 
ATOM     30  C   UNL     1      32.665 -11.339 -21.643  0.00  0.00    +0.096 C 
ATOM     31  C   UNL     1      32.253 -12.496 -20.772  0.00  0.00    +0.062 C 
ENDBRANCH  19  23
ENDBRANCH  18  19
ENDBRANCH   1  18
TORSDOF 4
ENDMDL
MODEL 7
REMARK VINA RESULT:     -11.9      1.119      1.886
REMARK  Name = 5073
REMARK  4 active torsions:
REMARK  status: ('A' for Active; 'I' for Inactive)
REMARK    1  A    between atoms: N_1  and  C_18
REMARK    2  A    between atoms: C_2  and  C_11
REMARK    3  A    between atoms: C_18  and  C_19
REMARK    4  A    between atoms: C_19  and  C_23
REMARK                            x       y       z     vdW  Elec       q    Type
REMARK                         _______ _______ _______ _____ _____    ______ ____
ROOT
ATOM      1  N   UNL     1      34.888 -20.865 -18.603  0.00  0.00    +0.387 N 
ATOM      2  C   UNL     1      35.047 -19.331 -21.100  0.00  0.00    +0.039 C 
ATOM      3  C   UNL     1      33.738 -19.488 -20.309  0.00  0.00    -0.017 C 
ATOM      4  C   UNL     1      36.250 -19.501 -20.157  0.00  0.00    -0.017 C 
ATOM      5  C   UNL     1      33.728 -20.789 -19.503  0.00  0.00    -0.077 C 
ATOM      6  C   UNL     1      36.148 -20.802 -19.357  0.00  0.00    -0.077 C 
ATOM      7  H   UNL     1      34.853 -20.060 -17.978  0.00  0.00    -0.080 HD
ENDROOT
BRANCH   2  11
ATOM      8  F   UNL     1      34.986 -12.609 -21.225  0.00  0.00    -0.204 F 
ATOM      9  O   UNL     1      35.239 -16.769 -23.625  0.00  0.00    -0.354 OA
ATOM     10  N   UNL     1      35.218 -18.096 -23.215  0.00  0.00    -0.081 NA
ATOM     11  C   UNL     1      35.102 -18.043 -21.890  0.00  0.00    +0.100 A 
ATOM     12  C   UNL     1      35.044 -16.733 -21.394  0.00  0.00    +0.054 A 
ATOM     13  C   UNL     1      35.135 -15.957 -22.537  0.00  0.00    +0.179 A 
ATOM     14  C   UNL     1      34.929 -16.099 -20.148  0.00  0.00    +0.007 C 
ATOM     15  C   UNL     1      35.122 -14.565 -22.544  0.00  0.00    +0.070 C 
ATOM     16  C   UNL     1      34.911 -14.697 -20.118  0.00  0.00    +0.030 C 
ATOM     17  C   UNL     1      35.006 -13.947 -21.295  0.00  0.00    +0.143 C 
ENDBRANCH   2  11
BRANCH   1  18
ATOM     18  C   UNL     1      34.832 -22.087 -17.800  0.00  0.00    -0.076 C 
BRANCH  18  19
ATOM     19  C   UNL     1      34.837 -21.733 -16.320  0.00  0.00    -0.007 C 
BRANCH  19  23
ATOM     20  O   UNL     1      34.561 -24.105 -14.892  0.00  0.00    -0.274 OA
ATOM     21  N   UNL     1      36.796 -24.231 -14.246  0.00  0.00    -0.237 N 
ATOM     22  N   UNL     1      38.286 -22.506 -14.880  0.00  0.00    -0.399 NA
ATOM     23  C   UNL     1      36.001 -22.374 -15.622  0.00  0.00    +0.123 C 
ATOM     24  C   UNL     1      36.529 -25.435 -13.451  0.00  0.00    +0.100 C 
ATOM     25  C   UNL     1      37.763 -26.232 -13.072  0.00  0.00    +0.022 C 
ATOM     26  C   UNL     1      38.034 -23.614 -14.258  0.00  0.00    +0.165 C 
ATOM     27  C   UNL     1      38.804 -25.293 -12.501  0.00  0.00    +0.011 C 
ATOM     28  C   UNL     1      39.201 -24.291 -13.565  0.00  0.00    +0.075 C 
ATOM     29  C   UNL     1      35.705 -23.649 -14.896  0.00  0.00    +0.237 C 
ATOM     30  C   UNL     1      37.260 -21.897 -15.563  0.00  0.00    +0.096 C 
ATOM     31  C   UNL     1      37.693 -20.642 -16.273  0.00  0.00    +0.062 C 
ENDBRANCH  19  23
ENDBRANCH  18  19
ENDBRANCH   1  18
TORSDOF 4
ENDMDL
MODEL 8
REMARK VINA RESULT:     -11.9      3.913     10.689
REMARK  Name = 5073
REMARK  4 active torsions:
REMARK  status: ('A' for Active; 'I' for Inactive)
REMARK    1  A    between atoms: N_1  and  C_18
REMARK    2  A    between atoms: C_2  and  C_11
REMARK    3  A    between atoms: C_18  and  C_19
REMARK    4  A    between atoms: C_19  and  C_23
REMARK                            x       y       z     vdW  Elec       q    Type
REMARK                         _______ _______ _______ _____ _____    ______ ____
ROOT
ATOM      1  N   UNL     1      34.559 -19.255 -20.439  0.00  0.00    +0.387 N 
ATOM      2  C   UNL     1      34.484 -21.454 -18.498  0.00  0.00    +0.039 C 
ATOM      3  C   UNL     1      35.783 -20.712 -18.856  0.00  0.00    -0.017 C 
ATOM      4  C   UNL     1      33.274 -20.543 -18.761  0.00  0.00    -0.017 C 
ATOM      5  C   UNL     1      35.722 -20.139 -20.274  0.00  0.00    -0.077 C 
ATOM      6  C   UNL     1      33.305 -19.976 -20.182  0.00  0.00    -0.077 C 
ATOM      7  H   UNL     1      34.636 -18.503 -19.754  0.00  0.00    -0.080 HD
ENDROOT
BRANCH   2  11
ATOM      8  F   UNL     1      31.136 -23.807 -13.163  0.00  0.00    -0.204 F 
ATOM      9  O   UNL     1      35.336 -22.705 -15.229  0.00  0.00    -0.354 OA
ATOM     10  N   UNL     1      35.666 -22.187 -16.474  0.00  0.00    -0.081 NA
ATOM     11  C   UNL     1      34.500 -22.014 -17.094  0.00  0.00    +0.100 A 
ATOM     12  C   UNL     1      33.401 -22.397 -16.313  0.00  0.00    +0.054 A 
ATOM     13  C   UNL     1      33.984 -22.831 -15.134  0.00  0.00    +0.179 A 
ATOM     14  C   UNL     1      32.004 -22.439 -16.436  0.00  0.00    +0.007 C 
ATOM     15  C   UNL     1      33.275 -23.316 -14.040  0.00  0.00    +0.070 C 
ATOM     16  C   UNL     1      31.257 -22.922 -15.352  0.00  0.00    +0.030 C 
ATOM     17  C   UNL     1      31.883 -23.352 -14.177  0.00  0.00    +0.143 C 
ENDBRANCH   2  11
BRANCH   1  18
ATOM     18  C   UNL     1      34.548 -18.670 -21.780  0.00  0.00    -0.076 C 
BRANCH  18  19
ATOM     19  C   UNL     1      35.706 -17.694 -21.928  0.00  0.00    -0.007 C 
BRANCH  19  23
ATOM     20  O   UNL     1      35.086 -16.708 -24.456  0.00  0.00    -0.274 OA
ATOM     21  N   UNL     1      34.444 -14.596 -23.714  0.00  0.00    -0.237 N 
ATOM     22  N   UNL     1      34.594 -14.081 -21.409  0.00  0.00    -0.399 NA
ATOM     23  C   UNL     1      35.202 -16.294 -22.129  0.00  0.00    +0.123 C 
ATOM     24  C   UNL     1      34.226 -14.145 -25.092  0.00  0.00    +0.100 C 
ATOM     25  C   UNL     1      33.395 -12.883 -25.224  0.00  0.00    +0.022 C 
ATOM     26  C   UNL     1      34.329 -13.742 -22.631  0.00  0.00    +0.165 C 
ATOM     27  C   UNL     1      33.933 -11.833 -24.274  0.00  0.00    +0.011 C 
ATOM     28  C   UNL     1      33.796 -12.339 -22.853  0.00  0.00    +0.075 C 
ATOM     29  C   UNL     1      34.907 -15.903 -23.543  0.00  0.00    +0.237 C 
ATOM     30  C   UNL     1      35.027 -15.363 -21.170  0.00  0.00    +0.096 C 
ATOM     31  C   UNL     1      35.260 -15.640 -19.708  0.00  0.00    +0.062 C 
ENDBRANCH  19  23
ENDBRANCH  18  19
ENDBRANCH   1  18
TORSDOF 4
ENDMDL
MODEL 9
REMARK VINA RESULT:     -11.9      3.999     10.528
REMARK  Name = 5073
REMARK  4 active torsions:
REMARK  status: ('A' for Active; 'I' for Inactive)
REMARK    1  A    between atoms: N_1  and  C_18
REMARK    2  A    between atoms: C_2  and  C_11
REMARK    3  A    between atoms: C_18  and  C_19
REMARK    4  A    between atoms: C_19  and  C_23
REMARK                            x       y       z     vdW  Elec       q    Type
REMARK                         _______ _______ _______ _____ _____    ______ ____
ROOT
ATOM      1  N   UNL     1      34.693 -19.928 -19.467  0.00  0.00    +0.387 N 
ATOM      2  C   UNL     1      34.460 -22.145 -17.559  0.00  0.00    +0.039 C 
ATOM      3  C   UNL     1      35.754 -21.331 -17.726  0.00  0.00    -0.017 C 
ATOM      4  C   UNL     1      33.252 -21.297 -17.992  0.00  0.00    -0.017 C 
ATOM      5  C   UNL     1      35.866 -20.750 -19.137  0.00  0.00    -0.077 C 
ATOM      6  C   UNL     1      33.456 -20.717 -19.394  0.00  0.00    -0.077 C 
ATOM      7  H   UNL     1      34.631 -19.178 -18.778  0.00  0.00    -0.080 HD
ENDROOT
BRANCH   2  11
ATOM      8  F   UNL     1      30.509 -23.701 -12.345  0.00  0.00    -0.204 F 
ATOM      9  O   UNL     1      34.902 -23.619 -14.302  0.00  0.00    -0.354 OA
ATOM     10  N   UNL     1      35.379 -23.176 -15.528  0.00  0.00    -0.081 NA
ATOM     11  C   UNL     1      34.305 -22.715 -16.167  0.00  0.00    +0.100 A 
ATOM     12  C   UNL     1      33.126 -22.832 -15.417  0.00  0.00    +0.054 A 
ATOM     13  C   UNL     1      33.558 -23.414 -14.237  0.00  0.00    +0.179 A 
ATOM     14  C   UNL     1      31.765 -22.532 -15.570  0.00  0.00    +0.007 C 
ATOM     15  C   UNL     1      32.725 -23.730 -13.168  0.00  0.00    +0.070 C 
ATOM     16  C   UNL     1      30.896 -22.836 -14.512  0.00  0.00    +0.030 C 
ATOM     17  C   UNL     1      31.370 -23.424 -13.334  0.00  0.00    +0.143 C 
ENDBRANCH   2  11
BRANCH   1  18
ATOM     18  C   UNL     1      34.843 -19.333 -20.795  0.00  0.00    -0.076 C 
BRANCH  18  19
ATOM     19  C   UNL     1      35.761 -18.122 -20.720  0.00  0.00    -0.007 C 
BRANCH  19  23
ATOM     20  O   UNL     1      35.385 -15.482 -19.924  0.00  0.00    -0.274 OA
ATOM     21  N   UNL     1      34.758 -14.708 -22.030  0.00  0.00    -0.237 N 
ATOM     22  N   UNL     1      34.611 -16.236 -23.831  0.00  0.00    -0.399 NA
ATOM     23  C   UNL     1      35.326 -17.060 -21.687  0.00  0.00    +0.123 C 
ATOM     24  C   UNL     1      34.507 -13.366 -21.494  0.00  0.00    +0.100 C 
ATOM     25  C   UNL     1      34.424 -12.270 -22.540  0.00  0.00    +0.022 C 
ATOM     26  C   UNL     1      34.482 -15.043 -23.343  0.00  0.00    +0.165 C 
ATOM     27  C   UNL     1      33.493 -12.712 -23.649  0.00  0.00    +0.011 C 
ATOM     28  C   UNL     1      34.066 -13.949 -24.310  0.00  0.00    +0.075 C 
ATOM     29  C   UNL     1      35.168 -15.684 -21.119  0.00  0.00    +0.237 C 
ATOM     30  C   UNL     1      35.039 -17.236 -22.991  0.00  0.00    +0.096 C 
ATOM     31  C   UNL     1      35.186 -18.563 -23.689  0.00  0.00    +0.062 C 
ENDBRANCH  19  23
ENDBRANCH  18  19
ENDBRANCH   1  18
TORSDOF 4
ENDMDL
