MODEL 1
REMARK VINA RESULT:     -12.3      0.000      0.000
REMARK  Name = 11538992
REMARK  4 active torsions:
REMARK  status: ('A' for Active; 'I' for Inactive)
REMARK    1  A    between atoms: C_1  and  N_7
REMARK    2  A    between atoms: C_3  and  C_24
REMARK    3  A    between atoms: C_4  and  N_30
REMARK    4  A    between atoms: C_15  and  C_20
REMARK                            x       y       z     vdW  Elec       q    Type
REMARK                         _______ _______ _______ _____ _____    ______ ____
ROOT
ATOM      1  C   UNL     1      35.057 -21.421 -18.749  0.00  0.00    -0.059 C 
ATOM      2  C   UNL     1      36.303 -20.534 -18.842  0.00  0.00    -0.042 C 
ATOM      3  C   UNL     1      35.006 -18.862 -20.258  0.00  0.00    +0.005 C 
ATOM      4  C   UNL     1      36.304 -19.701 -20.136  0.00  0.00    -0.064 C 
ATOM      5  C   UNL     1      33.779 -20.585 -18.851  0.00  0.00    -0.021 C 
ATOM      6  C   UNL     1      33.759 -19.759 -20.135  0.00  0.00    +0.000 C 
ENDROOT
BRANCH   1   7
ATOM      7  N   UNL     1      35.067 -22.157 -17.485  0.00  0.00    +0.394 N 
ATOM      8  N   UNL     1      34.871 -22.853 -14.796  0.00  0.00    -0.299 N 
ATOM      9  N   UNL     1      32.729 -23.262 -14.817  0.00  0.00    -0.136 NA
ATOM     10  N   UNL     1      33.250 -23.667 -13.598  0.00  0.00    -0.125 NA
ATOM     11  C   UNL     1      36.046 -21.577 -16.548  0.00  0.00    -0.052 C 
ATOM     12  C   UNL     1      33.714 -22.178 -16.891  0.00  0.00    -0.009 C 
ATOM     13  C   UNL     1      36.167 -22.449 -15.289  0.00  0.00    +0.086 C 
ATOM     14  C   UNL     1      33.723 -22.777 -15.530  0.00  0.00    +0.122 A 
ATOM     15  C   UNL     1      34.541 -23.412 -13.609  0.00  0.00    +0.238 A 
ATOM     16  H   UNL     1      35.348 -23.120 -17.675  0.00  0.00    -0.079 HD
BRANCH  15  20
ATOM     17  F   UNL     1      36.189 -22.575 -12.090  0.00  0.00    -0.163 F 
ATOM     18  F   UNL     1      34.957 -24.220 -11.396  0.00  0.00    -0.163 F 
ATOM     19  F   UNL     1      36.491 -24.571 -12.897  0.00  0.00    -0.163 F 
ATOM     20  C   UNL     1      35.510 -23.683 -12.534  0.00  0.00    +0.452 C 
ENDBRANCH  15  20
ENDBRANCH   1   7
BRANCH   3  24
ATOM     21  F   UNL     1      35.640 -16.098 -20.367  0.00  0.00    -0.204 F 
ATOM     22  F   UNL     1      34.123 -18.483 -25.050  0.00  0.00    -0.202 F 
ATOM     23  F   UNL     1      34.762 -15.826 -25.010  0.00  0.00    -0.202 F 
ATOM     24  C   UNL     1      34.940 -18.040 -21.538  0.00  0.00    +0.005 C 
ATOM     25  C   UNL     1      35.267 -16.688 -21.511  0.00  0.00    +0.138 C 
ATOM     26  C   UNL     1      34.554 -18.650 -22.727  0.00  0.00    +0.030 C 
ATOM     27  C   UNL     1      34.493 -17.901 -23.902  0.00  0.00    +0.167 C 
ATOM     28  C   UNL     1      35.206 -15.939 -22.686  0.00  0.00    +0.061 C 
ATOM     29  C   UNL     1      34.819 -16.545 -23.881  0.00  0.00    +0.170 C 
ENDBRANCH   3  24
BRANCH   4  30
ATOM     30  N   UNL     1      37.487 -18.835 -20.156  0.00  0.00    +0.382 N 
ATOM     31  H   UNL     1      38.236 -19.270 -19.618  0.00  0.00    -0.089 HD
ATOM     32  H   UNL     1      37.254 -17.931 -19.745  0.00  0.00    -0.089 HD
ATOM     33  H   UNL     1      37.794 -18.701 -21.120  0.00  0.00    -0.089 HD
ENDBRANCH   4  30
TORSDOF 4
ENDMDL
MODEL 2
REMARK VINA RESULT:     -11.6      1.066      1.860
REMARK  Name = 11538992
REMARK  4 active torsions:
REMARK  status: ('A' for Active; 'I' for Inactive)
REMARK    1  A    between atoms: C_1  and  N_7
REMARK    2  A    between atoms: C_3  and  C_24
REMARK    3  A    between atoms: C_4  and  N_30
REMARK    4  A    between atoms: C_15  and  C_20
REMARK                            x       y       z     vdW  Elec       q    Type
REMARK                         _______ _______ _______ _____ _____    ______ ____
ROOT
ATOM      1  C   UNL     1      35.433 -20.947 -19.257  0.00  0.00    -0.059 C 
ATOM      2  C   UNL     1      36.676 -20.059 -19.379  0.00  0.00    -0.042 C 
ATOM      3  C   UNL     1      35.310 -18.318 -20.637  0.00  0.00    +0.005 C 
ATOM      4  C   UNL     1      36.609 -19.166 -20.629  0.00  0.00    -0.064 C 
ATOM      5  C   UNL     1      34.155 -20.104 -19.247  0.00  0.00    -0.021 C 
ATOM      6  C   UNL     1      34.067 -19.217 -20.487  0.00  0.00    +0.000 C 
ENDROOT
BRANCH   1   7
ATOM      7  N   UNL     1      35.510 -21.743 -18.033  0.00  0.00    +0.394 N 
ATOM      8  N   UNL     1      35.393 -22.586 -15.382  0.00  0.00    -0.299 N 
ATOM      9  N   UNL     1      33.287 -23.152 -15.410  0.00  0.00    -0.136 NA
ATOM     10  N   UNL     1      33.849 -23.577 -14.216  0.00  0.00    -0.125 NA
ATOM     11  C   UNL     1      36.453 -21.139 -17.073  0.00  0.00    -0.052 C 
ATOM     12  C   UNL     1      34.168 -21.894 -17.432  0.00  0.00    -0.009 C 
ATOM     13  C   UNL     1      36.651 -22.062 -15.861  0.00  0.00    +0.086 C 
ATOM     14  C   UNL     1      34.235 -22.559 -16.104  0.00  0.00    +0.122 A 
ATOM     15  C   UNL     1      35.117 -23.227 -14.222  0.00  0.00    +0.238 A 
ATOM     16  H   UNL     1      35.859 -22.671 -18.273  0.00  0.00    -0.079 HD
BRANCH  15  20
ATOM     17  F   UNL     1      37.214 -24.189 -13.587  0.00  0.00    -0.163 F 
ATOM     18  F   UNL     1      36.640 -22.342 -12.604  0.00  0.00    -0.163 F 
ATOM     19  F   UNL     1      35.618 -24.198 -12.111  0.00  0.00    -0.163 F 
ATOM     20  C   UNL     1      36.114 -23.479 -13.169  0.00  0.00    +0.452 C 
ENDBRANCH  15  20
ENDBRANCH   1   7
BRANCH   3  24
ATOM     21  F   UNL     1      34.847 -19.345 -23.242  0.00  0.00    -0.204 F 
ATOM     22  F   UNL     1      35.262 -13.913 -22.754  0.00  0.00    -0.202 F 
ATOM     23  F   UNL     1      34.816 -15.039 -25.204  0.00  0.00    -0.202 F 
ATOM     24  C   UNL     1      35.177 -17.435 -21.871  0.00  0.00    +0.005 C 
ATOM     25  C   UNL     1      34.950 -18.014 -23.116  0.00  0.00    +0.138 C 
ATOM     26  C   UNL     1      35.283 -16.054 -21.743  0.00  0.00    +0.030 C 
ATOM     27  C   UNL     1      35.161 -15.243 -22.870  0.00  0.00    +0.167 C 
ATOM     28  C   UNL     1      34.829 -17.203 -24.243  0.00  0.00    +0.061 C 
ATOM     29  C   UNL     1      34.934 -15.818 -24.121  0.00  0.00    +0.170 C 
ENDBRANCH   3  24
BRANCH   4  30
ATOM     30  N   UNL     1      37.793 -18.302 -20.675  0.00  0.00    +0.382 N 
ATOM     31  H   UNL     1      38.583 -18.788 -20.251  0.00  0.00    -0.089 HD
ATOM     32  H   UNL     1      37.607 -17.442 -20.160  0.00  0.00    -0.089 HD
ATOM     33  H   UNL     1      38.013 -18.078 -21.645  0.00  0.00    -0.089 HD
ENDBRANCH   4  30
TORSDOF 4
ENDMDL
MODEL 3
REMARK VINA RESULT:     -11.5      7.657     11.754
REMARK  Name = 11538992
REMARK  4 active torsions:
REMARK  status: ('A' for Active; 'I' for Inactive)
REMARK    1  A    between atoms: C_1  and  N_7
REMARK    2  A    between atoms: C_3  and  C_24
REMARK    3  A    between atoms: C_4  and  N_30
REMARK    4  A    between atoms: C_15  and  C_20
REMARK                            x       y       z     vdW  Elec       q    Type
REMARK                         _______ _______ _______ _____ _____    ______ ____
ROOT
ATOM      1  C   UNL     1      33.740 -11.163 -23.509  0.00  0.00    -0.059 C 
ATOM      2  C   UNL     1      34.880 -10.148 -23.636  0.00  0.00    -0.042 C 
ATOM      3  C   UNL     1      33.551  -8.482 -22.244  0.00  0.00    +0.005 C 
ATOM      4  C   UNL     1      34.358  -8.703 -23.549  0.00  0.00    -0.064 C 
ATOM      5  C   UNL     1      32.959 -10.952 -22.210  0.00  0.00    -0.021 C 
ATOM      6  C   UNL     1      32.424  -9.525 -22.111  0.00  0.00    +0.000 C 
ENDROOT
BRANCH   1   7
ATOM      7  N   UNL     1      34.280 -12.522 -23.545  0.00  0.00    +0.394 N 
ATOM      8  N   UNL     1      34.560 -15.290 -23.435  0.00  0.00    -0.299 N 
ATOM      9  N   UNL     1      33.941 -15.669 -25.493  0.00  0.00    -0.136 NA
ATOM     10  N   UNL     1      34.426 -16.847 -24.947  0.00  0.00    -0.125 NA
ATOM     11  C   UNL     1      34.130 -13.181 -22.234  0.00  0.00    -0.052 C 
ATOM     12  C   UNL     1      33.624 -13.309 -24.610  0.00  0.00    -0.009 C 
ATOM     13  C   UNL     1      34.842 -14.542 -22.232  0.00  0.00    +0.086 C 
ATOM     14  C   UNL     1      34.033 -14.737 -24.567  0.00  0.00    +0.122 A 
ATOM     15  C   UNL     1      34.794 -16.595 -23.709  0.00  0.00    +0.238 A 
ATOM     16  H   UNL     1      35.277 -12.468 -23.756  0.00  0.00    -0.079 HD
BRANCH  15  20
ATOM     17  F   UNL     1      36.730 -17.388 -22.549  0.00  0.00    -0.163 F 
ATOM     18  F   UNL     1      34.843 -17.466 -21.482  0.00  0.00    -0.163 F 
ATOM     19  F   UNL     1      35.228 -18.855 -23.112  0.00  0.00    -0.163 F 
ATOM     20  C   UNL     1      35.379 -17.541 -22.745  0.00  0.00    +0.452 C 
ENDBRANCH  15  20
ENDBRANCH   1   7
BRANCH   3  24
ATOM     21  F   UNL     1      33.537  -7.017 -19.813  0.00  0.00    -0.204 F 
ATOM     22  F   UNL     1      31.397  -4.557 -24.204  0.00  0.00    -0.202 F 
ATOM     23  F   UNL     1      31.448  -3.263 -21.798  0.00  0.00    -0.202 F 
ATOM     24  C   UNL     1      32.984  -7.074 -22.120  0.00  0.00    +0.005 C 
ATOM     25  C   UNL     1      33.013  -6.420 -20.893  0.00  0.00    +0.138 C 
ATOM     26  C   UNL     1      32.441  -6.451 -23.240  0.00  0.00    +0.030 C 
ATOM     27  C   UNL     1      31.921  -5.162 -23.131  0.00  0.00    +0.167 C 
ATOM     28  C   UNL     1      32.493  -5.131 -20.784  0.00  0.00    +0.061 C 
ATOM     29  C   UNL     1      31.947  -4.502 -21.902  0.00  0.00    +0.170 C 
ENDBRANCH   3  24
BRANCH   4  30
ATOM     30  N   UNL     1      35.489  -7.772 -23.626  0.00  0.00    +0.382 N 
ATOM     31  H   UNL     1      35.550  -7.389 -24.569  0.00  0.00    -0.089 HD
ATOM     32  H   UNL     1      36.352  -8.266 -23.403  0.00  0.00    -0.089 HD
ATOM     33  H   UNL     1      35.349  -7.012 -22.959  0.00  0.00    -0.089 HD
ENDBRANCH   4  30
TORSDOF 4
ENDMDL
MODEL 4
REMARK VINA RESULT:     -11.4      6.228      7.768
REMARK  Name = 11538992
REMARK  4 active torsions:
REMARK  status: ('A' for Active; 'I' for Inactive)
REMARK    1  A    between atoms: C_1  and  N_7
REMARK    2  A    between atoms: C_3  and  C_24
REMARK    3  A    between atoms: C_4  and  N_30
REMARK    4  A    between atoms: C_15  and  C_20
REMARK                            x       y       z     vdW  Elec       q    Type
REMARK                         _______ _______ _______ _____ _____    ______ ____
ROOT
ATOM      1  C   UNL     1      34.099 -22.996 -14.803  0.00  0.00    -0.059 C 
ATOM      2  C   UNL     1      33.167 -24.033 -14.168  0.00  0.00    -0.042 C 
ATOM      3  C   UNL     1      31.232 -23.151 -15.569  0.00  0.00    +0.005 C 
ATOM      4  C   UNL     1      31.710 -23.540 -14.145  0.00  0.00    -0.064 C 
ATOM      5  C   UNL     1      33.633 -22.630 -16.215  0.00  0.00    -0.021 C 
ATOM      6  C   UNL     1      32.191 -22.128 -16.209  0.00  0.00    +0.000 C 
ENDROOT
BRANCH   1   7
ATOM      7  N   UNL     1      35.464 -23.519 -14.853  0.00  0.00    +0.394 N 
ATOM      8  N   UNL     1      37.930 -24.620 -14.176  0.00  0.00    -0.299 N 
ATOM      9  N   UNL     1      37.310 -26.704 -14.348  0.00  0.00    -0.136 NA
ATOM     10  N   UNL     1      38.685 -26.658 -14.175  0.00  0.00    -0.125 NA
ATOM     11  C   UNL     1      36.361 -22.728 -13.991  0.00  0.00    -0.052 C 
ATOM     12  C   UNL     1      35.482 -24.946 -14.467  0.00  0.00    -0.009 C 
ATOM     13  C   UNL     1      37.818 -23.180 -14.173  0.00  0.00    +0.086 C 
ATOM     14  C   UNL     1      36.871 -25.463 -14.351  0.00  0.00    +0.122 A 
ATOM     15  C   UNL     1      39.035 -25.394 -14.075  0.00  0.00    +0.238 A 
ATOM     16  H   UNL     1      35.804 -23.443 -15.812  0.00  0.00    -0.079 HD
BRANCH  15  20
ATOM     17  F   UNL     1      40.798 -23.989 -14.877  0.00  0.00    -0.163 F 
ATOM     18  F   UNL     1      40.577 -24.160 -12.726  0.00  0.00    -0.163 F 
ATOM     19  F   UNL     1      41.363 -25.832 -13.872  0.00  0.00    -0.163 F 
ATOM     20  C   UNL     1      40.395 -24.860 -13.894  0.00  0.00    +0.452 C 
ENDBRANCH  15  20
ENDBRANCH   1   7
BRANCH   3  24
ATOM     21  F   UNL     1      30.045 -21.744 -13.409  0.00  0.00    -0.204 F 
ATOM     22  F   UNL     1      26.951 -22.546 -17.848  0.00  0.00    -0.202 F 
ATOM     23  F   UNL     1      25.935 -21.206 -15.694  0.00  0.00    -0.202 F 
ATOM     24  C   UNL     1      29.803 -22.626 -15.599  0.00  0.00    +0.005 C 
ATOM     25  C   UNL     1      29.292 -21.944 -14.500  0.00  0.00    +0.138 C 
ATOM     26  C   UNL     1      29.020 -22.832 -16.730  0.00  0.00    +0.030 C 
ATOM     27  C   UNL     1      27.711 -22.352 -16.762  0.00  0.00    +0.167 C 
ATOM     28  C   UNL     1      27.983 -21.464 -14.532  0.00  0.00    +0.061 C 
ATOM     29  C   UNL     1      27.192 -21.668 -15.662  0.00  0.00    +0.170 C 
ENDBRANCH   3  24
BRANCH   4  30
ATOM     30  N   UNL     1      30.852 -24.583 -13.576  0.00  0.00    +0.382 N 
ATOM     31  H   UNL     1      31.320 -25.009 -12.776  0.00  0.00    -0.089 HD
ATOM     32  H   UNL     1      30.670 -25.296 -14.282  0.00  0.00    -0.089 HD
ATOM     33  H   UNL     1      29.969 -24.171 -13.273  0.00  0.00    -0.089 HD
ENDBRANCH   4  30
TORSDOF 4
ENDMDL
MODEL 5
REMARK VINA RESULT:     -11.4      1.559      2.095
REMARK  Name = 11538992
REMARK  4 active torsions:
REMARK  status: ('A' for Active; 'I' for Inactive)
REMARK    1  A    between atoms: C_1  and  N_7
REMARK    2  A    between atoms: C_3  and  C_24
REMARK    3  A    between atoms: C_4  and  N_30
REMARK    4  A    between atoms: C_15  and  C_20
REMARK                            x       y       z     vdW  Elec       q    Type
REMARK                         _______ _______ _______ _____ _____    ______ ____
ROOT
ATOM      1  C   UNL     1      36.046 -20.666 -17.842  0.00  0.00    -0.059 C 
ATOM      2  C   UNL     1      34.684 -20.892 -18.507  0.00  0.00    -0.042 C 
ATOM      3  C   UNL     1      35.493 -19.659 -20.583  0.00  0.00    +0.005 C 
ATOM      4  C   UNL     1      34.366 -19.784 -19.526  0.00  0.00    -0.064 C 
ATOM      5  C   UNL     1      37.158 -20.563 -18.889  0.00  0.00    -0.021 C 
ATOM      6  C   UNL     1      36.862 -19.460 -19.904  0.00  0.00    +0.000 C 
ENDROOT
BRANCH   1   7
ATOM      7  N   UNL     1      36.336 -21.764 -16.920  0.00  0.00    +0.394 N 
ATOM      8  N   UNL     1      36.713 -23.300 -14.629  0.00  0.00    -0.299 N 
ATOM      9  N   UNL     1      34.626 -23.890 -14.398  0.00  0.00    -0.136 NA
ATOM     10  N   UNL     1      35.396 -24.610 -13.499  0.00  0.00    -0.125 NA
ATOM     11  C   UNL     1      37.465 -21.421 -16.036  0.00  0.00    -0.052 C 
ATOM     12  C   UNL     1      35.133 -22.107 -16.134  0.00  0.00    -0.009 C 
ATOM     13  C   UNL     1      37.868 -22.633 -15.184  0.00  0.00    +0.086 C 
ATOM     14  C   UNL     1      35.437 -23.106 -15.076  0.00  0.00    +0.122 A 
ATOM     15  C   UNL     1      36.649 -24.239 -13.657  0.00  0.00    +0.238 A 
ATOM     16  H   UNL     1      36.605 -22.582 -17.468  0.00  0.00    -0.079 HD
BRANCH  15  20
ATOM     17  F   UNL     1      38.775 -25.336 -13.723  0.00  0.00    -0.163 F 
ATOM     18  F   UNL     1      38.516 -23.779 -12.234  0.00  0.00    -0.163 F 
ATOM     19  F   UNL     1      37.515 -25.695 -11.988  0.00  0.00    -0.163 F 
ATOM     20  C   UNL     1      37.824 -24.743 -12.927  0.00  0.00    +0.452 C 
ENDBRANCH  15  20
ENDBRANCH   1   7
BRANCH   3  24
ATOM     21  F   UNL     1      35.908 -16.908 -20.024  0.00  0.00    -0.204 F 
ATOM     22  F   UNL     1      34.124 -18.181 -25.035  0.00  0.00    -0.202 F 
ATOM     23  F   UNL     1      34.566 -15.570 -24.361  0.00  0.00    -0.202 F 
ATOM     24  C   UNL     1      35.243 -18.554 -21.600  0.00  0.00    +0.005 C 
ATOM     25  C   UNL     1      35.470 -17.226 -21.251  0.00  0.00    +0.138 C 
ATOM     26  C   UNL     1      34.790 -18.882 -22.874  0.00  0.00    +0.030 C 
ATOM     27  C   UNL     1      34.560 -17.872 -23.808  0.00  0.00    +0.167 C 
ATOM     28  C   UNL     1      35.240 -16.217 -22.185  0.00  0.00    +0.061 C 
ATOM     29  C   UNL     1      34.785 -16.539 -23.463  0.00  0.00    +0.170 C 
ENDBRANCH   3  24
BRANCH   4  30
ATOM     30  N   UNL     1      33.079 -20.070 -20.170  0.00  0.00    +0.382 N 
ATOM     31  H   UNL     1      32.342 -20.079 -19.465  0.00  0.00    -0.089 HD
ATOM     32  H   UNL     1      33.123 -20.980 -20.628  0.00  0.00    -0.089 HD
ATOM     33  H   UNL     1      32.878 -19.349 -20.863  0.00  0.00    -0.089 HD
ENDBRANCH   4  30
TORSDOF 4
ENDMDL
MODEL 6
REMARK VINA RESULT:     -11.2      7.562     11.487
REMARK  Name = 11538992
REMARK  4 active torsions:
REMARK  status: ('A' for Active; 'I' for Inactive)
REMARK    1  A    between atoms: C_1  and  N_7
REMARK    2  A    between atoms: C_3  and  C_24
REMARK    3  A    between atoms: C_4  and  N_30
REMARK    4  A    between atoms: C_15  and  C_20
REMARK                            x       y       z     vdW  Elec       q    Type
REMARK                         _______ _______ _______ _____ _____    ______ ____
ROOT
ATOM      1  C   UNL     1      34.321 -11.730 -22.553  0.00  0.00    -0.059 C 
ATOM      2  C   UNL     1      32.879 -11.630 -22.045  0.00  0.00    -0.042 C 
ATOM      3  C   UNL     1      32.779  -9.203 -22.808  0.00  0.00    +0.005 C 
ATOM      4  C   UNL     1      32.526 -10.189 -21.638  0.00  0.00    -0.064 C 
ATOM      5  C   UNL     1      34.561 -10.768 -23.720  0.00  0.00    -0.021 C 
ATOM      6  C   UNL     1      34.224  -9.330 -23.329  0.00  0.00    +0.000 C 
ENDROOT
BRANCH   1   7
ATOM      7  N   UNL     1      34.604 -13.101 -22.977  0.00  0.00    +0.394 N 
ATOM      8  N   UNL     1      34.412 -15.828 -23.505  0.00  0.00    -0.299 N 
ATOM      9  N   UNL     1      33.418 -15.621 -25.436  0.00  0.00    -0.136 NA
ATOM     10  N   UNL     1      33.771 -16.949 -25.254  0.00  0.00    -0.125 NA
ATOM     11  C   UNL     1      34.553 -14.025 -21.830  0.00  0.00    -0.052 C 
ATOM     12  C   UNL     1      33.660 -13.517 -24.035  0.00  0.00    -0.009 C 
ATOM     13  C   UNL     1      35.008 -15.431 -22.251  0.00  0.00    +0.086 C 
ATOM     14  C   UNL     1      33.816 -14.957 -24.372  0.00  0.00    +0.122 A 
ATOM     15  C   UNL     1      34.370 -17.049 -24.086  0.00  0.00    +0.238 A 
ATOM     16  H   UNL     1      35.549 -13.131 -23.361  0.00  0.00    -0.079 HD
BRANCH  15  20
ATOM     17  F   UNL     1      36.225 -18.139 -23.040  0.00  0.00    -0.163 F 
ATOM     18  F   UNL     1      34.242 -18.709 -22.369  0.00  0.00    -0.163 F 
ATOM     19  F   UNL     1      34.949 -19.342 -24.326  0.00  0.00    -0.163 F 
ATOM     20  C   UNL     1      34.928 -18.267 -23.474  0.00  0.00    +0.452 C 
ENDBRANCH  15  20
ENDBRANCH   1   7
BRANCH   3  24
ATOM     21  F   UNL     1      31.635  -7.354 -24.633  0.00  0.00    -0.204 F 
ATOM     22  F   UNL     1      32.753  -5.509 -19.607  0.00  0.00    -0.202 F 
ATOM     23  F   UNL     1      31.649  -3.838 -21.466  0.00  0.00    -0.202 F 
ATOM     24  C   UNL     1      32.474  -7.754 -22.448  0.00  0.00    +0.005 C 
ATOM     25  C   UNL     1      31.912  -6.908 -23.399  0.00  0.00    +0.138 C 
ATOM     26  C   UNL     1      32.759  -7.289 -21.169  0.00  0.00    +0.030 C 
ATOM     27  C   UNL     1      32.481  -5.964 -20.836  0.00  0.00    +0.167 C 
ATOM     28  C   UNL     1      31.634  -5.583 -23.067  0.00  0.00    +0.061 C 
ATOM     29  C   UNL     1      31.918  -5.111 -21.786  0.00  0.00    +0.170 C 
ENDBRANCH   3  24
BRANCH   4  30
ATOM     30  N   UNL     1      31.125 -10.135 -21.207  0.00  0.00    +0.382 N 
ATOM     31  H   UNL     1      30.694  -9.279 -21.558  0.00  0.00    -0.089 HD
ATOM     32  H   UNL     1      31.082 -10.144 -20.189  0.00  0.00    -0.089 HD
ATOM     33  H   UNL     1      30.624 -10.943 -21.576  0.00  0.00    -0.089 HD
ENDBRANCH   4  30
TORSDOF 4
ENDMDL
MODEL 7
REMARK VINA RESULT:     -11.0      6.972     10.625
REMARK  Name = 11538992
REMARK  4 active torsions:
REMARK  status: ('A' for Active; 'I' for Inactive)
REMARK    1  A    between atoms: C_1  and  N_7
REMARK    2  A    between atoms: C_3  and  C_24
REMARK    3  A    between atoms: C_4  and  N_30
REMARK    4  A    between atoms: C_15  and  C_20
REMARK                            x       y       z     vdW  Elec       q    Type
REMARK                         _______ _______ _______ _____ _____    ______ ____
ROOT
ATOM      1  C   UNL     1      33.180 -12.116 -22.604  0.00  0.00    -0.059 C 
ATOM      2  C   UNL     1      34.397 -11.292 -23.038  0.00  0.00    -0.042 C 
ATOM      3  C   UNL     1      33.283  -9.181 -22.154  0.00  0.00    +0.005 C 
ATOM      4  C   UNL     1      34.006  -9.839 -23.357  0.00  0.00    -0.064 C 
ATOM      5  C   UNL     1      32.481 -11.472 -21.404  0.00  0.00    -0.021 C 
ATOM      6  C   UNL     1      32.077 -10.031 -21.707  0.00  0.00    +0.000 C 
ENDROOT
BRANCH   1   7
ATOM      7  N   UNL     1      33.598 -13.476 -22.261  0.00  0.00    +0.394 N 
ATOM      8  N   UNL     1      35.107 -15.723 -21.609  0.00  0.00    -0.299 N 
ATOM      9  N   UNL     1      35.159 -15.353 -19.460  0.00  0.00    -0.136 NA
ATOM     10  N   UNL     1      35.686 -16.610 -19.711  0.00  0.00    -0.125 NA
ATOM     11  C   UNL     1      34.510 -14.017 -23.286  0.00  0.00    -0.052 C 
ATOM     12  C   UNL     1      34.230 -13.499 -20.925  0.00  0.00    -0.009 C 
ATOM     13  C   UNL     1      34.816 -15.496 -23.005  0.00  0.00    +0.086 C 
ATOM     14  C   UNL     1      34.810 -14.832 -20.618  0.00  0.00    +0.122 A 
ATOM     15  C   UNL     1      35.643 -16.811 -21.010  0.00  0.00    +0.238 A 
ATOM     16  H   UNL     1      32.770 -14.071 -22.234  0.00  0.00    -0.079 HD
BRANCH  15  20
ATOM     17  F   UNL     1      35.261 -18.382 -22.774  0.00  0.00    -0.163 F 
ATOM     18  F   UNL     1      37.326 -17.898 -22.318  0.00  0.00    -0.163 F 
ATOM     19  F   UNL     1      36.171 -19.129 -20.946  0.00  0.00    -0.163 F 
ATOM     20  C   UNL     1      36.085 -18.012 -21.739  0.00  0.00    +0.452 C 
ENDBRANCH  15  20
ENDBRANCH   1   7
BRANCH   3  24
ATOM     21  F   UNL     1      33.606  -7.072 -20.282  0.00  0.00    -0.204 F 
ATOM     22  F   UNL     1      31.289  -5.805 -25.071  0.00  0.00    -0.202 F 
ATOM     23  F   UNL     1      31.661  -3.872 -23.176  0.00  0.00    -0.202 F 
ATOM     24  C   UNL     1      32.846  -7.748 -22.427  0.00  0.00    +0.005 C 
ATOM     25  C   UNL     1      33.038  -6.768 -21.458  0.00  0.00    +0.138 C 
ATOM     26  C   UNL     1      32.257  -7.429 -23.646  0.00  0.00    +0.030 C 
ATOM     27  C   UNL     1      31.856  -6.118 -23.900  0.00  0.00    +0.167 C 
ATOM     28  C   UNL     1      32.637  -5.457 -21.711  0.00  0.00    +0.061 C 
ATOM     29  C   UNL     1      32.046  -5.132 -22.931  0.00  0.00    +0.170 C 
ENDBRANCH   3  24
BRANCH   4  30
ATOM     30  N   UNL     1      35.208  -9.080 -23.719  0.00  0.00    +0.382 N 
ATOM     31  H   UNL     1      34.936  -8.221 -24.196  0.00  0.00    -0.089 HD
ATOM     32  H   UNL     1      35.791  -9.643 -24.339  0.00  0.00    -0.089 HD
ATOM     33  H   UNL     1      35.732  -8.850 -22.875  0.00  0.00    -0.089 HD
ENDBRANCH   4  30
TORSDOF 4
ENDMDL
MODEL 8
REMARK VINA RESULT:     -10.5      8.602     13.802
REMARK  Name = 11538992
REMARK  4 active torsions:
REMARK  status: ('A' for Active; 'I' for Inactive)
REMARK    1  A    between atoms: C_1  and  N_7
REMARK    2  A    between atoms: C_3  and  C_24
REMARK    3  A    between atoms: C_4  and  N_30
REMARK    4  A    between atoms: C_15  and  C_20
REMARK                            x       y       z     vdW  Elec       q    Type
REMARK                         _______ _______ _______ _____ _____    ______ ____
ROOT
ATOM      1  C   UNL     1      32.371 -10.426 -22.562  0.00  0.00    -0.059 C 
ATOM      2  C   UNL     1      32.130 -11.213 -21.271  0.00  0.00    -0.042 C 
ATOM      3  C   UNL     1      34.062 -12.765 -21.856  0.00  0.00    +0.005 C 
ATOM      4  C   UNL     1      32.578 -12.678 -21.414  0.00  0.00    -0.064 C 
ATOM      5  C   UNL     1      33.840 -10.499 -22.985  0.00  0.00    -0.021 C 
ATOM      6  C   UNL     1      34.299 -11.947 -23.141  0.00  0.00    +0.000 C 
ENDROOT
BRANCH   1   7
ATOM      7  N   UNL     1      31.980  -9.029 -22.372  0.00  0.00    +0.394 N 
ATOM      8  N   UNL     1      32.012  -6.257 -22.118  0.00  0.00    -0.299 N 
ATOM      9  N   UNL     1      31.861  -5.826 -24.251  0.00  0.00    -0.136 NA
ATOM     10  N   UNL     1      31.719  -4.642 -23.544  0.00  0.00    -0.125 NA
ATOM     11  C   UNL     1      32.661  -8.450 -21.199  0.00  0.00    -0.052 C 
ATOM     12  C   UNL     1      32.266  -8.244 -23.591  0.00  0.00    -0.009 C 
ATOM     13  C   UNL     1      32.126  -7.039 -20.909  0.00  0.00    +0.086 C 
ATOM     14  C   UNL     1      32.032  -6.792 -23.374  0.00  0.00    +0.122 A 
ATOM     15  C   UNL     1      31.812  -4.926 -22.262  0.00  0.00    +0.238 A 
ATOM     16  H   UNL     1      30.975  -8.996 -22.198  0.00  0.00    -0.079 HD
BRANCH  15  20
ATOM     17  F   UNL     1      30.614  -4.182 -20.329  0.00  0.00    -0.163 F 
ATOM     18  F   UNL     1      32.776  -4.026 -20.267  0.00  0.00    -0.163 F 
ATOM     19  F   UNL     1      31.626  -2.674 -21.524  0.00  0.00    -0.163 F 
ATOM     20  C   UNL     1      31.710  -3.986 -21.133  0.00  0.00    +0.452 C 
ENDBRANCH  15  20
ENDBRANCH   1   7
BRANCH   3  24
ATOM     21  F   UNL     1      35.172 -14.318 -19.756  0.00  0.00    -0.204 F 
ATOM     22  F   UNL     1      34.817 -16.687 -24.673  0.00  0.00    -0.202 F 
ATOM     23  F   UNL     1      35.865 -18.066 -22.560  0.00  0.00    -0.202 F 
ATOM     24  C   UNL     1      34.550 -14.195 -22.044  0.00  0.00    +0.005 C 
ATOM     25  C   UNL     1      35.083 -14.892 -20.964  0.00  0.00    +0.138 C 
ATOM     26  C   UNL     1      34.457 -14.794 -23.295  0.00  0.00    +0.030 C 
ATOM     27  C   UNL     1      34.903 -16.104 -23.471  0.00  0.00    +0.167 C 
ATOM     28  C   UNL     1      35.528 -16.202 -21.139  0.00  0.00    +0.061 C 
ATOM     29  C   UNL     1      35.439 -16.808 -22.392  0.00  0.00    +0.170 C 
ENDBRANCH   3  24
BRANCH   4  30
ATOM     30  N   UNL     1      32.374 -13.376 -20.140  0.00  0.00    +0.382 N 
ATOM     31  H   UNL     1      31.797 -12.802 -19.527  0.00  0.00    -0.089 HD
ATOM     32  H   UNL     1      33.277 -13.545 -19.697  0.00  0.00    -0.089 HD
ATOM     33  H   UNL     1      31.907 -14.267 -20.311  0.00  0.00    -0.089 HD
ENDBRANCH   4  30
TORSDOF 4
ENDMDL
MODEL 9
REMARK VINA RESULT:     -10.3      7.104     10.857
REMARK  Name = 11538992
REMARK  4 active torsions:
REMARK  status: ('A' for Active; 'I' for Inactive)
REMARK    1  A    between atoms: C_1  and  N_7
REMARK    2  A    between atoms: C_3  and  C_24
REMARK    3  A    between atoms: C_4  and  N_30
REMARK    4  A    between atoms: C_15  and  C_20
REMARK                            x       y       z     vdW  Elec       q    Type
REMARK                         _______ _______ _______ _____ _____    ______ ____
ROOT
ATOM      1  C   UNL     1      33.128 -11.972 -22.522  0.00  0.00    -0.059 C 
ATOM      2  C   UNL     1      34.362 -11.125 -22.849  0.00  0.00    -0.042 C 
ATOM      3  C   UNL     1      33.201  -9.068 -21.898  0.00  0.00    +0.005 C 
ATOM      4  C   UNL     1      33.983  -9.656 -23.102  0.00  0.00    -0.064 C 
ATOM      5  C   UNL     1      32.370 -11.399 -21.322  0.00  0.00    -0.021 C 
ATOM      6  C   UNL     1      31.978  -9.942 -21.560  0.00  0.00    +0.000 C 
ENDROOT
BRANCH   1   7
ATOM      7  N   UNL     1      33.532 -13.349 -22.239  0.00  0.00    +0.394 N 
ATOM      8  N   UNL     1      35.020 -15.639 -21.693  0.00  0.00    -0.299 N 
ATOM      9  N   UNL     1      35.096 -15.357 -19.531  0.00  0.00    -0.136 NA
ATOM     10  N   UNL     1      35.605 -16.609 -19.838  0.00  0.00    -0.125 NA
ATOM     11  C   UNL     1      34.428 -13.859 -23.293  0.00  0.00    -0.052 C 
ATOM     12  C   UNL     1      34.176 -13.434 -20.911  0.00  0.00    -0.009 C 
ATOM     13  C   UNL     1      34.718 -15.352 -23.076  0.00  0.00    +0.086 C 
ATOM     14  C   UNL     1      34.743 -14.786 -20.663  0.00  0.00    +0.122 A 
ATOM     15  C   UNL     1      35.548 -16.757 -21.144  0.00  0.00    +0.238 A 
ATOM     16  H   UNL     1      32.697 -13.935 -22.228  0.00  0.00    -0.079 HD
BRANCH  15  20
ATOM     17  F   UNL     1      37.256 -17.868 -22.399  0.00  0.00    -0.163 F 
ATOM     18  F   UNL     1      35.921 -19.118 -21.232  0.00  0.00    -0.163 F 
ATOM     19  F   UNL     1      35.197 -18.149 -23.040  0.00  0.00    -0.163 F 
ATOM     20  C   UNL     1      35.968 -17.933 -21.925  0.00  0.00    +0.452 C 
ENDBRANCH  15  20
ENDBRANCH   1   7
BRANCH   3  24
ATOM     21  F   UNL     1      32.124  -8.103 -24.340  0.00  0.00    -0.204 F 
ATOM     22  F   UNL     1      32.642  -4.498 -20.260  0.00  0.00    -0.202 F 
ATOM     23  F   UNL     1      31.618  -3.705 -22.667  0.00  0.00    -0.202 F 
ATOM     24  C   UNL     1      32.774  -7.622 -22.108  0.00  0.00    +0.005 C 
ATOM     25  C   UNL     1      32.254  -7.224 -23.336  0.00  0.00    +0.138 C 
ATOM     26  C   UNL     1      32.907  -6.708 -21.068  0.00  0.00    +0.030 C 
ATOM     27  C   UNL     1      32.517  -5.382 -21.257  0.00  0.00    +0.167 C 
ATOM     28  C   UNL     1      31.863  -5.899 -23.525  0.00  0.00    +0.061 C 
ATOM     29  C   UNL     1      31.995  -4.978 -22.486  0.00  0.00    +0.170 C 
ENDBRANCH   3  24
BRANCH   4  30
ATOM     30  N   UNL     1      35.199  -8.877 -23.361  0.00  0.00    +0.382 N 
ATOM     31  H   UNL     1      35.383  -8.860 -24.364  0.00  0.00    -0.089 HD
ATOM     32  H   UNL     1      35.987  -9.307 -22.878  0.00  0.00    -0.089 HD
ATOM     33  H   UNL     1      35.071  -7.924 -23.022  0.00  0.00    -0.089 HD
ENDBRANCH   4  30
TORSDOF 4
ENDMDL
