MODEL 1
REMARK VINA RESULT:     -11.7      0.000      0.000
REMARK  Name = 25052630
REMARK  6 active torsions:
REMARK  status: ('A' for Active; 'I' for Inactive)
REMARK    1  A    between atoms: N_2  and  C_11
REMARK    2  A    between atoms: C_4  and  C_20
REMARK    3  A    between atoms: C_20  and  C_21
REMARK    4  A    between atoms: C_21  and  N_22
REMARK    5  A    between atoms: N_22  and  C_25
REMARK    6  A    between atoms: C_25  and  C_26
REMARK                            x       y       z     vdW  Elec       q    Type
REMARK                         _______ _______ _______ _____ _____    ______ ____
ROOT
ATOM      1  S   UNL     1      37.490 -26.120 -12.459  0.00  0.00    -0.018 S 
ATOM      2  N   UNL     1      36.726 -23.951 -14.056  0.00  0.00    -0.270 N 
ATOM      3  N   UNL     1      38.938 -24.342 -13.934  0.00  0.00    -0.294 N 
ATOM      4  C   UNL     1      37.410 -23.014 -14.827  0.00  0.00    +0.043 C 
ATOM      5  C   UNL     1      37.692 -24.820 -13.469  0.00  0.00    +0.142 C 
ATOM      6  C   UNL     1      38.727 -23.259 -14.746  0.00  0.00    +0.074 C 
ATOM      7  H   UNL     1      39.817 -24.725 -13.711  0.00  0.00    +0.154 HD
ENDROOT
BRANCH   2  11
ATOM      8  F   UNL     1      30.820 -23.232 -11.913  0.00  0.00    -0.201 F 
ATOM      9  F   UNL     1      30.063 -22.111 -16.444  0.00  0.00    -0.204 F 
ATOM     10  O   UNL     1      33.443 -23.565 -12.358  0.00  0.00    -0.472 OA
ATOM     11  C   UNL     1      35.293 -23.989 -13.911  0.00  0.00    +0.127 C 
ATOM     12  C   UNL     1      34.604 -23.215 -15.031  0.00  0.00    +0.054 C 
ATOM     13  C   UNL     1      34.850 -23.412 -12.570  0.00  0.00    +0.226 C 
ATOM     14  C   UNL     1      33.145 -23.028 -14.722  0.00  0.00    +0.018 C 
ATOM     15  C   UNL     1      32.657 -23.200 -13.420  0.00  0.00    +0.162 C 
ATOM     16  C   UNL     1      32.259 -22.650 -15.739  0.00  0.00    +0.029 C 
ATOM     17  C   UNL     1      31.296 -23.034 -13.150  0.00  0.00    +0.176 C 
ATOM     18  C   UNL     1      30.902 -22.472 -15.465  0.00  0.00    +0.142 C 
ATOM     19  C   UNL     1      30.421 -22.669 -14.173  0.00  0.00    +0.062 C 
ENDBRANCH   2  11
BRANCH   4  20
ATOM     20  C   UNL     1      36.725 -21.944 -15.592  0.00  0.00    +0.019 C 
BRANCH  20  21
ATOM     21  C   UNL     1      37.704 -20.861 -16.044  0.00  0.00    -0.075 C 
BRANCH  21  22
ATOM     22  N   UNL     1      37.146 -20.098 -17.154  0.00  0.00    +0.387 N 
ATOM     23  H   UNL     1      37.834 -19.413 -17.467  0.00  0.00    -0.084 HD
ATOM     24  H   UNL     1      36.298 -19.630 -16.835  0.00  0.00    -0.084 HD
BRANCH  22  25
ATOM     25  C   UNL     1      36.805 -20.973 -18.266  0.00  0.00    -0.054 C 
BRANCH  25  26
ATOM     26  C   UNL     1      35.492 -20.593 -18.896  0.00  0.00    -0.044 C 
ATOM     27  C   UNL     1      35.459 -19.648 -19.923  0.00  0.00    -0.006 C 
ATOM     28  C   UNL     1      34.309 -21.187 -18.457  0.00  0.00    -0.006 C 
ATOM     29  C   UNL     1      34.242 -19.297 -20.508  0.00  0.00    -0.000 C 
ATOM     30  C   UNL     1      33.092 -20.835 -19.043  0.00  0.00    -0.000 C 
ATOM     31  C   UNL     1      33.059 -19.890 -20.068  0.00  0.00    -0.000 C 
ENDBRANCH  25  26
ENDBRANCH  22  25
ENDBRANCH  21  22
ENDBRANCH  20  21
ENDBRANCH   4  20
TORSDOF 6
ENDMDL
MODEL 2
REMARK VINA RESULT:     -10.8      3.458      6.959
REMARK  Name = 25052630
REMARK  6 active torsions:
REMARK  status: ('A' for Active; 'I' for Inactive)
REMARK    1  A    between atoms: N_2  and  C_11
REMARK    2  A    between atoms: C_4  and  C_20
REMARK    3  A    between atoms: C_20  and  C_21
REMARK    4  A    between atoms: C_21  and  N_22
REMARK    5  A    between atoms: N_22  and  C_25
REMARK    6  A    between atoms: C_25  and  C_26
REMARK                            x       y       z     vdW  Elec       q    Type
REMARK                         _______ _______ _______ _____ _____    ______ ____
ROOT
ATOM      1  S   UNL     1      29.779 -22.449 -15.818  0.00  0.00    -0.018 S 
ATOM      2  N   UNL     1      32.264 -23.141 -14.729  0.00  0.00    -0.270 N 
ATOM      3  N   UNL     1      30.475 -24.130 -13.787  0.00  0.00    -0.294 N 
ATOM      4  C   UNL     1      32.682 -23.985 -13.702  0.00  0.00    +0.043 C 
ATOM      5  C   UNL     1      30.842 -23.218 -14.803  0.00  0.00    +0.142 C 
ATOM      6  C   UNL     1      31.606 -24.567 -13.149  0.00  0.00    +0.074 C 
ATOM      7  H   UNL     1      29.555 -24.406 -13.571  0.00  0.00    +0.154 HD
ENDROOT
BRANCH   2  11
ATOM      8  F   UNL     1      37.161 -21.165 -18.206  0.00  0.00    -0.201 F 
ATOM      9  F   UNL     1      33.661 -19.543 -20.941  0.00  0.00    -0.204 F 
ATOM     10  O   UNL     1      35.414 -22.253 -16.489  0.00  0.00    -0.472 OA
ATOM     11  C   UNL     1      33.154 -22.352 -15.541  0.00  0.00    +0.127 C 
ATOM     12  C   UNL     1      32.516 -22.006 -16.884  0.00  0.00    +0.054 C 
ATOM     13  C   UNL     1      34.471 -23.078 -15.796  0.00  0.00    +0.226 C 
ATOM     14  C   UNL     1      33.539 -21.429 -17.821  0.00  0.00    +0.018 C 
ATOM     15  C   UNL     1      34.910 -21.593 -17.579  0.00  0.00    +0.162 C 
ATOM     16  C   UNL     1      33.125 -20.740 -18.968  0.00  0.00    +0.029 C 
ATOM     17  C   UNL     1      35.850 -21.040 -18.453  0.00  0.00    +0.176 C 
ATOM     18  C   UNL     1      34.067 -20.200 -19.846  0.00  0.00    +0.142 C 
ATOM     19  C   UNL     1      35.427 -20.346 -19.586  0.00  0.00    +0.062 C 
ENDBRANCH   2  11
BRANCH   4  20
ATOM     20  C   UNL     1      34.107 -24.162 -13.334  0.00  0.00    +0.019 C 
BRANCH  20  21
ATOM     21  C   UNL     1      34.446 -23.435 -12.033  0.00  0.00    -0.075 C 
BRANCH  21  22
ATOM     22  N   UNL     1      35.828 -22.969 -12.052  0.00  0.00    +0.387 N 
ATOM     23  H   UNL     1      35.874 -22.045 -11.622  0.00  0.00    -0.084 HD
ATOM     24  H   UNL     1      36.145 -22.928 -13.020  0.00  0.00    -0.084 HD
BRANCH  22  25
ATOM     25  C   UNL     1      36.693 -23.881 -11.317  0.00  0.00    -0.054 C 
BRANCH  25  26
ATOM     26  C   UNL     1      37.742 -24.496 -12.204  0.00  0.00    -0.044 C 
ATOM     27  C   UNL     1      39.014 -23.925 -12.278  0.00  0.00    -0.006 C 
ATOM     28  C   UNL     1      37.445 -25.635 -12.950  0.00  0.00    -0.006 C 
ATOM     29  C   UNL     1      39.987 -24.495 -13.099  0.00  0.00    -0.000 C 
ATOM     30  C   UNL     1      38.418 -26.205 -13.772  0.00  0.00    -0.000 C 
ATOM     31  C   UNL     1      39.689 -25.635 -13.846  0.00  0.00    -0.000 C 
ENDBRANCH  25  26
ENDBRANCH  22  25
ENDBRANCH  21  22
ENDBRANCH  20  21
ENDBRANCH   4  20
TORSDOF 6
ENDMDL
MODEL 3
REMARK VINA RESULT:     -10.7      3.359      5.360
REMARK  Name = 25052630
REMARK  6 active torsions:
REMARK  status: ('A' for Active; 'I' for Inactive)
REMARK    1  A    between atoms: N_2  and  C_11
REMARK    2  A    between atoms: C_4  and  C_20
REMARK    3  A    between atoms: C_20  and  C_21
REMARK    4  A    between atoms: C_21  and  N_22
REMARK    5  A    between atoms: N_22  and  C_25
REMARK    6  A    between atoms: C_25  and  C_26
REMARK                            x       y       z     vdW  Elec       q    Type
REMARK                         _______ _______ _______ _____ _____    ______ ____
ROOT
ATOM      1  S   UNL     1      31.890 -24.243 -12.898  0.00  0.00    -0.018 S 
ATOM      2  N   UNL     1      33.406 -23.076 -14.942  0.00  0.00    -0.270 N 
ATOM      3  N   UNL     1      31.209 -23.311 -15.369  0.00  0.00    -0.294 N 
ATOM      4  C   UNL     1      33.121 -22.584 -16.214  0.00  0.00    +0.043 C 
ATOM      5  C   UNL     1      32.187 -23.551 -14.376  0.00  0.00    +0.142 C 
ATOM      6  C   UNL     1      31.808 -22.730 -16.455  0.00  0.00    +0.074 C 
ATOM      7  H   UNL     1      30.252 -23.527 -15.292  0.00  0.00    +0.154 HD
ENDROOT
BRANCH   2  11
ATOM      8  F   UNL     1      38.221 -23.272 -10.848  0.00  0.00    -0.201 F 
ATOM      9  F   UNL     1      39.983 -26.173 -14.140  0.00  0.00    -0.204 F 
ATOM     10  O   UNL     1      35.944 -22.968 -12.229  0.00  0.00    -0.472 OA
ATOM     11  C   UNL     1      34.720 -23.080 -14.352  0.00  0.00    +0.127 C 
ATOM     12  C   UNL     1      35.532 -24.285 -14.819  0.00  0.00    +0.054 C 
ATOM     13  C   UNL     1      34.650 -23.097 -12.828  0.00  0.00    +0.226 C 
ATOM     14  C   UNL     1      36.781 -24.431 -13.997  0.00  0.00    +0.018 C 
ATOM     15  C   UNL     1      36.909 -23.782 -12.761  0.00  0.00    +0.162 C 
ATOM     16  C   UNL     1      37.825 -25.247 -14.452  0.00  0.00    +0.029 C 
ATOM     17  C   UNL     1      38.082 -23.918 -12.013  0.00  0.00    +0.176 C 
ATOM     18  C   UNL     1      38.990 -25.390 -13.697  0.00  0.00    +0.142 C 
ATOM     19  C   UNL     1      39.119 -24.723 -12.481  0.00  0.00    +0.062 C 
ENDBRANCH   2  11
BRANCH   4  20
ATOM     20  C   UNL     1      34.155 -22.003 -17.104  0.00  0.00    +0.019 C 
BRANCH  20  21
ATOM     21  C   UNL     1      33.807 -22.212 -18.578  0.00  0.00    -0.075 C 
BRANCH  21  22
ATOM     22  N   UNL     1      33.904 -20.953 -19.310  0.00  0.00    +0.387 N 
ATOM     23  H   UNL     1      33.190 -20.312 -18.965  0.00  0.00    -0.084 HD
ATOM     24  H   UNL     1      33.765 -21.142 -20.302  0.00  0.00    -0.084 HD
BRANCH  22  25
ATOM     25  C   UNL     1      35.216 -20.349 -19.130  0.00  0.00    -0.054 C 
BRANCH  25  26
ATOM     26  C   UNL     1      35.557 -19.403 -20.251  0.00  0.00    -0.044 C 
ATOM     27  C   UNL     1      36.808 -18.785 -20.287  0.00  0.00    -0.006 C 
ATOM     28  C   UNL     1      34.623 -19.147 -21.255  0.00  0.00    -0.006 C 
ATOM     29  C   UNL     1      37.123 -17.911 -21.326  0.00  0.00    -0.000 C 
ATOM     30  C   UNL     1      34.940 -18.272 -22.294  0.00  0.00    -0.000 C 
ATOM     31  C   UNL     1      36.189 -17.654 -22.330  0.00  0.00    -0.000 C 
ENDBRANCH  25  26
ENDBRANCH  22  25
ENDBRANCH  21  22
ENDBRANCH  20  21
ENDBRANCH   4  20
TORSDOF 6
ENDMDL
MODEL 4
REMARK VINA RESULT:     -10.6      3.493      5.464
REMARK  Name = 25052630
REMARK  6 active torsions:
REMARK  status: ('A' for Active; 'I' for Inactive)
REMARK    1  A    between atoms: N_2  and  C_11
REMARK    2  A    between atoms: C_4  and  C_20
REMARK    3  A    between atoms: C_20  and  C_21
REMARK    4  A    between atoms: C_21  and  N_22
REMARK    5  A    between atoms: N_22  and  C_25
REMARK    6  A    between atoms: C_25  and  C_26
REMARK                            x       y       z     vdW  Elec       q    Type
REMARK                         _______ _______ _______ _____ _____    ______ ____
ROOT
ATOM      1  S   UNL     1      31.076 -24.234 -12.770  0.00  0.00    -0.018 S 
ATOM      2  N   UNL     1      32.951 -23.419 -14.683  0.00  0.00    -0.270 N 
ATOM      3  N   UNL     1      30.838 -22.729 -15.032  0.00  0.00    -0.294 N 
ATOM      4  C   UNL     1      32.893 -22.658 -15.849  0.00  0.00    +0.043 C 
ATOM      5  C   UNL     1      31.636 -23.479 -14.138  0.00  0.00    +0.142 C 
ATOM      6  C   UNL     1      31.628 -22.253 -16.044  0.00  0.00    +0.074 C 
ATOM      7  H   UNL     1      29.870 -22.574 -14.942  0.00  0.00    +0.154 HD
ENDROOT
BRANCH   2  11
ATOM      8  F   UNL     1      38.559 -26.293 -14.158  0.00  0.00    -0.201 F 
ATOM      9  F   UNL     1      39.246 -22.835 -11.007  0.00  0.00    -0.204 F 
ATOM     10  O   UNL     1      36.122 -25.356 -14.765  0.00  0.00    -0.472 OA
ATOM     11  C   UNL     1      34.155 -24.018 -14.167  0.00  0.00    +0.127 C 
ATOM     12  C   UNL     1      35.009 -22.991 -13.427  0.00  0.00    +0.054 C 
ATOM     13  C   UNL     1      34.991 -24.643 -15.278  0.00  0.00    +0.226 C 
ATOM     14  C   UNL     1      36.373 -23.552 -13.137  0.00  0.00    +0.018 C 
ATOM     15  C   UNL     1      36.849 -24.679 -13.821  0.00  0.00    +0.162 C 
ATOM     16  C   UNL     1      37.197 -22.928 -12.191  0.00  0.00    +0.029 C 
ATOM     17  C   UNL     1      38.115 -25.195 -13.531  0.00  0.00    +0.176 C 
ATOM     18  C   UNL     1      38.466 -23.439 -11.913  0.00  0.00    +0.142 C 
ATOM     19  C   UNL     1      38.922 -24.574 -12.579  0.00  0.00    +0.062 C 
ENDBRANCH   2  11
BRANCH   4  20
ATOM     20  C   UNL     1      34.082 -22.379 -16.690  0.00  0.00    +0.019 C 
BRANCH  20  21
ATOM     21  C   UNL     1      33.698 -21.669 -17.988  0.00  0.00    -0.075 C 
BRANCH  21  22
ATOM     22  N   UNL     1      34.753 -21.816 -18.984  0.00  0.00    +0.387 N 
ATOM     23  H   UNL     1      34.357 -21.679 -19.913  0.00  0.00    -0.084 HD
ATOM     24  H   UNL     1      35.152 -22.751 -18.901  0.00  0.00    -0.084 HD
BRANCH  22  25
ATOM     25  C   UNL     1      35.811 -20.838 -18.767  0.00  0.00    -0.054 C 
BRANCH  25  26
ATOM     26  C   UNL     1      35.862 -19.814 -19.869  0.00  0.00    -0.044 C 
ATOM     27  C   UNL     1      34.767 -19.650 -20.720  0.00  0.00    -0.006 C 
ATOM     28  C   UNL     1      37.001 -19.029 -20.039  0.00  0.00    -0.006 C 
ATOM     29  C   UNL     1      34.815 -18.700 -21.740  0.00  0.00    -0.000 C 
ATOM     30  C   UNL     1      37.048 -18.079 -21.060  0.00  0.00    -0.000 C 
ATOM     31  C   UNL     1      35.954 -17.915 -21.911  0.00  0.00    -0.000 C 
ENDBRANCH  25  26
ENDBRANCH  22  25
ENDBRANCH  21  22
ENDBRANCH  20  21
ENDBRANCH   4  20
TORSDOF 6
ENDMDL
MODEL 5
REMARK VINA RESULT:     -10.3      3.360      5.386
REMARK  Name = 25052630
REMARK  6 active torsions:
REMARK  status: ('A' for Active; 'I' for Inactive)
REMARK    1  A    between atoms: N_2  and  C_11
REMARK    2  A    between atoms: C_4  and  C_20
REMARK    3  A    between atoms: C_20  and  C_21
REMARK    4  A    between atoms: C_21  and  N_22
REMARK    5  A    between atoms: N_22  and  C_25
REMARK    6  A    between atoms: C_25  and  C_26
REMARK                            x       y       z     vdW  Elec       q    Type
REMARK                         _______ _______ _______ _____ _____    ______ ____
ROOT
ATOM      1  S   UNL     1      31.920 -23.004 -15.199  0.00  0.00    -0.018 S 
ATOM      2  N   UNL     1      34.372 -22.117 -16.219  0.00  0.00    -0.270 N 
ATOM      3  N   UNL     1      32.643 -22.071 -17.658  0.00  0.00    -0.294 N 
ATOM      4  C   UNL     1      34.801 -21.633 -17.453  0.00  0.00    +0.043 C 
ATOM      5  C   UNL     1      32.981 -22.407 -16.327  0.00  0.00    +0.142 C 
ATOM      6  C   UNL     1      33.761 -21.611 -18.301  0.00  0.00    +0.074 C 
ATOM      7  H   UNL     1      31.747 -22.156 -18.059  0.00  0.00    +0.154 HD
ENDROOT
BRANCH   2  11
ATOM      8  F   UNL     1      36.687 -23.681 -10.547  0.00  0.00    -0.201 F 
ATOM      9  F   UNL     1      40.462 -24.786 -13.172  0.00  0.00    -0.204 F 
ATOM     10  O   UNL     1      35.285 -22.985 -12.723  0.00  0.00    -0.472 OA
ATOM     11  C   UNL     1      35.226 -22.277 -15.070  0.00  0.00    +0.127 C 
ATOM     12  C   UNL     1      36.459 -23.110 -15.410  0.00  0.00    +0.054 C 
ATOM     13  C   UNL     1      34.489 -22.941 -13.912  0.00  0.00    +0.226 C 
ATOM     14  C   UNL     1      37.193 -23.501 -14.159  0.00  0.00    +0.018 C 
ATOM     15  C   UNL     1      36.569 -23.427 -12.906  0.00  0.00    +0.162 C 
ATOM     16  C   UNL     1      38.510 -23.971 -14.240  0.00  0.00    +0.029 C 
ATOM     17  C   UNL     1      37.269 -23.782 -11.749  0.00  0.00    +0.176 C 
ATOM     18  C   UNL     1      39.202 -24.337 -13.084  0.00  0.00    +0.142 C 
ATOM     19  C   UNL     1      38.584 -24.238 -11.840  0.00  0.00    +0.062 C 
ENDBRANCH   2  11
BRANCH   4  20
ATOM     20  C   UNL     1      36.203 -21.224 -17.715  0.00  0.00    +0.019 C 
BRANCH  20  21
ATOM     21  C   UNL     1      36.399 -20.791 -19.168  0.00  0.00    -0.075 C 
BRANCH  21  22
ATOM     22  N   UNL     1      35.926 -19.425 -19.363  0.00  0.00    +0.387 N 
ATOM     23  H   UNL     1      35.908 -18.947 -18.462  0.00  0.00    -0.084 HD
ATOM     24  H   UNL     1      34.991 -19.459 -19.767  0.00  0.00    -0.084 HD
BRANCH  22  25
ATOM     25  C   UNL     1      36.801 -18.698 -20.272  0.00  0.00    -0.054 C 
BRANCH  25  26
ATOM     26  C   UNL     1      36.042 -18.111 -21.432  0.00  0.00    -0.044 C 
ATOM     27  C   UNL     1      35.330 -18.947 -22.294  0.00  0.00    -0.006 C 
ATOM     28  C   UNL     1      36.048 -16.733 -21.643  0.00  0.00    -0.006 C 
ATOM     29  C   UNL     1      34.626 -18.403 -23.368  0.00  0.00    -0.000 C 
ATOM     30  C   UNL     1      35.343 -16.190 -22.718  0.00  0.00    -0.000 C 
ATOM     31  C   UNL     1      34.632 -17.025 -23.580  0.00  0.00    -0.000 C 
ENDBRANCH  25  26
ENDBRANCH  22  25
ENDBRANCH  21  22
ENDBRANCH  20  21
ENDBRANCH   4  20
TORSDOF 6
ENDMDL
MODEL 6
REMARK VINA RESULT:     -10.2      8.179     11.625
REMARK  Name = 25052630
REMARK  6 active torsions:
REMARK  status: ('A' for Active; 'I' for Inactive)
REMARK    1  A    between atoms: N_2  and  C_11
REMARK    2  A    between atoms: C_4  and  C_20
REMARK    3  A    between atoms: C_20  and  C_21
REMARK    4  A    between atoms: C_21  and  N_22
REMARK    5  A    between atoms: N_22  and  C_25
REMARK    6  A    between atoms: C_25  and  C_26
REMARK                            x       y       z     vdW  Elec       q    Type
REMARK                         _______ _______ _______ _____ _____    ______ ____
ROOT
ATOM      1  S   UNL     1      33.455 -13.480 -25.481  0.00  0.00    -0.018 S 
ATOM      2  N   UNL     1      34.369 -14.126 -22.914  0.00  0.00    -0.270 N 
ATOM      3  N   UNL     1      34.634 -15.725 -24.475  0.00  0.00    -0.294 N 
ATOM      4  C   UNL     1      34.974 -15.243 -22.343  0.00  0.00    +0.043 C 
ATOM      5  C   UNL     1      34.140 -14.413 -24.291  0.00  0.00    +0.142 C 
ATOM      6  C   UNL     1      35.126 -16.188 -23.284  0.00  0.00    +0.074 C 
ATOM      7  H   UNL     1      34.625 -16.226 -25.323  0.00  0.00    +0.154 HD
ENDROOT
BRANCH   2  11
ATOM      8  F   UNL     1      32.295  -8.364 -21.337  0.00  0.00    -0.201 F 
ATOM      9  F   UNL     1      30.797 -10.717 -17.519  0.00  0.00    -0.204 F 
ATOM     10  O   UNL     1      33.254 -10.613 -22.437  0.00  0.00    -0.472 OA
ATOM     11  C   UNL     1      34.053 -12.919 -22.194  0.00  0.00    +0.127 C 
ATOM     12  C   UNL     1      33.076 -13.196 -21.054  0.00  0.00    +0.054 C 
ATOM     13  C   UNL     1      33.450 -11.861 -23.112  0.00  0.00    +0.226 C 
ATOM     14  C   UNL     1      32.544 -11.908 -20.492  0.00  0.00    +0.018 C 
ATOM     15  C   UNL     1      32.652 -10.710 -21.210  0.00  0.00    +0.162 C 
ATOM     16  C   UNL     1      31.905 -11.902 -19.245  0.00  0.00    +0.029 C 
ATOM     17  C   UNL     1      32.163  -9.518 -20.669  0.00  0.00    +0.176 C 
ATOM     18  C   UNL     1      31.406 -10.712 -18.712  0.00  0.00    +0.142 C 
ATOM     19  C   UNL     1      31.539  -9.521 -19.422  0.00  0.00    +0.062 C 
ENDBRANCH   2  11
BRANCH   4  20
ATOM     20  C   UNL     1      35.362 -15.307 -20.912  0.00  0.00    +0.019 C 
BRANCH  20  21
ATOM     21  C   UNL     1      34.953 -16.636 -20.278  0.00  0.00    -0.075 C 
BRANCH  21  22
ATOM     22  N   UNL     1      36.092 -17.545 -20.216  0.00  0.00    +0.387 N 
ATOM     23  H   UNL     1      36.338 -17.705 -19.239  0.00  0.00    -0.084 HD
ATOM     24  H   UNL     1      36.874 -17.122 -20.715  0.00  0.00    -0.084 HD
BRANCH  22  25
ATOM     25  C   UNL     1      35.774 -18.819 -20.844  0.00  0.00    -0.054 C 
BRANCH  25  26
ATOM     26  C   UNL     1      35.148 -19.783 -19.871  0.00  0.00    -0.044 C 
ATOM     27  C   UNL     1      35.956 -20.532 -19.014  0.00  0.00    -0.006 C 
ATOM     28  C   UNL     1      33.762 -19.926 -19.825  0.00  0.00    -0.006 C 
ATOM     29  C   UNL     1      35.377 -21.424 -18.113  0.00  0.00    -0.000 C 
ATOM     30  C   UNL     1      33.183 -20.819 -18.923  0.00  0.00    -0.000 C 
ATOM     31  C   UNL     1      33.990 -21.568 -18.067  0.00  0.00    -0.000 C 
ENDBRANCH  25  26
ENDBRANCH  22  25
ENDBRANCH  21  22
ENDBRANCH  20  21
ENDBRANCH   4  20
TORSDOF 6
ENDMDL
MODEL 7
REMARK VINA RESULT:     -10.1      1.788      2.970
REMARK  Name = 25052630
REMARK  6 active torsions:
REMARK  status: ('A' for Active; 'I' for Inactive)
REMARK    1  A    between atoms: N_2  and  C_11
REMARK    2  A    between atoms: C_4  and  C_20
REMARK    3  A    between atoms: C_20  and  C_21
REMARK    4  A    between atoms: C_21  and  N_22
REMARK    5  A    between atoms: N_22  and  C_25
REMARK    6  A    between atoms: C_25  and  C_26
REMARK                            x       y       z     vdW  Elec       q    Type
REMARK                         _______ _______ _______ _____ _____    ______ ____
ROOT
ATOM      1  S   UNL     1      36.842 -24.728 -13.584  0.00  0.00    -0.018 S 
ATOM      2  N   UNL     1      36.495 -22.501 -15.246  0.00  0.00    -0.270 N 
ATOM      3  N   UNL     1      38.608 -23.248 -15.043  0.00  0.00    -0.294 N 
ATOM      4  C   UNL     1      37.348 -21.708 -16.011  0.00  0.00    +0.043 C 
ATOM      5  C   UNL     1      37.286 -23.503 -14.611  0.00  0.00    +0.142 C 
ATOM      6  C   UNL     1      38.604 -22.165 -15.881  0.00  0.00    +0.074 C 
ATOM      7  H   UNL     1      39.404 -23.766 -14.783  0.00  0.00    +0.154 HD
ENDROOT
BRANCH   2  11
ATOM      8  F   UNL     1      30.279 -22.447 -16.399  0.00  0.00    -0.201 F 
ATOM      9  F   UNL     1      30.136 -23.743 -11.854  0.00  0.00    -0.204 F 
ATOM     10  O   UNL     1      32.959 -22.428 -16.386  0.00  0.00    -0.472 OA
ATOM     11  C   UNL     1      35.072 -22.299 -15.148  0.00  0.00    +0.127 C 
ATOM     12  C   UNL     1      34.487 -23.058 -13.960  0.00  0.00    +0.054 C 
ATOM     13  C   UNL     1      34.355 -22.745 -16.417  0.00  0.00    +0.226 C 
ATOM     14  C   UNL     1      32.986 -23.067 -14.029  0.00  0.00    +0.018 C 
ATOM     15  C   UNL     1      32.318 -22.767 -15.223  0.00  0.00    +0.162 C 
ATOM     16  C   UNL     1      32.237 -23.406 -12.893  0.00  0.00    +0.029 C 
ATOM     17  C   UNL     1      30.921 -22.767 -15.268  0.00  0.00    +0.176 C 
ATOM     18  C   UNL     1      30.843 -23.418 -12.945  0.00  0.00    +0.142 C 
ATOM     19  C   UNL     1      30.186 -23.094 -14.129  0.00  0.00    +0.062 C 
ENDBRANCH   2  11
BRANCH   4  20
ATOM     20  C   UNL     1      36.872 -20.558 -16.817  0.00  0.00    +0.019 C 
BRANCH  20  21
ATOM     21  C   UNL     1      36.731 -20.928 -18.294  0.00  0.00    -0.075 C 
BRANCH  21  22
ATOM     22  N   UNL     1      36.593 -19.728 -19.111  0.00  0.00    +0.387 N 
ATOM     23  H   UNL     1      37.409 -19.641 -19.717  0.00  0.00    -0.084 HD
ATOM     24  H   UNL     1      36.521 -18.920 -18.493  0.00  0.00    -0.084 HD
BRANCH  22  25
ATOM     25  C   UNL     1      35.393 -19.795 -19.932  0.00  0.00    -0.054 C 
BRANCH  25  26
ATOM     26  C   UNL     1      35.334 -18.670 -20.932  0.00  0.00    -0.044 C 
ATOM     27  C   UNL     1      34.903 -18.918 -22.236  0.00  0.00    -0.006 C 
ATOM     28  C   UNL     1      35.706 -17.381 -20.554  0.00  0.00    -0.006 C 
ATOM     29  C   UNL     1      34.848 -17.877 -23.161  0.00  0.00    -0.000 C 
ATOM     30  C   UNL     1      35.650 -16.339 -21.480  0.00  0.00    -0.000 C 
ATOM     31  C   UNL     1      35.221 -16.587 -22.784  0.00  0.00    -0.000 C 
ENDBRANCH  25  26
ENDBRANCH  22  25
ENDBRANCH  21  22
ENDBRANCH  20  21
ENDBRANCH   4  20
TORSDOF 6
ENDMDL
MODEL 8
REMARK VINA RESULT:     -10.1      2.380      5.493
REMARK  Name = 25052630
REMARK  6 active torsions:
REMARK  status: ('A' for Active; 'I' for Inactive)
REMARK    1  A    between atoms: N_2  and  C_11
REMARK    2  A    between atoms: C_4  and  C_20
REMARK    3  A    between atoms: C_20  and  C_21
REMARK    4  A    between atoms: C_21  and  N_22
REMARK    5  A    between atoms: N_22  and  C_25
REMARK    6  A    between atoms: C_25  and  C_26
REMARK                            x       y       z     vdW  Elec       q    Type
REMARK                         _______ _______ _______ _____ _____    ______ ____
ROOT
ATOM      1  S   UNL     1      33.809 -21.190 -19.114  0.00  0.00    -0.018 S 
ATOM      2  N   UNL     1      35.153 -21.962 -16.783  0.00  0.00    -0.270 N 
ATOM      3  N   UNL     1      36.318 -20.651 -18.192  0.00  0.00    -0.294 N 
ATOM      4  C   UNL     1      36.422 -21.722 -16.259  0.00  0.00    +0.043 C 
ATOM      5  C   UNL     1      35.062 -21.280 -18.031  0.00  0.00    +0.142 C 
ATOM      6  C   UNL     1      37.105 -20.939 -17.110  0.00  0.00    +0.074 C 
ATOM      7  H   UNL     1      36.584 -20.095 -18.960  0.00  0.00    +0.154 HD
ENDROOT
BRANCH   2  11
ATOM      8  F   UNL     1      31.572 -24.889 -12.471  0.00  0.00    -0.201 F 
ATOM      9  F   UNL     1      28.125 -23.365 -15.327  0.00  0.00    -0.204 F 
ATOM     10  O   UNL     1      33.446 -23.711 -13.983  0.00  0.00    -0.472 OA
ATOM     11  C   UNL     1      34.150 -22.766 -16.135  0.00  0.00    +0.127 C 
ATOM     12  C   UNL     1      32.747 -22.238 -16.424  0.00  0.00    +0.054 C 
ATOM     13  C   UNL     1      34.355 -22.810 -14.624  0.00  0.00    +0.226 C 
ATOM     14  C   UNL     1      31.738 -22.905 -15.533  0.00  0.00    +0.018 C 
ATOM     15  C   UNL     1      32.139 -23.584 -14.374  0.00  0.00    +0.162 C 
ATOM     16  C   UNL     1      30.374 -22.829 -15.843  0.00  0.00    +0.029 C 
ATOM     17  C   UNL     1      31.189 -24.210 -13.561  0.00  0.00    +0.176 C 
ATOM     18  C   UNL     1      29.427 -23.444 -15.022  0.00  0.00    +0.142 C 
ATOM     19  C   UNL     1      29.835 -24.137 -13.885  0.00  0.00    +0.062 C 
ENDBRANCH   2  11
BRANCH   4  20
ATOM     20  C   UNL     1      36.877 -22.276 -14.961  0.00  0.00    +0.019 C 
BRANCH  20  21
ATOM     21  C   UNL     1      38.300 -22.827 -15.053  0.00  0.00    -0.075 C 
BRANCH  21  22
ATOM     22  N   UNL     1      38.324 -24.243 -14.704  0.00  0.00    +0.387 N 
ATOM     23  H   UNL     1      38.879 -24.748 -15.395  0.00  0.00    -0.084 HD
ATOM     24  H   UNL     1      37.366 -24.592 -14.694  0.00  0.00    -0.084 HD
BRANCH  22  25
ATOM     25  C   UNL     1      38.907 -24.442 -13.385  0.00  0.00    -0.054 C 
BRANCH  25  26
ATOM     26  C   UNL     1      37.963 -24.032 -12.287  0.00  0.00    -0.044 C 
ATOM     27  C   UNL     1      38.269 -22.937 -11.477  0.00  0.00    -0.006 C 
ATOM     28  C   UNL     1      36.782 -24.743 -12.080  0.00  0.00    -0.006 C 
ATOM     29  C   UNL     1      37.395 -22.556 -10.460  0.00  0.00    -0.000 C 
ATOM     30  C   UNL     1      35.907 -24.362 -11.062  0.00  0.00    -0.000 C 
ATOM     31  C   UNL     1      36.214 -23.268 -10.252  0.00  0.00    -0.000 C 
ENDBRANCH  25  26
ENDBRANCH  22  25
ENDBRANCH  21  22
ENDBRANCH  20  21
ENDBRANCH   4  20
TORSDOF 6
ENDMDL
MODEL 9
REMARK VINA RESULT:     -10.1      2.219      3.285
REMARK  Name = 25052630
REMARK  6 active torsions:
REMARK  status: ('A' for Active; 'I' for Inactive)
REMARK    1  A    between atoms: N_2  and  C_11
REMARK    2  A    between atoms: C_4  and  C_20
REMARK    3  A    between atoms: C_20  and  C_21
REMARK    4  A    between atoms: C_21  and  N_22
REMARK    5  A    between atoms: N_22  and  C_25
REMARK    6  A    between atoms: C_25  and  C_26
REMARK                            x       y       z     vdW  Elec       q    Type
REMARK                         _______ _______ _______ _____ _____    ______ ____
ROOT
ATOM      1  S   UNL     1      36.778 -22.699 -13.530  0.00  0.00    -0.018 S 
ATOM      2  N   UNL     1      35.373 -22.257 -15.912  0.00  0.00    -0.270 N 
ATOM      3  N   UNL     1      37.440 -21.371 -15.819  0.00  0.00    -0.294 N 
ATOM      4  C   UNL     1      35.653 -21.594 -17.105  0.00  0.00    +0.043 C 
ATOM      5  C   UNL     1      36.513 -22.127 -15.065  0.00  0.00    +0.142 C 
ATOM      6  C   UNL     1      36.888 -21.071 -17.036  0.00  0.00    +0.074 C 
ATOM      7  H   UNL     1      38.338 -21.103 -15.517  0.00  0.00    +0.154 HD
ENDROOT
BRANCH   2  11
ATOM      8  F   UNL     1      30.464 -24.986 -13.007  0.00  0.00    -0.201 F 
ATOM      9  F   UNL     1      28.072 -22.508 -16.247  0.00  0.00    -0.204 F 
ATOM     10  O   UNL     1      32.801 -23.996 -13.869  0.00  0.00    -0.472 OA
ATOM     11  C   UNL     1      34.134 -22.936 -15.635  0.00  0.00    +0.127 C 
ATOM     12  C   UNL     1      32.938 -22.126 -16.128  0.00  0.00    +0.054 C 
ATOM     13  C   UNL     1      33.963 -23.205 -14.143  0.00  0.00    +0.226 C 
ATOM     14  C   UNL     1      31.656 -22.701 -15.595  0.00  0.00    +0.018 C 
ATOM     15  C   UNL     1      31.660 -23.581 -14.504  0.00  0.00    +0.162 C 
ATOM     16  C   UNL     1      30.433 -22.336 -16.173  0.00  0.00    +0.029 C 
ATOM     17  C   UNL     1      30.461 -24.118 -14.028  0.00  0.00    +0.176 C 
ATOM     18  C   UNL     1      29.236 -22.863 -15.687  0.00  0.00    +0.142 C 
ATOM     19  C   UNL     1      29.251 -23.756 -14.618  0.00  0.00    +0.062 C 
ENDBRANCH   2  11
BRANCH   4  20
ATOM     20  C   UNL     1      34.691 -21.519 -18.231  0.00  0.00    +0.019 C 
BRANCH  20  21
ATOM     21  C   UNL     1      35.357 -21.001 -19.505  0.00  0.00    -0.075 C 
BRANCH  21  22
ATOM     22  N   UNL     1      34.827 -19.689 -19.862  0.00  0.00    +0.387 N 
ATOM     23  H   UNL     1      34.395 -19.269 -19.039  0.00  0.00    -0.084 HD
ATOM     24  H   UNL     1      34.138 -19.807 -20.604  0.00  0.00    -0.084 HD
BRANCH  22  25
ATOM     25  C   UNL     1      35.887 -18.815 -20.343  0.00  0.00    -0.054 C 
BRANCH  25  26
ATOM     26  C   UNL     1      35.469 -18.051 -21.571  0.00  0.00    -0.044 C 
ATOM     27  C   UNL     1      34.890 -18.724 -22.648  0.00  0.00    -0.006 C 
ATOM     28  C   UNL     1      35.658 -16.671 -21.631  0.00  0.00    -0.006 C 
ATOM     29  C   UNL     1      34.503 -18.015 -23.785  0.00  0.00    -0.000 C 
ATOM     30  C   UNL     1      35.270 -15.962 -22.770  0.00  0.00    -0.000 C 
ATOM     31  C   UNL     1      34.692 -16.635 -23.846  0.00  0.00    -0.000 C 
ENDBRANCH  25  26
ENDBRANCH  22  25
ENDBRANCH  21  22
ENDBRANCH  20  21
ENDBRANCH   4  20
TORSDOF 6
ENDMDL
