MODEL 1
REMARK VINA RESULT:     -13.7      0.000      0.000
REMARK  Name = 115237
REMARK  5 active torsions:
REMARK  status: ('A' for Active; 'I' for Inactive)
REMARK    1  A    between atoms: N_1  and  C_18
REMARK    2  A    between atoms: C_2  and  C_11
REMARK    3  A    between atoms: C_18  and  C_19
REMARK    4  A    between atoms: C_19  and  C_23
REMARK    5  A    between atoms: C_25  and  O_32
REMARK                            x       y       z     vdW  Elec       q    Type
REMARK                         _______ _______ _______ _____ _____    ______ ____
ROOT
ATOM      1  N   UNL     1      34.496 -21.492 -17.816  0.00  0.00    +0.387 N 
ATOM      2  C   UNL     1      35.011 -19.758 -20.124  0.00  0.00    +0.039 C 
ATOM      3  C   UNL     1      33.613 -19.914 -19.505  0.00  0.00    -0.017 C 
ATOM      4  C   UNL     1      36.087 -20.071 -19.071  0.00  0.00    -0.017 C 
ATOM      5  C   UNL     1      33.454 -21.278 -18.830  0.00  0.00    -0.077 C 
ATOM      6  C   UNL     1      35.838 -21.429 -18.411  0.00  0.00    -0.077 C 
ATOM      7  H   UNL     1      34.423 -20.743 -17.126  0.00  0.00    -0.080 HD
ENDROOT
BRANCH   2  11
ATOM      8  F   UNL     1      34.474 -15.820 -25.549  0.00  0.00    -0.204 F 
ATOM      9  O   UNL     1      35.789 -16.339 -20.952  0.00  0.00    -0.354 OA
ATOM     10  N   UNL     1      35.742 -17.415 -20.074  0.00  0.00    -0.081 NA
ATOM     11  C   UNL     1      35.213 -18.411 -20.782  0.00  0.00    +0.100 A 
ATOM     12  C   UNL     1      34.903 -18.046 -22.099  0.00  0.00    +0.054 A 
ATOM     13  C   UNL     1      35.288 -16.718 -22.160  0.00  0.00    +0.179 A 
ATOM     14  C   UNL     1      34.353 -18.648 -23.241  0.00  0.00    +0.007 C 
ATOM     15  C   UNL     1      35.168 -15.917 -23.292  0.00  0.00    +0.070 C 
ATOM     16  C   UNL     1      34.219 -17.871 -24.400  0.00  0.00    +0.030 C 
ATOM     17  C   UNL     1      34.619 -16.531 -24.422  0.00  0.00    +0.143 C 
ENDBRANCH   2  11
BRANCH   1  18
ATOM     18  C   UNL     1      34.296 -22.774 -17.140  0.00  0.00    -0.076 C 
BRANCH  18  19
ATOM     19  C   UNL     1      33.334 -22.600 -15.973  0.00  0.00    -0.007 C 
BRANCH  19  23
ATOM     20  O   UNL     1      36.104 -22.738 -15.745  0.00  0.00    -0.274 OA
ATOM     21  N   UNL     1      36.111 -23.149 -13.451  0.00  0.00    -0.235 N 
ATOM     22  N   UNL     1      34.053 -23.476 -12.330  0.00  0.00    -0.397 NA
ATOM     23  C   UNL     1      34.006 -22.932 -14.672  0.00  0.00    +0.123 C 
ATOM     24  C   UNL     1      37.575 -23.187 -13.434  0.00  0.00    +0.100 C 
ATOM     25  C   UNL     1      36.057 -23.675 -11.002  0.00  0.00    +0.177 C 
ATOM     26  C   UNL     1      38.191 -23.010 -12.060  0.00  0.00    +0.025 C 
ATOM     27  C   UNL     1      37.537 -23.988 -11.108  0.00  0.00    +0.040 C 
ATOM     28  C   UNL     1      35.349 -23.443 -12.333  0.00  0.00    +0.192 C 
ATOM     29  C   UNL     1      35.501 -22.922 -14.688  0.00  0.00    +0.237 C 
ATOM     30  C   UNL     1      33.393 -23.218 -13.506  0.00  0.00    +0.097 C 
ATOM     31  C   UNL     1      31.896 -23.306 -13.368  0.00  0.00    +0.062 C 
BRANCH  25  32
ATOM     32  O   UNL     1      35.410 -24.749 -10.333  0.00  0.00    -0.376 OA
ATOM     33  H   UNL     1      34.758 -25.153 -10.926  0.00  0.00    +0.211 HD
ENDBRANCH  25  32
ENDBRANCH  19  23
ENDBRANCH  18  19
ENDBRANCH   1  18
TORSDOF 5
ENDMDL
MODEL 2
REMARK VINA RESULT:     -13.6      2.103      2.622
REMARK  Name = 115237
REMARK  5 active torsions:
REMARK  status: ('A' for Active; 'I' for Inactive)
REMARK    1  A    between atoms: N_1  and  C_18
REMARK    2  A    between atoms: C_2  and  C_11
REMARK    3  A    between atoms: C_18  and  C_19
REMARK    4  A    between atoms: C_19  and  C_23
REMARK    5  A    between atoms: C_25  and  O_32
REMARK                            x       y       z     vdW  Elec       q    Type
REMARK                         _______ _______ _______ _____ _____    ______ ____
ROOT
ATOM      1  N   UNL     1      35.240 -20.643 -18.324  0.00  0.00    +0.387 N 
ATOM      2  C   UNL     1      35.297 -19.311 -20.937  0.00  0.00    +0.039 C 
ATOM      3  C   UNL     1      33.995 -19.526 -20.148  0.00  0.00    -0.017 C 
ATOM      4  C   UNL     1      36.494 -19.288 -19.971  0.00  0.00    -0.017 C 
ATOM      5  C   UNL     1      34.093 -20.752 -19.238  0.00  0.00    -0.077 C 
ATOM      6  C   UNL     1      36.502 -20.522 -19.066  0.00  0.00    -0.077 C 
ATOM      7  H   UNL     1      35.119 -19.796 -17.768  0.00  0.00    -0.080 HD
ENDROOT
BRANCH   2  11
ATOM      8  F   UNL     1      34.869 -12.635 -21.617  0.00  0.00    -0.204 F 
ATOM      9  O   UNL     1      35.233 -16.968 -23.672  0.00  0.00    -0.354 OA
ATOM     10  N   UNL     1      35.302 -18.254 -23.152  0.00  0.00    -0.081 NA
ATOM     11  C   UNL     1      35.245 -18.094 -21.831  0.00  0.00    +0.100 A 
ATOM     12  C   UNL     1      35.139 -16.750 -21.446  0.00  0.00    +0.054 A 
ATOM     13  C   UNL     1      35.136 -16.072 -22.652  0.00  0.00    +0.179 A 
ATOM     14  C   UNL     1      35.048 -16.018 -20.252  0.00  0.00    +0.007 C 
ATOM     15  C   UNL     1      35.048 -14.688 -22.774  0.00  0.00    +0.070 C 
ATOM     16  C   UNL     1      34.957 -14.621 -20.338  0.00  0.00    +0.030 C 
ATOM     17  C   UNL     1      34.957 -13.972 -21.577  0.00  0.00    +0.143 C 
ENDBRANCH   2  11
BRANCH   1  18
ATOM     18  C   UNL     1      35.285 -21.794 -17.422  0.00  0.00    -0.076 C 
BRANCH  18  19
ATOM     19  C   UNL     1      35.581 -21.329 -16.003  0.00  0.00    -0.007 C 
BRANCH  19  23
ATOM     20  O   UNL     1      38.290 -21.969 -16.006  0.00  0.00    -0.274 OA
ATOM     21  N   UNL     1      38.117 -23.645 -14.398  0.00  0.00    -0.235 N 
ATOM     22  N   UNL     1      35.976 -24.271 -13.607  0.00  0.00    -0.397 NA
ATOM     23  C   UNL     1      36.130 -22.455 -15.175  0.00  0.00    +0.123 C 
ATOM     24  C   UNL     1      39.559 -23.895 -14.462  0.00  0.00    +0.100 C 
ATOM     25  C   UNL     1      37.860 -25.497 -12.729  0.00  0.00    +0.177 C 
ATOM     26  C   UNL     1      40.119 -24.650 -13.272  0.00  0.00    +0.025 C 
ATOM     27  C   UNL     1      39.286 -25.895 -13.055  0.00  0.00    +0.040 C 
ATOM     28  C   UNL     1      37.263 -24.429 -13.639  0.00  0.00    +0.192 C 
ATOM     29  C   UNL     1      37.612 -22.650 -15.239  0.00  0.00    +0.237 C 
ATOM     30  C   UNL     1      35.422 -23.280 -14.379  0.00  0.00    +0.097 C 
ATOM     31  C   UNL     1      33.922 -23.218 -14.262  0.00  0.00    +0.062 C 
BRANCH  25  32
ATOM     32  O   UNL     1      37.036 -26.653 -12.797  0.00  0.00    -0.376 OA
ATOM     33  H   UNL     1      36.576 -26.672 -13.650  0.00  0.00    +0.211 HD
ENDBRANCH  25  32
ENDBRANCH  19  23
ENDBRANCH  18  19
ENDBRANCH   1  18
TORSDOF 5
ENDMDL
MODEL 3
REMARK VINA RESULT:     -13.5      3.636     10.885
REMARK  Name = 115237
REMARK  5 active torsions:
REMARK  status: ('A' for Active; 'I' for Inactive)
REMARK    1  A    between atoms: N_1  and  C_18
REMARK    2  A    between atoms: C_2  and  C_11
REMARK    3  A    between atoms: C_18  and  C_19
REMARK    4  A    between atoms: C_19  and  C_23
REMARK    5  A    between atoms: C_25  and  O_32
REMARK                            x       y       z     vdW  Elec       q    Type
REMARK                         _______ _______ _______ _____ _____    ______ ____
ROOT
ATOM      1  N   UNL     1      34.745 -19.953 -19.510  0.00  0.00    +0.387 N 
ATOM      2  C   UNL     1      34.532 -22.120 -17.545  0.00  0.00    +0.039 C 
ATOM      3  C   UNL     1      35.818 -21.299 -17.731  0.00  0.00    -0.017 C 
ATOM      4  C   UNL     1      33.316 -21.298 -18.002  0.00  0.00    -0.017 C 
ATOM      5  C   UNL     1      35.927 -20.753 -19.156  0.00  0.00    -0.077 C 
ATOM      6  C   UNL     1      33.516 -20.752 -19.418  0.00  0.00    -0.077 C 
ATOM      7  H   UNL     1      34.673 -19.186 -18.840  0.00  0.00    -0.080 HD
ENDROOT
BRANCH   2  11
ATOM      8  F   UNL     1      30.569 -23.713 -12.351  0.00  0.00    -0.204 F 
ATOM      9  O   UNL     1      34.986 -23.480 -14.239  0.00  0.00    -0.354 OA
ATOM     10  N   UNL     1      35.462 -23.048 -15.471  0.00  0.00    -0.081 NA
ATOM     11  C   UNL     1      34.379 -22.657 -16.140  0.00  0.00    +0.100 A 
ATOM     12  C   UNL     1      33.195 -22.809 -15.404  0.00  0.00    +0.054 A 
ATOM     13  C   UNL     1      33.633 -23.336 -14.202  0.00  0.00    +0.179 A 
ATOM     14  C   UNL     1      31.823 -22.577 -15.587  0.00  0.00    +0.007 C 
ATOM     15  C   UNL     1      32.797 -23.661 -13.137  0.00  0.00    +0.070 C 
ATOM     16  C   UNL     1      30.953 -22.892 -14.534  0.00  0.00    +0.030 C 
ATOM     17  C   UNL     1      31.434 -23.425 -13.333  0.00  0.00    +0.143 C 
ENDBRANCH   2  11
BRANCH   1  18
ATOM     18  C   UNL     1      34.892 -19.392 -20.853  0.00  0.00    -0.076 C 
BRANCH  18  19
ATOM     19  C   UNL     1      35.790 -18.164 -20.806  0.00  0.00    -0.007 C 
BRANCH  19  23
ATOM     20  O   UNL     1      35.307 -15.562 -19.943  0.00  0.00    -0.274 OA
ATOM     21  N   UNL     1      34.741 -14.739 -22.049  0.00  0.00    -0.235 N 
ATOM     22  N   UNL     1      34.587 -16.240 -23.872  0.00  0.00    -0.397 NA
ATOM     23  C   UNL     1      35.291 -17.100 -21.740  0.00  0.00    +0.123 C 
ATOM     24  C   UNL     1      34.528 -13.399 -21.498  0.00  0.00    +0.100 C 
ATOM     25  C   UNL     1      34.058 -13.928 -24.319  0.00  0.00    +0.177 C 
ATOM     26  C   UNL     1      34.535 -12.288 -22.531  0.00  0.00    +0.025 C 
ATOM     27  C   UNL     1      33.579 -12.658 -23.645  0.00  0.00    +0.040 C 
ATOM     28  C   UNL     1      34.464 -15.051 -23.370  0.00  0.00    +0.192 C 
ATOM     29  C   UNL     1      35.124 -15.737 -21.148  0.00  0.00    +0.237 C 
ATOM     30  C   UNL     1      35.001 -17.256 -23.047  0.00  0.00    +0.097 C 
ATOM     31  C   UNL     1      35.084 -18.584 -23.752  0.00  0.00    +0.062 C 
BRANCH  25  32
ATOM     32  O   UNL     1      33.026 -14.412 -25.167  0.00  0.00    -0.376 OA
ATOM     33  H   UNL     1      33.116 -14.012 -26.046  0.00  0.00    +0.211 HD
ENDBRANCH  25  32
ENDBRANCH  19  23
ENDBRANCH  18  19
ENDBRANCH   1  18
TORSDOF 5
ENDMDL
MODEL 4
REMARK VINA RESULT:     -13.3      2.547      4.337
REMARK  Name = 115237
REMARK  5 active torsions:
REMARK  status: ('A' for Active; 'I' for Inactive)
REMARK    1  A    between atoms: N_1  and  C_18
REMARK    2  A    between atoms: C_2  and  C_11
REMARK    3  A    between atoms: C_18  and  C_19
REMARK    4  A    between atoms: C_19  and  C_23
REMARK    5  A    between atoms: C_25  and  O_32
REMARK                            x       y       z     vdW  Elec       q    Type
REMARK                         _______ _______ _______ _____ _____    ______ ____
ROOT
ATOM      1  N   UNL     1      35.862 -18.947 -19.881  0.00  0.00    +0.387 N 
ATOM      2  C   UNL     1      35.355 -17.939 -22.588  0.00  0.00    +0.039 C 
ATOM      3  C   UNL     1      34.264 -18.612 -21.741  0.00  0.00    -0.017 C 
ATOM      4  C   UNL     1      36.431 -17.335 -21.670  0.00  0.00    -0.017 C 
ATOM      5  C   UNL     1      34.868 -19.603 -20.743  0.00  0.00    -0.077 C 
ATOM      6  C   UNL     1      36.956 -18.371 -20.674  0.00  0.00    -0.077 C 
ATOM      7  H   UNL     1      35.396 -18.185 -19.388  0.00  0.00    -0.080 HD
ENDROOT
BRANCH   2  11
ATOM      8  F   UNL     1      33.699 -11.594 -24.082  0.00  0.00    -0.204 F 
ATOM      9  O   UNL     1      33.944 -16.209 -25.416  0.00  0.00    -0.354 OA
ATOM     10  N   UNL     1      34.392 -17.354 -24.769  0.00  0.00    -0.081 NA
ATOM     11  C   UNL     1      34.796 -16.935 -23.571  0.00  0.00    +0.100 A 
ATOM     12  C   UNL     1      34.636 -15.554 -23.389  0.00  0.00    +0.054 A 
ATOM     13  C   UNL     1      34.090 -15.136 -24.590  0.00  0.00    +0.179 A 
ATOM     14  C   UNL     1      34.875 -14.606 -22.383  0.00  0.00    +0.007 C 
ATOM     15  C   UNL     1      33.754 -13.818 -24.883  0.00  0.00    +0.070 C 
ATOM     16  C   UNL     1      34.548 -13.268 -22.643  0.00  0.00    +0.030 C 
ATOM     17  C   UNL     1      33.998 -12.884 -23.871  0.00  0.00    +0.143 C 
ENDBRANCH   2  11
BRANCH   1  18
ATOM     18  C   UNL     1      36.386 -19.893 -18.896  0.00  0.00    -0.076 C 
BRANCH  18  19
ATOM     19  C   UNL     1      35.681 -21.235 -19.039  0.00  0.00    -0.007 C 
BRANCH  19  23
ATOM     20  O   UNL     1      32.950 -21.626 -18.674  0.00  0.00    -0.274 OA
ATOM     21  N   UNL     1      33.135 -22.401 -16.484  0.00  0.00    -0.235 N 
ATOM     22  N   UNL     1      35.250 -22.374 -15.424  0.00  0.00    -0.397 NA
ATOM     23  C   UNL     1      35.115 -21.684 -17.723  0.00  0.00    +0.123 C 
ATOM     24  C   UNL     1      31.685 -22.587 -16.398  0.00  0.00    +0.100 C 
ATOM     25  C   UNL     1      33.383 -23.144 -14.103  0.00  0.00    +0.177 C 
ATOM     26  C   UNL     1      31.235 -23.503 -15.275  0.00  0.00    +0.025 C 
ATOM     27  C   UNL     1      31.875 -23.036 -13.986  0.00  0.00    +0.040 C 
ATOM     28  C   UNL     1      33.972 -22.587 -15.396  0.00  0.00    +0.192 C 
ATOM     29  C   UNL     1      33.635 -21.900 -17.689  0.00  0.00    +0.237 C 
ATOM     30  C   UNL     1      35.810 -21.923 -16.594  0.00  0.00    +0.097 C 
ATOM     31  C   UNL     1      37.295 -21.701 -16.483  0.00  0.00    +0.062 C 
BRANCH  25  32
ATOM     32  O   UNL     1      33.977 -22.457 -13.011  0.00  0.00    -0.376 OA
ATOM     33  H   UNL     1      34.644 -23.025 -12.596  0.00  0.00    +0.211 HD
ENDBRANCH  25  32
ENDBRANCH  19  23
ENDBRANCH  18  19
ENDBRANCH   1  18
TORSDOF 5
ENDMDL
MODEL 5
REMARK VINA RESULT:     -13.2      3.641     10.902
REMARK  Name = 115237
REMARK  5 active torsions:
REMARK  status: ('A' for Active; 'I' for Inactive)
REMARK    1  A    between atoms: N_1  and  C_18
REMARK    2  A    between atoms: C_2  and  C_11
REMARK    3  A    between atoms: C_18  and  C_19
REMARK    4  A    between atoms: C_19  and  C_23
REMARK    5  A    between atoms: C_25  and  O_32
REMARK                            x       y       z     vdW  Elec       q    Type
REMARK                         _______ _______ _______ _____ _____    ______ ____
ROOT
ATOM      1  N   UNL     1      34.853 -20.160 -19.166  0.00  0.00    +0.387 N 
ATOM      2  C   UNL     1      34.902 -22.193 -17.052  0.00  0.00    +0.039 C 
ATOM      3  C   UNL     1      36.056 -21.201 -17.270  0.00  0.00    -0.017 C 
ATOM      4  C   UNL     1      33.592 -21.597 -17.595  0.00  0.00    -0.017 C 
ATOM      5  C   UNL     1      36.129 -20.746 -18.730  0.00  0.00    -0.077 C 
ATOM      6  C   UNL     1      33.754 -21.127 -19.042  0.00  0.00    -0.077 C 
ATOM      7  H   UNL     1      34.646 -19.368 -18.557  0.00  0.00    -0.080 HD
ENDROOT
BRANCH   2  11
ATOM      8  F   UNL     1      37.846 -24.320 -11.392  0.00  0.00    -0.204 F 
ATOM      9  O   UNL     1      33.821 -23.152 -13.752  0.00  0.00    -0.354 OA
ATOM     10  N   UNL     1      33.583 -22.709 -15.047  0.00  0.00    -0.081 NA
ATOM     11  C   UNL     1      34.786 -22.647 -15.615  0.00  0.00    +0.100 A 
ATOM     12  C   UNL     1      35.821 -23.032 -14.751  0.00  0.00    +0.054 A 
ATOM     13  C   UNL     1      35.157 -23.344 -13.578  0.00  0.00    +0.179 A 
ATOM     14  C   UNL     1      37.218 -23.158 -14.798  0.00  0.00    +0.007 C 
ATOM     15  C   UNL     1      35.783 -23.782 -12.414  0.00  0.00    +0.070 C 
ATOM     16  C   UNL     1      37.882 -23.598 -13.643  0.00  0.00    +0.030 C 
ATOM     17  C   UNL     1      37.175 -23.903 -12.475  0.00  0.00    +0.143 C 
ENDBRANCH   2  11
BRANCH   1  18
ATOM     18  C   UNL     1      34.957 -19.678 -20.543  0.00  0.00    -0.076 C 
BRANCH  18  19
ATOM     19  C   UNL     1      35.931 -18.510 -20.611  0.00  0.00    -0.007 C 
BRANCH  19  23
ATOM     20  O   UNL     1      35.403 -15.929 -19.713  0.00  0.00    -0.274 OA
ATOM     21  N   UNL     1      34.836 -15.084 -21.808  0.00  0.00    -0.235 N 
ATOM     22  N   UNL     1      34.713 -16.559 -23.654  0.00  0.00    -0.397 NA
ATOM     23  C   UNL     1      35.420 -17.440 -21.532  0.00  0.00    +0.123 C 
ATOM     24  C   UNL     1      34.598 -13.755 -21.239  0.00  0.00    +0.100 C 
ATOM     25  C   UNL     1      34.151 -14.249 -24.070  0.00  0.00    +0.177 C 
ATOM     26  C   UNL     1      34.593 -12.629 -22.255  0.00  0.00    +0.025 C 
ATOM     27  C   UNL     1      33.649 -12.997 -23.379  0.00  0.00    +0.040 C 
ATOM     28  C   UNL     1      34.569 -15.379 -23.135  0.00  0.00    +0.192 C 
ATOM     29  C   UNL     1      35.229 -16.088 -20.920  0.00  0.00    +0.237 C 
ATOM     30  C   UNL     1      35.139 -17.581 -22.843  0.00  0.00    +0.097 C 
ATOM     31  C   UNL     1      35.246 -18.897 -23.566  0.00  0.00    +0.062 C 
BRANCH  25  32
ATOM     32  O   UNL     1      33.131 -14.737 -24.931  0.00  0.00    -0.376 OA
ATOM     33  H   UNL     1      32.269 -14.415 -24.625  0.00  0.00    +0.211 HD
ENDBRANCH  25  32
ENDBRANCH  19  23
ENDBRANCH  18  19
ENDBRANCH   1  18
TORSDOF 5
ENDMDL
MODEL 6
REMARK VINA RESULT:     -13.2      1.442      2.039
REMARK  Name = 115237
REMARK  5 active torsions:
REMARK  status: ('A' for Active; 'I' for Inactive)
REMARK    1  A    between atoms: N_1  and  C_18
REMARK    2  A    between atoms: C_2  and  C_11
REMARK    3  A    between atoms: C_18  and  C_19
REMARK    4  A    between atoms: C_19  and  C_23
REMARK    5  A    between atoms: C_25  and  O_32
REMARK                            x       y       z     vdW  Elec       q    Type
REMARK                         _______ _______ _______ _____ _____    ______ ____
ROOT
ATOM      1  N   UNL     1      34.465 -21.851 -18.834  0.00  0.00    +0.387 N 
ATOM      2  C   UNL     1      34.905 -19.179 -19.961  0.00  0.00    +0.039 C 
ATOM      3  C   UNL     1      36.001 -20.256 -19.939  0.00  0.00    -0.017 C 
ATOM      4  C   UNL     1      33.518 -19.844 -19.930  0.00  0.00    -0.017 C 
ATOM      5  C   UNL     1      35.797 -21.232 -18.778  0.00  0.00    -0.077 C 
ATOM      6  C   UNL     1      33.404 -20.835 -18.770  0.00  0.00    -0.077 C 
ATOM      7  H   UNL     1      34.381 -22.337 -19.727  0.00  0.00    -0.080 HD
ENDROOT
BRANCH   2  11
ATOM      8  F   UNL     1      35.069 -12.844 -22.213  0.00  0.00    -0.204 F 
ATOM      9  O   UNL     1      35.376 -17.554 -23.142  0.00  0.00    -0.354 OA
ATOM     10  N   UNL     1      35.280 -18.681 -22.335  0.00  0.00    -0.081 NA
ATOM     11  C   UNL     1      35.061 -18.208 -21.109  0.00  0.00    +0.100 A 
ATOM     12  C   UNL     1      35.007 -16.808 -21.062  0.00  0.00    +0.054 A 
ATOM     13  C   UNL     1      35.213 -16.437 -22.380  0.00  0.00    +0.179 A 
ATOM     14  C   UNL     1      34.814 -15.809 -20.095  0.00  0.00    +0.007 C 
ATOM     15  C   UNL     1      35.245 -15.120 -22.828  0.00  0.00    +0.070 C 
ATOM     16  C   UNL     1      34.839 -14.471 -20.513  0.00  0.00    +0.030 C 
ATOM     17  C   UNL     1      35.052 -14.136 -21.854  0.00  0.00    +0.143 C 
ENDBRANCH   2  11
BRANCH   1  18
ATOM     18  C   UNL     1      34.308 -22.823 -17.752  0.00  0.00    -0.076 C 
BRANCH  18  19
ATOM     19  C   UNL     1      33.462 -22.225 -16.636  0.00  0.00    -0.007 C 
BRANCH  19  23
ATOM     20  O   UNL     1      36.187 -22.163 -16.073  0.00  0.00    -0.274 OA
ATOM     21  N   UNL     1      35.957 -22.766 -13.834  0.00  0.00    -0.235 N 
ATOM     22  N   UNL     1      33.817 -23.347 -13.008  0.00  0.00    -0.397 NA
ATOM     23  C   UNL     1      34.001 -22.613 -15.290  0.00  0.00    +0.123 C 
ATOM     24  C   UNL     1      37.406 -22.689 -13.635  0.00  0.00    +0.100 C 
ATOM     25  C   UNL     1      35.659 -23.501 -11.456  0.00  0.00    +0.177 C 
ATOM     26  C   UNL     1      37.836 -22.582 -12.185  0.00  0.00    +0.025 C 
ATOM     27  C   UNL     1      37.163 -23.686 -11.398  0.00  0.00    +0.040 C 
ATOM     28  C   UNL     1      35.097 -23.213 -12.845  0.00  0.00    +0.192 C 
ATOM     29  C   UNL     1      35.481 -22.483 -15.117  0.00  0.00    +0.237 C 
ATOM     30  C   UNL     1      33.281 -23.044 -14.235  0.00  0.00    +0.097 C 
ATOM     31  C   UNL     1      31.793 -23.260 -14.293  0.00  0.00    +0.062 C 
BRANCH  25  32
ATOM     32  O   UNL     1      35.034 -24.675 -10.956  0.00  0.00    -0.376 OA
ATOM     33  H   UNL     1      35.293 -25.435 -11.500  0.00  0.00    +0.211 HD
ENDBRANCH  25  32
ENDBRANCH  19  23
ENDBRANCH  18  19
ENDBRANCH   1  18
TORSDOF 5
ENDMDL
MODEL 7
REMARK VINA RESULT:     -13.1      5.944     12.251
REMARK  Name = 115237
REMARK  5 active torsions:
REMARK  status: ('A' for Active; 'I' for Inactive)
REMARK    1  A    between atoms: N_1  and  C_18
REMARK    2  A    between atoms: C_2  and  C_11
REMARK    3  A    between atoms: C_18  and  C_19
REMARK    4  A    between atoms: C_19  and  C_23
REMARK    5  A    between atoms: C_25  and  O_32
REMARK                            x       y       z     vdW  Elec       q    Type
REMARK                         _______ _______ _______ _____ _____    ______ ____
ROOT
ATOM      1  N   UNL     1      34.978 -13.863 -22.234  0.00  0.00    +0.387 N 
ATOM      2  C   UNL     1      34.887 -16.632 -21.269  0.00  0.00    +0.039 C 
ATOM      3  C   UNL     1      35.446 -16.257 -22.651  0.00  0.00    -0.017 C 
ATOM      4  C   UNL     1      34.999 -15.429 -20.317  0.00  0.00    -0.017 C 
ATOM      5  C   UNL     1      34.804 -14.974 -23.181  0.00  0.00    -0.077 C 
ATOM      6  C   UNL     1      34.373 -14.175 -20.932  0.00  0.00    -0.077 C 
ATOM      7  H   UNL     1      35.979 -13.727 -22.091  0.00  0.00    -0.080 HD
ENDROOT
BRANCH   2  11
ATOM      8  F   UNL     1      34.198 -22.683 -18.418  0.00  0.00    -0.204 F 
ATOM      9  O   UNL     1      37.092 -19.240 -20.123  0.00  0.00    -0.354 OA
ATOM     10  N   UNL     1      36.843 -17.999 -20.695  0.00  0.00    -0.081 NA
ATOM     11  C   UNL     1      35.517 -17.884 -20.703  0.00  0.00    +0.100 A 
ATOM     12  C   UNL     1      34.866 -19.001 -20.159  0.00  0.00    +0.054 A 
ATOM     13  C   UNL     1      35.910 -19.836 -19.804  0.00  0.00    +0.179 A 
ATOM     14  C   UNL     1      33.547 -19.418 -19.920  0.00  0.00    +0.007 C 
ATOM     15  C   UNL     1      35.749 -21.087 -19.215  0.00  0.00    +0.070 C 
ATOM     16  C   UNL     1      33.348 -20.673 -19.327  0.00  0.00    +0.030 C 
ATOM     17  C   UNL     1      34.430 -21.490 -18.983  0.00  0.00    +0.143 C 
ENDBRANCH   2  11
BRANCH   1  18
ATOM     18  C   UNL     1      34.409 -12.631 -22.781  0.00  0.00    -0.076 C 
BRANCH  18  19
ATOM     19  C   UNL     1      32.973 -12.468 -22.305  0.00  0.00    -0.007 C 
BRANCH  19  23
ATOM     20  O   UNL     1      33.661 -10.123 -23.635  0.00  0.00    -0.274 OA
ATOM     21  N   UNL     1      32.856  -8.693 -21.981  0.00  0.00    -0.235 N 
ATOM     22  N   UNL     1      32.055  -9.610 -19.952  0.00  0.00    -0.397 NA
ATOM     23  C   UNL     1      32.764 -11.117 -21.686  0.00  0.00    +0.123 C 
ATOM     24  C   UNL     1      33.243  -7.519 -22.768  0.00  0.00    +0.100 C 
ATOM     25  C   UNL     1      32.054  -7.203 -20.132  0.00  0.00    +0.177 C 
ATOM     26  C   UNL     1      32.561  -6.231 -22.348  0.00  0.00    +0.025 C 
ATOM     27  C   UNL     1      32.733  -6.057 -20.855  0.00  0.00    +0.040 C 
ATOM     28  C   UNL     1      32.351  -8.589 -20.695  0.00  0.00    +0.192 C 
ATOM     29  C   UNL     1      33.135  -9.944 -22.537  0.00  0.00    +0.237 C 
ATOM     30  C   UNL     1      32.266 -10.868 -20.458  0.00  0.00    +0.097 C 
ATOM     31  C   UNL     1      31.897 -11.959 -19.488  0.00  0.00    +0.062 C 
BRANCH  25  32
ATOM     32  O   UNL     1      32.448  -7.182 -18.768  0.00  0.00    -0.376 OA
ATOM     33  H   UNL     1      32.179  -8.009 -18.340  0.00  0.00    +0.211 HD
ENDBRANCH  25  32
ENDBRANCH  19  23
ENDBRANCH  18  19
ENDBRANCH   1  18
TORSDOF 5
ENDMDL
MODEL 8
REMARK VINA RESULT:     -13.1      3.756     10.950
REMARK  Name = 115237
REMARK  5 active torsions:
REMARK  status: ('A' for Active; 'I' for Inactive)
REMARK    1  A    between atoms: N_1  and  C_18
REMARK    2  A    between atoms: C_2  and  C_11
REMARK    3  A    between atoms: C_18  and  C_19
REMARK    4  A    between atoms: C_19  and  C_23
REMARK    5  A    between atoms: C_25  and  O_32
REMARK                            x       y       z     vdW  Elec       q    Type
REMARK                         _______ _______ _______ _____ _____    ______ ____
ROOT
ATOM      1  N   UNL     1      34.499 -19.513 -19.962  0.00  0.00    +0.387 N 
ATOM      2  C   UNL     1      34.277 -21.785 -18.120  0.00  0.00    +0.039 C 
ATOM      3  C   UNL     1      35.596 -21.026 -18.338  0.00  0.00    -0.017 C 
ATOM      4  C   UNL     1      33.086 -20.868 -18.448  0.00  0.00    -0.017 C 
ATOM      5  C   UNL     1      35.650 -20.399 -19.733  0.00  0.00    -0.077 C 
ATOM      6  C   UNL     1      33.232 -20.247 -19.839  0.00  0.00    -0.077 C 
ATOM      7  H   UNL     1      34.514 -18.787 -19.245  0.00  0.00    -0.080 HD
ENDROOT
BRANCH   2  11
ATOM      8  F   UNL     1      30.514 -23.685 -12.880  0.00  0.00    -0.204 F 
ATOM      9  O   UNL     1      34.858 -23.323 -14.914  0.00  0.00    -0.354 OA
ATOM     10  N   UNL     1      35.286 -22.822 -16.137  0.00  0.00    -0.081 NA
ATOM     11  C   UNL     1      34.178 -22.400 -16.742  0.00  0.00    +0.100 A 
ATOM     12  C   UNL     1      33.022 -22.599 -15.973  0.00  0.00    +0.054 A 
ATOM     13  C   UNL     1      33.506 -23.189 -14.819  0.00  0.00    +0.179 A 
ATOM     14  C   UNL     1      31.644 -22.364 -16.092  0.00  0.00    +0.007 C 
ATOM     15  C   UNL     1      32.712 -23.578 -13.744  0.00  0.00    +0.070 C 
ATOM     16  C   UNL     1      30.814 -22.742 -15.027  0.00  0.00    +0.030 C 
ATOM     17  C   UNL     1      31.341 -23.338 -13.877  0.00  0.00    +0.143 C 
ENDBRANCH   2  11
BRANCH   1  18
ATOM     18  C   UNL     1      34.597 -18.878 -21.276  0.00  0.00    -0.076 C 
BRANCH  18  19
ATOM     19  C   UNL     1      35.743 -17.875 -21.282  0.00  0.00    -0.007 C 
BRANCH  19  23
ATOM     20  O   UNL     1      35.332 -17.353 -23.985  0.00  0.00    -0.274 OA
ATOM     21  N   UNL     1      34.536 -15.186 -23.666  0.00  0.00    -0.235 N 
ATOM     22  N   UNL     1      34.564 -14.254 -21.492  0.00  0.00    -0.397 NA
ATOM     23  C   UNL     1      35.277 -16.533 -21.767  0.00  0.00    +0.123 C 
ATOM     24  C   UNL     1      34.341 -15.016 -25.108  0.00  0.00    +0.100 C 
ATOM     25  C   UNL     1      33.770 -12.832 -23.273  0.00  0.00    +0.177 C 
ATOM     26  C   UNL     1      33.411 -13.879 -25.485  0.00  0.00    +0.025 C 
ATOM     27  C   UNL     1      33.868 -12.624 -24.772  0.00  0.00    +0.040 C 
ATOM     28  C   UNL     1      34.343 -14.152 -22.766  0.00  0.00    +0.192 C 
ATOM     29  C   UNL     1      35.052 -16.414 -23.241  0.00  0.00    +0.237 C 
ATOM     30  C   UNL     1      35.030 -15.449 -21.005  0.00  0.00    +0.097 C 
ATOM     31  C   UNL     1      35.260 -15.425 -19.517  0.00  0.00    +0.062 C 
BRANCH  25  32
ATOM     32  O   UNL     1      34.449 -11.770 -22.619  0.00  0.00    -0.376 OA
ATOM     33  H   UNL     1      35.022 -11.313 -23.254  0.00  0.00    +0.211 HD
ENDBRANCH  25  32
ENDBRANCH  19  23
ENDBRANCH  18  19
ENDBRANCH   1  18
TORSDOF 5
ENDMDL
MODEL 9
REMARK VINA RESULT:     -13.0      1.965      3.653
REMARK  Name = 115237
REMARK  5 active torsions:
REMARK  status: ('A' for Active; 'I' for Inactive)
REMARK    1  A    between atoms: N_1  and  C_18
REMARK    2  A    between atoms: C_2  and  C_11
REMARK    3  A    between atoms: C_18  and  C_19
REMARK    4  A    between atoms: C_19  and  C_23
REMARK    5  A    between atoms: C_25  and  O_32
REMARK                            x       y       z     vdW  Elec       q    Type
REMARK                         _______ _______ _______ _____ _____    ______ ____
ROOT
ATOM      1  N   UNL     1      34.720 -21.043 -18.464  0.00  0.00    +0.387 N 
ATOM      2  C   UNL     1      35.144 -19.211 -20.715  0.00  0.00    +0.039 C 
ATOM      3  C   UNL     1      33.752 -19.483 -20.123  0.00  0.00    -0.017 C 
ATOM      4  C   UNL     1      36.224 -19.479 -19.653  0.00  0.00    -0.017 C 
ATOM      5  C   UNL     1      33.680 -20.873 -19.488  0.00  0.00    -0.077 C 
ATOM      6  C   UNL     1      36.062 -20.869 -19.035  0.00  0.00    -0.077 C 
ATOM      7  H   UNL     1      34.584 -20.321 -17.755  0.00  0.00    -0.080 HD
ENDROOT
BRANCH   2  11
ATOM      8  F   UNL     1      34.183 -15.115 -25.961  0.00  0.00    -0.204 F 
ATOM      9  O   UNL     1      35.744 -15.737 -21.454  0.00  0.00    -0.354 OA
ATOM     10  N   UNL     1      35.783 -16.843 -20.615  0.00  0.00    -0.081 NA
ATOM     11  C   UNL     1      35.259 -17.836 -21.332  0.00  0.00    +0.100 A 
ATOM     12  C   UNL     1      34.870 -17.438 -22.619  0.00  0.00    +0.054 A 
ATOM     13  C   UNL     1      35.199 -16.094 -22.649  0.00  0.00    +0.179 A 
ATOM     14  C   UNL     1      34.289 -18.024 -23.754  0.00  0.00    +0.007 C 
ATOM     15  C   UNL     1      34.991 -15.261 -23.745  0.00  0.00    +0.070 C 
ATOM     16  C   UNL     1      34.067 -17.213 -24.876  0.00  0.00    +0.030 C 
ATOM     17  C   UNL     1      34.412 -15.857 -24.868  0.00  0.00    +0.143 C 
ENDBRANCH   2  11
BRANCH   1  18
ATOM     18  C   UNL     1      34.601 -22.355 -17.827  0.00  0.00    -0.076 C 
BRANCH  18  19
ATOM     19  C   UNL     1      34.856 -22.229 -16.331  0.00  0.00    -0.007 C 
BRANCH  19  23
ATOM     20  O   UNL     1      32.201 -21.810 -17.053  0.00  0.00    -0.274 OA
ATOM     21  N   UNL     1      31.307 -23.169 -15.385  0.00  0.00    -0.235 N 
ATOM     22  N   UNL     1      32.752 -24.112 -13.766  0.00  0.00    -0.397 NA
ATOM     23  C   UNL     1      33.719 -22.815 -15.544  0.00  0.00    +0.123 C 
ATOM     24  C   UNL     1      29.946 -22.897 -15.854  0.00  0.00    +0.100 C 
ATOM     25  C   UNL     1      30.396 -24.572 -13.519  0.00  0.00    +0.177 C 
ATOM     26  C   UNL     1      28.906 -23.890 -15.371  0.00  0.00    +0.025 C 
ATOM     27  C   UNL     1      29.026 -24.024 -13.868  0.00  0.00    +0.040 C 
ATOM     28  C   UNL     1      31.563 -23.903 -14.239  0.00  0.00    +0.192 C 
ATOM     29  C   UNL     1      32.348 -22.547 -16.079  0.00  0.00    +0.237 C 
ATOM     30  C   UNL     1      33.822 -23.563 -14.428  0.00  0.00    +0.097 C 
ATOM     31  C   UNL     1      35.139 -23.867 -13.764  0.00  0.00    +0.062 C 
BRANCH  25  32
ATOM     32  O   UNL     1      30.599 -24.437 -12.119  0.00  0.00    -0.376 OA
ATOM     33  H   UNL     1      29.746 -24.294 -11.681  0.00  0.00    +0.211 HD
ENDBRANCH  25  32
ENDBRANCH  19  23
ENDBRANCH  18  19
ENDBRANCH   1  18
TORSDOF 5
ENDMDL
