MODEL 1
REMARK VINA RESULT:     -11.7      0.000      0.000
REMARK  Name = 213049
REMARK  9 active torsions:
REMARK  status: ('A' for Active; 'I' for Inactive)
REMARK    1  A    between atoms: C_3  and  C_13
REMARK    2  A    between atoms: C_4  and  N_25
REMARK    3  A    between atoms: C_16  and  C_17
REMARK    4  A    between atoms: C_17  and  O_18
REMARK    5  A    between atoms: C_17  and  C_20
REMARK    6  A    between atoms: C_20  and  O_21
REMARK    7  A    between atoms: C_26  and  C_29
REMARK    8  A    between atoms: C_29  and  O_30
REMARK    9  A    between atoms: O_30  and  C_33
REMARK                            x       y       z     vdW  Elec       q    Type
REMARK                         _______ _______ _______ _____ _____    ______ ____
ROOT
ATOM      1  F   UNL     1      37.425 -19.773 -19.717  0.00  0.00    -0.204 F 
ATOM      2  F   UNL     1      32.678 -19.881 -19.981  0.00  0.00    -0.204 F 
ATOM      3  C   UNL     1      35.052 -19.805 -19.884  0.00  0.00    +0.051 C 
ATOM      4  C   UNL     1      34.961 -21.383 -17.585  0.00  0.00    +0.062 C 
ATOM      5  C   UNL     1      36.235 -20.172 -19.242  0.00  0.00    +0.143 C 
ATOM      6  C   UNL     1      33.823 -20.227 -19.377  0.00  0.00    +0.143 C 
ATOM      7  C   UNL     1      36.189 -20.961 -18.092  0.00  0.00    +0.045 C 
ATOM      8  C   UNL     1      33.777 -21.016 -18.228  0.00  0.00    +0.045 C 
ENDROOT
BRANCH   3  13
ATOM      9  O   UNL     1      33.740 -16.873 -25.338  0.00  0.00    -0.272 OA
ATOM     10  N   UNL     1      34.998 -17.347 -23.439  0.00  0.00    -0.273 N 
ATOM     11  C   UNL     1      34.342 -19.438 -22.321  0.00  0.00    +0.048 C 
ATOM     12  C   UNL     1      34.871 -18.795 -23.600  0.00  0.00    +0.098 C 
ATOM     13  C   UNL     1      35.101 -18.967 -21.105  0.00  0.00    -0.019 C 
ATOM     14  C   UNL     1      35.848 -16.893 -22.331  0.00  0.00    +0.120 C 
ATOM     15  C   UNL     1      35.785 -17.807 -21.140  0.00  0.00    -0.009 C 
ATOM     16  C   UNL     1      34.453 -16.497 -24.405  0.00  0.00    +0.255 C 
BRANCH  16  17
ATOM     17  C   UNL     1      34.773 -15.029 -24.263  0.00  0.00    +0.217 C 
BRANCH  17  18
ATOM     18  O   UNL     1      35.284 -14.630 -25.518  0.00  0.00    -0.374 OA
ATOM     19  H   UNL     1      35.721 -15.384 -25.944  0.00  0.00    +0.211 HD
ENDBRANCH  17  18
BRANCH  17  20
ATOM     20  C   UNL     1      33.520 -14.239 -23.955  0.00  0.00    +0.176 C 
BRANCH  20  21
ATOM     21  O   UNL     1      32.775 -14.040 -25.148  0.00  0.00    -0.379 OA
ATOM     22  H   UNL     1      32.199 -14.805 -25.300  0.00  0.00    +0.211 HD
ENDBRANCH  20  21
ENDBRANCH  17  20
ENDBRANCH  16  17
ENDBRANCH   3  13
BRANCH   4  25
ATOM     23  O   UNL     1      34.204 -23.566 -14.770  0.00  0.00    -0.432 OA
ATOM     24  O   UNL     1      32.713 -23.059 -16.403  0.00  0.00    -0.226 OA
ATOM     25  N   UNL     1      34.914 -22.187 -16.411  0.00  0.00    -0.221 N 
ATOM     26  C   UNL     1      35.618 -23.414 -14.579  0.00  0.00    +0.234 C 
ATOM     27  C   UNL     1      35.991 -22.242 -15.460  0.00  0.00    +0.149 C 
ATOM     28  C   UNL     1      33.839 -22.937 -15.941  0.00  0.00    +0.409 C 
BRANCH  26  29
ATOM     29  C   UNL     1      36.308 -24.710 -14.980  0.00  0.00    +0.252 C 
BRANCH  29  30
ATOM     30  O   UNL     1      36.875 -25.300 -13.822  0.00  0.00    -0.454 OA
BRANCH  30  33
ATOM     31  O   UNL     1      40.198 -26.253 -14.033  0.00  0.00    -0.347 OA
ATOM     32  N   UNL     1      38.839 -26.491 -14.195  0.00  0.00    -0.039 NA
ATOM     33  C   UNL     1      38.240 -25.372 -13.781  0.00  0.00    +0.264 C 
ATOM     34  C   UNL     1      39.161 -24.401 -13.351  0.00  0.00    +0.104 C 
ATOM     35  C   UNL     1      40.378 -25.004 -13.529  0.00  0.00    +0.217 C 
ENDBRANCH  30  33
ENDBRANCH  29  30
ENDBRANCH  26  29
ENDBRANCH   4  25
TORSDOF 9
ENDMDL
MODEL 2
REMARK VINA RESULT:     -11.4      2.588      4.654
REMARK  Name = 213049
REMARK  9 active torsions:
REMARK  status: ('A' for Active; 'I' for Inactive)
REMARK    1  A    between atoms: C_3  and  C_13
REMARK    2  A    between atoms: C_4  and  N_25
REMARK    3  A    between atoms: C_16  and  C_17
REMARK    4  A    between atoms: C_17  and  O_18
REMARK    5  A    between atoms: C_17  and  C_20
REMARK    6  A    between atoms: C_20  and  O_21
REMARK    7  A    between atoms: C_26  and  C_29
REMARK    8  A    between atoms: C_29  and  O_30
REMARK    9  A    between atoms: O_30  and  C_33
REMARK                            x       y       z     vdW  Elec       q    Type
REMARK                         _______ _______ _______ _____ _____    ______ ____
ROOT
ATOM      1  F   UNL     1      32.461 -19.411 -20.688  0.00  0.00    -0.204 F 
ATOM      2  F   UNL     1      37.201 -19.146 -20.405  0.00  0.00    -0.204 F 
ATOM      3  C   UNL     1      34.832 -19.251 -20.578  0.00  0.00    +0.051 C 
ATOM      4  C   UNL     1      34.800 -21.008 -18.411  0.00  0.00    +0.062 C 
ATOM      5  C   UNL     1      33.621 -19.758 -20.108  0.00  0.00    +0.143 C 
ATOM      6  C   UNL     1      36.028 -19.622 -19.964  0.00  0.00    +0.143 C 
ATOM      7  C   UNL     1      33.604 -20.636 -19.025  0.00  0.00    +0.045 C 
ATOM      8  C   UNL     1      36.013 -20.501 -18.881  0.00  0.00    +0.045 C 
ENDROOT
BRANCH   3  13
ATOM      9  O   UNL     1      33.452 -16.017 -25.841  0.00  0.00    -0.272 OA
ATOM     10  N   UNL     1      34.683 -16.532 -23.934  0.00  0.00    -0.273 N 
ATOM     11  C   UNL     1      34.175 -18.753 -23.008  0.00  0.00    +0.048 C 
ATOM     12  C   UNL     1      34.689 -17.968 -24.211  0.00  0.00    +0.098 C 
ATOM     13  C   UNL     1      34.849 -18.318 -21.729  0.00  0.00    -0.019 C 
ATOM     14  C   UNL     1      35.452 -16.096 -22.761  0.00  0.00    +0.120 C 
ATOM     15  C   UNL     1      35.428 -17.105 -21.648  0.00  0.00    -0.009 C 
ATOM     16  C   UNL     1      34.098 -15.657 -24.855  0.00  0.00    +0.255 C 
BRANCH  16  17
ATOM     17  C   UNL     1      34.283 -14.183 -24.588  0.00  0.00    +0.217 C 
BRANCH  17  18
ATOM     18  O   UNL     1      33.930 -13.534 -25.792  0.00  0.00    -0.374 OA
ATOM     19  H   UNL     1      34.673 -13.577 -26.413  0.00  0.00    +0.211 HD
ENDBRANCH  17  18
BRANCH  17  20
ATOM     20  C   UNL     1      33.362 -13.723 -23.479  0.00  0.00    +0.176 C 
BRANCH  20  21
ATOM     21  O   UNL     1      33.986 -12.683 -22.739  0.00  0.00    -0.379 OA
ATOM     22  H   UNL     1      34.287 -11.990 -23.347  0.00  0.00    +0.211 HD
ENDBRANCH  20  21
ENDBRANCH  17  20
ENDBRANCH  16  17
ENDBRANCH   3  13
BRANCH   4  25
ATOM     23  O   UNL     1      35.330 -22.991 -15.403  0.00  0.00    -0.432 OA
ATOM     24  O   UNL     1      36.724 -21.333 -16.078  0.00  0.00    -0.226 OA
ATOM     25  N   UNL     1      34.784 -21.906 -17.306  0.00  0.00    -0.221 N 
ATOM     26  C   UNL     1      34.012 -23.437 -15.752  0.00  0.00    +0.234 C 
ATOM     27  C   UNL     1      33.822 -22.967 -17.178  0.00  0.00    +0.149 C 
ATOM     28  C   UNL     1      35.707 -21.985 -16.266  0.00  0.00    +0.409 C 
BRANCH  26  29
ATOM     29  C   UNL     1      33.013 -22.824 -14.781  0.00  0.00    +0.252 C 
BRANCH  29  30
ATOM     30  O   UNL     1      31.876 -23.668 -14.706  0.00  0.00    -0.454 OA
BRANCH  30  33
ATOM     31  O   UNL     1      29.494 -21.922 -16.515  0.00  0.00    -0.347 OA
ATOM     32  N   UNL     1      30.804 -22.158 -16.116  0.00  0.00    -0.039 NA
ATOM     33  C   UNL     1      30.727 -23.193 -15.275  0.00  0.00    +0.264 C 
ATOM     34  C   UNL     1      29.407 -23.648 -15.107  0.00  0.00    +0.104 C 
ATOM     35  C   UNL     1      28.671 -22.816 -15.907  0.00  0.00    +0.217 C 
ENDBRANCH  30  33
ENDBRANCH  29  30
ENDBRANCH  26  29
ENDBRANCH   4  25
TORSDOF 9
ENDMDL
MODEL 3
REMARK VINA RESULT:     -11.1      1.471      2.209
REMARK  Name = 213049
REMARK  9 active torsions:
REMARK  status: ('A' for Active; 'I' for Inactive)
REMARK    1  A    between atoms: C_3  and  C_13
REMARK    2  A    between atoms: C_4  and  N_25
REMARK    3  A    between atoms: C_16  and  C_17
REMARK    4  A    between atoms: C_17  and  O_18
REMARK    5  A    between atoms: C_17  and  C_20
REMARK    6  A    between atoms: C_20  and  O_21
REMARK    7  A    between atoms: C_26  and  C_29
REMARK    8  A    between atoms: C_29  and  O_30
REMARK    9  A    between atoms: O_30  and  C_33
REMARK                            x       y       z     vdW  Elec       q    Type
REMARK                         _______ _______ _______ _____ _____    ______ ____
ROOT
ATOM      1  F   UNL     1      32.774 -19.568 -20.410  0.00  0.00    -0.204 F 
ATOM      2  F   UNL     1      37.504 -19.079 -20.431  0.00  0.00    -0.204 F 
ATOM      3  C   UNL     1      35.137 -19.299 -20.454  0.00  0.00    +0.051 C 
ATOM      4  C   UNL     1      35.309 -20.876 -18.159  0.00  0.00    +0.062 C 
ATOM      5  C   UNL     1      33.979 -19.818 -19.875  0.00  0.00    +0.143 C 
ATOM      6  C   UNL     1      36.381 -19.569 -19.886  0.00  0.00    +0.143 C 
ATOM      7  C   UNL     1      34.064 -20.606 -18.728  0.00  0.00    +0.045 C 
ATOM      8  C   UNL     1      36.468 -20.357 -18.738  0.00  0.00    +0.045 C 
ENDROOT
BRANCH   3  13
ATOM      9  O   UNL     1      33.211 -16.383 -25.732  0.00  0.00    -0.272 OA
ATOM     10  N   UNL     1      34.673 -16.843 -23.980  0.00  0.00    -0.273 N 
ATOM     11  C   UNL     1      34.163 -18.940 -22.800  0.00  0.00    +0.048 C 
ATOM     12  C   UNL     1      34.544 -18.292 -24.128  0.00  0.00    +0.098 C 
ATOM     13  C   UNL     1      35.045 -18.461 -21.673  0.00  0.00    -0.019 C 
ATOM     14  C   UNL     1      35.633 -16.380 -22.971  0.00  0.00    +0.120 C 
ATOM     15  C   UNL     1      35.708 -17.295 -21.781  0.00  0.00    -0.009 C 
ATOM     16  C   UNL     1      34.018 -16.000 -24.882  0.00  0.00    +0.255 C 
BRANCH  16  17
ATOM     17  C   UNL     1      34.336 -14.528 -24.773  0.00  0.00    +0.217 C 
BRANCH  17  18
ATOM     18  O   UNL     1      34.143 -14.004 -26.071  0.00  0.00    -0.374 OA
ATOM     19  H   UNL     1      33.204 -14.062 -26.308  0.00  0.00    +0.211 HD
ENDBRANCH  17  18
BRANCH  17  20
ATOM     20  C   UNL     1      33.390 -13.848 -23.809  0.00  0.00    +0.176 C 
BRANCH  20  21
ATOM     21  O   UNL     1      34.121 -12.986 -22.949  0.00  0.00    -0.379 OA
ATOM     22  H   UNL     1      34.473 -13.497 -22.203  0.00  0.00    +0.211 HD
ENDBRANCH  20  21
ENDBRANCH  17  20
ENDBRANCH  16  17
ENDBRANCH   3  13
BRANCH   4  25
ATOM     23  O   UNL     1      35.101 -23.342 -15.488  0.00  0.00    -0.432 OA
ATOM     24  O   UNL     1      33.959 -23.506 -17.442  0.00  0.00    -0.226 OA
ATOM     25  N   UNL     1      35.398 -21.682 -16.989  0.00  0.00    -0.221 N 
ATOM     26  C   UNL     1      36.180 -22.541 -14.987  0.00  0.00    +0.234 C 
ATOM     27  C   UNL     1      36.123 -21.276 -15.815  0.00  0.00    +0.149 C 
ATOM     28  C   UNL     1      34.748 -22.889 -16.741  0.00  0.00    +0.409 C 
BRANCH  26  29
ATOM     29  C   UNL     1      37.482 -23.310 -15.155  0.00  0.00    +0.252 C 
BRANCH  29  30
ATOM     30  O   UNL     1      38.269 -23.131 -13.989  0.00  0.00    -0.454 OA
BRANCH  30  33
ATOM     31  O   UNL     1      37.384 -24.546 -10.953  0.00  0.00    -0.347 OA
ATOM     32  N   UNL     1      37.550 -23.456 -11.799  0.00  0.00    -0.039 NA
ATOM     33  C   UNL     1      38.007 -23.972 -12.943  0.00  0.00    +0.264 C 
ATOM     34  C   UNL     1      38.148 -25.370 -12.880  0.00  0.00    +0.104 C 
ATOM     35  C   UNL     1      37.744 -25.680 -11.608  0.00  0.00    +0.217 C 
ENDBRANCH  30  33
ENDBRANCH  29  30
ENDBRANCH  26  29
ENDBRANCH   4  25
TORSDOF 9
ENDMDL
MODEL 4
REMARK VINA RESULT:     -11.0      2.118      2.493
REMARK  Name = 213049
REMARK  9 active torsions:
REMARK  status: ('A' for Active; 'I' for Inactive)
REMARK    1  A    between atoms: C_3  and  C_13
REMARK    2  A    between atoms: C_4  and  N_25
REMARK    3  A    between atoms: C_16  and  C_17
REMARK    4  A    between atoms: C_17  and  O_18
REMARK    5  A    between atoms: C_17  and  C_20
REMARK    6  A    between atoms: C_20  and  O_21
REMARK    7  A    between atoms: C_26  and  C_29
REMARK    8  A    between atoms: C_29  and  O_30
REMARK    9  A    between atoms: O_30  and  C_33
REMARK                            x       y       z     vdW  Elec       q    Type
REMARK                         _______ _______ _______ _____ _____    ______ ____
ROOT
ATOM      1  F   UNL     1      37.583 -19.110 -20.415  0.00  0.00    -0.204 F 
ATOM      2  F   UNL     1      32.854 -19.599 -20.295  0.00  0.00    -0.204 F 
ATOM      3  C   UNL     1      35.214 -19.330 -20.389  0.00  0.00    +0.051 C 
ATOM      4  C   UNL     1      35.447 -21.026 -18.185  0.00  0.00    +0.062 C 
ATOM      5  C   UNL     1      36.473 -19.630 -19.868  0.00  0.00    +0.143 C 
ATOM      6  C   UNL     1      34.071 -19.879 -19.807  0.00  0.00    +0.143 C 
ATOM      7  C   UNL     1      36.590 -20.477 -18.767  0.00  0.00    +0.045 C 
ATOM      8  C   UNL     1      34.187 -20.726 -18.706  0.00  0.00    +0.045 C 
ENDROOT
BRANCH   3  13
ATOM      9  O   UNL     1      33.183 -16.200 -25.501  0.00  0.00    -0.272 OA
ATOM     10  N   UNL     1      34.660 -16.701 -23.774  0.00  0.00    -0.273 N 
ATOM     11  C   UNL     1      34.229 -18.878 -22.714  0.00  0.00    +0.048 C 
ATOM     12  C   UNL     1      34.587 -18.143 -24.002  0.00  0.00    +0.098 C 
ATOM     13  C   UNL     1      35.091 -18.430 -21.559  0.00  0.00    -0.019 C 
ATOM     14  C   UNL     1      35.601 -16.258 -22.737  0.00  0.00    +0.120 C 
ATOM     15  C   UNL     1      35.710 -17.234 -21.600  0.00  0.00    -0.009 C 
ATOM     16  C   UNL     1      33.974 -15.834 -24.628  0.00  0.00    +0.255 C 
BRANCH  16  17
ATOM     17  C   UNL     1      34.235 -14.360 -24.437  0.00  0.00    +0.217 C 
BRANCH  17  18
ATOM     18  O   UNL     1      33.808 -13.742 -25.634  0.00  0.00    -0.374 OA
ATOM     19  H   UNL     1      33.622 -14.421 -26.301  0.00  0.00    +0.211 HD
ENDBRANCH  17  18
BRANCH  17  20
ATOM     20  C   UNL     1      33.427 -13.821 -23.277  0.00  0.00    +0.176 C 
BRANCH  20  21
ATOM     21  O   UNL     1      34.188 -12.848 -22.576  0.00  0.00    -0.379 OA
ATOM     22  H   UNL     1      34.288 -12.057 -23.128  0.00  0.00    +0.211 HD
ENDBRANCH  20  21
ENDBRANCH  17  20
ENDBRANCH  16  17
ENDBRANCH   3  13
BRANCH   4  25
ATOM     23  O   UNL     1      36.390 -23.021 -15.289  0.00  0.00    -0.432 OA
ATOM     24  O   UNL     1      37.818 -21.637 -16.381  0.00  0.00    -0.226 OA
ATOM     25  N   UNL     1      35.565 -21.890 -17.060  0.00  0.00    -0.221 N 
ATOM     26  C   UNL     1      34.973 -23.241 -15.277  0.00  0.00    +0.234 C 
ATOM     27  C   UNL     1      34.509 -22.769 -16.637  0.00  0.00    +0.149 C 
ATOM     28  C   UNL     1      36.695 -22.108 -16.275  0.00  0.00    +0.409 C 
BRANCH  26  29
ATOM     29  C   UNL     1      34.363 -22.451 -14.127  0.00  0.00    +0.252 C 
BRANCH  29  30
ATOM     30  O   UNL     1      34.157 -23.329 -13.033  0.00  0.00    -0.454 OA
BRANCH  30  33
ATOM     31  O   UNL     1      36.227 -24.123 -10.371  0.00  0.00    -0.347 OA
ATOM     32  N   UNL     1      35.044 -24.252 -11.089  0.00  0.00    -0.039 NA
ATOM     33  C   UNL     1      35.178 -23.423 -12.128  0.00  0.00    +0.264 C 
ATOM     34  C   UNL     1      36.413 -22.751 -12.120  0.00  0.00    +0.104 C 
ATOM     35  C   UNL     1      37.034 -23.226 -10.995  0.00  0.00    +0.217 C 
ENDBRANCH  30  33
ENDBRANCH  29  30
ENDBRANCH  26  29
ENDBRANCH   4  25
TORSDOF 9
ENDMDL
MODEL 5
REMARK VINA RESULT:     -10.8      2.924     11.202
REMARK  Name = 213049
REMARK  9 active torsions:
REMARK  status: ('A' for Active; 'I' for Inactive)
REMARK    1  A    between atoms: C_3  and  C_13
REMARK    2  A    between atoms: C_4  and  N_25
REMARK    3  A    between atoms: C_16  and  C_17
REMARK    4  A    between atoms: C_17  and  O_18
REMARK    5  A    between atoms: C_17  and  C_20
REMARK    6  A    between atoms: C_20  and  O_21
REMARK    7  A    between atoms: C_26  and  C_29
REMARK    8  A    between atoms: C_29  and  O_30
REMARK    9  A    between atoms: O_30  and  C_33
REMARK                            x       y       z     vdW  Elec       q    Type
REMARK                         _______ _______ _______ _____ _____    ______ ____
ROOT
ATOM      1  F   UNL     1      33.241 -22.652 -16.876  0.00  0.00    -0.204 F 
ATOM      2  F   UNL     1      37.717 -21.154 -16.295  0.00  0.00    -0.204 F 
ATOM      3  C   UNL     1      35.483 -21.925 -16.550  0.00  0.00    +0.051 C 
ATOM      4  C   UNL     1      35.321 -20.514 -18.952  0.00  0.00    +0.062 C 
ATOM      5  C   UNL     1      34.305 -21.953 -17.298  0.00  0.00    +0.143 C 
ATOM      6  C   UNL     1      36.579 -21.192 -17.003  0.00  0.00    +0.143 C 
ATOM      7  C   UNL     1      34.224 -21.247 -18.498  0.00  0.00    +0.045 C 
ATOM      8  C   UNL     1      36.499 -20.487 -18.204  0.00  0.00    +0.045 C 
ENDROOT
BRANCH   3  13
ATOM      9  O   UNL     1      37.485 -25.067 -11.434  0.00  0.00    -0.272 OA
ATOM     10  N   UNL     1      35.912 -24.034 -12.802  0.00  0.00    -0.273 N 
ATOM     11  C   UNL     1      36.709 -23.647 -15.096  0.00  0.00    +0.048 C 
ATOM     12  C   UNL     1      36.404 -24.681 -14.017  0.00  0.00    +0.098 C 
ATOM     13  C   UNL     1      35.568 -22.675 -15.275  0.00  0.00    -0.019 C 
ATOM     14  C   UNL     1      34.719 -23.192 -12.957  0.00  0.00    +0.120 C 
ATOM     15  C   UNL     1      34.673 -22.493 -14.286  0.00  0.00    -0.009 C 
ATOM     16  C   UNL     1      36.484 -24.360 -11.569  0.00  0.00    +0.255 C 
BRANCH  16  17
ATOM     17  C   UNL     1      35.812 -23.786 -10.346  0.00  0.00    +0.217 C 
BRANCH  17  18
ATOM     18  O   UNL     1      35.462 -24.899  -9.550  0.00  0.00    -0.374 OA
ATOM     19  H   UNL     1      36.200 -25.119  -8.959  0.00  0.00    +0.211 HD
ENDBRANCH  17  18
BRANCH  17  20
ATOM     20  C   UNL     1      36.768 -22.898  -9.580  0.00  0.00    +0.176 C 
BRANCH  20  21
ATOM     21  O   UNL     1      37.627 -22.224 -10.489  0.00  0.00    -0.379 OA
ATOM     22  H   UNL     1      37.761 -21.312 -10.191  0.00  0.00    +0.211 HD
ENDBRANCH  20  21
ENDBRANCH  17  20
ENDBRANCH  16  17
ENDBRANCH   3  13
BRANCH   4  25
ATOM     23  O   UNL     1      34.441 -18.754 -22.015  0.00  0.00    -0.432 OA
ATOM     24  O   UNL     1      32.915 -19.686 -20.620  0.00  0.00    -0.226 OA
ATOM     25  N   UNL     1      35.238 -19.793 -20.177  0.00  0.00    -0.221 N 
ATOM     26  C   UNL     1      35.840 -18.440 -21.955  0.00  0.00    +0.234 C 
ATOM     27  C   UNL     1      36.397 -19.408 -20.935  0.00  0.00    +0.149 C 
ATOM     28  C   UNL     1      34.086 -19.443 -20.877  0.00  0.00    +0.409 C 
BRANCH  26  29
ATOM     29  C   UNL     1      35.999 -16.982 -21.547  0.00  0.00    +0.252 C 
BRANCH  29  30
ATOM     30  O   UNL     1      35.500 -16.162 -22.590  0.00  0.00    -0.454 OA
BRANCH  30  33
ATOM     31  O   UNL     1      34.446 -13.337 -20.885  0.00  0.00    -0.347 OA
ATOM     32  N   UNL     1      34.953 -14.630 -20.925  0.00  0.00    -0.039 NA
ATOM     33  C   UNL     1      35.027 -14.932 -22.224  0.00  0.00    +0.264 C 
ATOM     34  C   UNL     1      34.587 -13.878 -23.043  0.00  0.00    +0.104 C 
ATOM     35  C   UNL     1      34.232 -12.899 -22.153  0.00  0.00    +0.217 C 
ENDBRANCH  30  33
ENDBRANCH  29  30
ENDBRANCH  26  29
ENDBRANCH   4  25
TORSDOF 9
ENDMDL
MODEL 6
REMARK VINA RESULT:     -10.4      2.577     10.756
REMARK  Name = 213049
REMARK  9 active torsions:
REMARK  status: ('A' for Active; 'I' for Inactive)
REMARK    1  A    between atoms: C_3  and  C_13
REMARK    2  A    between atoms: C_4  and  N_25
REMARK    3  A    between atoms: C_16  and  C_17
REMARK    4  A    between atoms: C_17  and  O_18
REMARK    5  A    between atoms: C_17  and  C_20
REMARK    6  A    between atoms: C_20  and  O_21
REMARK    7  A    between atoms: C_26  and  C_29
REMARK    8  A    between atoms: C_29  and  O_30
REMARK    9  A    between atoms: O_30  and  C_33
REMARK                            x       y       z     vdW  Elec       q    Type
REMARK                         _______ _______ _______ _____ _____    ______ ____
ROOT
ATOM      1  F   UNL     1      37.097 -20.735 -19.209  0.00  0.00    -0.204 F 
ATOM      2  F   UNL     1      32.407 -19.954 -19.097  0.00  0.00    -0.204 F 
ATOM      3  C   UNL     1      34.748 -20.369 -19.120  0.00  0.00    +0.051 C 
ATOM      4  C   UNL     1      34.986 -18.634 -21.291  0.00  0.00    +0.062 C 
ATOM      5  C   UNL     1      35.999 -20.134 -19.691  0.00  0.00    +0.143 C 
ATOM      6  C   UNL     1      33.616 -19.737 -19.634  0.00  0.00    +0.143 C 
ATOM      7  C   UNL     1      36.118 -19.267 -20.777  0.00  0.00    +0.045 C 
ATOM      8  C   UNL     1      33.735 -18.869 -20.719  0.00  0.00    +0.045 C 
ENDROOT
BRANCH   3  13
ATOM      9  O   UNL     1      35.069 -23.100 -13.419  0.00  0.00    -0.272 OA
ATOM     10  N   UNL     1      34.389 -22.900 -15.635  0.00  0.00    -0.273 N 
ATOM     11  C   UNL     1      35.719 -21.287 -16.930  0.00  0.00    +0.048 C 
ATOM     12  C   UNL     1      35.731 -22.579 -16.117  0.00  0.00    +0.098 C 
ATOM     13  C   UNL     1      34.622 -21.291 -17.966  0.00  0.00    -0.019 C 
ATOM     14  C   UNL     1      33.348 -23.034 -16.663  0.00  0.00    +0.120 C 
ATOM     15  C   UNL     1      33.557 -22.102 -17.822  0.00  0.00    -0.009 C 
ATOM     16  C   UNL     1      34.199 -23.209 -14.285  0.00  0.00    +0.255 C 
BRANCH  16  17
ATOM     17  C   UNL     1      32.825 -23.699 -13.897  0.00  0.00    +0.217 C 
BRANCH  17  18
ATOM     18  O   UNL     1      33.032 -24.598 -12.828  0.00  0.00    -0.374 OA
ATOM     19  H   UNL     1      33.836 -25.116 -12.991  0.00  0.00    +0.211 HD
ENDBRANCH  17  18
BRANCH  17  20
ATOM     20  C   UNL     1      31.963 -22.548 -13.428  0.00  0.00    +0.176 C 
BRANCH  20  21
ATOM     21  O   UNL     1      32.407 -22.107 -12.153  0.00  0.00    -0.379 OA
ATOM     22  H   UNL     1      31.787 -22.410 -11.471  0.00  0.00    +0.211 HD
ENDBRANCH  20  21
ENDBRANCH  17  20
ENDBRANCH  16  17
ENDBRANCH   3  13
BRANCH   4  25
ATOM     23  O   UNL     1      35.016 -16.877 -24.480  0.00  0.00    -0.432 OA
ATOM     24  O   UNL     1      34.224 -18.985 -24.215  0.00  0.00    -0.226 OA
ATOM     25  N   UNL     1      35.107 -17.749 -22.401  0.00  0.00    -0.221 N 
ATOM     26  C   UNL     1      35.394 -15.798 -23.612  0.00  0.00    +0.234 C 
ATOM     27  C   UNL     1      35.773 -16.478 -22.315  0.00  0.00    +0.149 C 
ATOM     28  C   UNL     1      34.722 -17.986 -23.718  0.00  0.00    +0.409 C 
BRANCH  26  29
ATOM     29  C   UNL     1      34.214 -14.848 -23.469  0.00  0.00    +0.252 C 
BRANCH  29  30
ATOM     30  O   UNL     1      34.597 -13.772 -22.628  0.00  0.00    -0.454 OA
BRANCH  30  33
ATOM     31  O   UNL     1      31.980 -12.235 -20.959  0.00  0.00    -0.347 OA
ATOM     32  N   UNL     1      32.763 -12.445 -22.087  0.00  0.00    -0.039 NA
ATOM     33  C   UNL     1      33.669 -13.353 -21.715  0.00  0.00    +0.264 C 
ATOM     34  C   UNL     1      33.508 -13.751 -20.376  0.00  0.00    +0.104 C 
ATOM     35  C   UNL     1      32.433 -13.018 -19.946  0.00  0.00    +0.217 C 
ENDBRANCH  30  33
ENDBRANCH  29  30
ENDBRANCH  26  29
ENDBRANCH   4  25
TORSDOF 9
ENDMDL
MODEL 7
REMARK VINA RESULT:     -10.3      4.258      6.932
REMARK  Name = 213049
REMARK  9 active torsions:
REMARK  status: ('A' for Active; 'I' for Inactive)
REMARK    1  A    between atoms: C_3  and  C_13
REMARK    2  A    between atoms: C_4  and  N_25
REMARK    3  A    between atoms: C_16  and  C_17
REMARK    4  A    between atoms: C_17  and  O_18
REMARK    5  A    between atoms: C_17  and  C_20
REMARK    6  A    between atoms: C_20  and  O_21
REMARK    7  A    between atoms: C_26  and  C_29
REMARK    8  A    between atoms: C_29  and  O_30
REMARK    9  A    between atoms: O_30  and  C_33
REMARK                            x       y       z     vdW  Elec       q    Type
REMARK                         _______ _______ _______ _____ _____    ______ ____
ROOT
ATOM      1  F   UNL     1      34.729 -13.875 -19.544  0.00  0.00    -0.204 F 
ATOM      2  F   UNL     1      34.403 -15.196 -24.101  0.00  0.00    -0.204 F 
ATOM      3  C   UNL     1      34.554 -14.497 -21.834  0.00  0.00    +0.051 C 
ATOM      4  C   UNL     1      35.433 -17.056 -21.154  0.00  0.00    +0.062 C 
ATOM      5  C   UNL     1      34.857 -14.802 -20.506  0.00  0.00    +0.143 C 
ATOM      6  C   UNL     1      34.691 -15.472 -22.821  0.00  0.00    +0.143 C 
ATOM      7  C   UNL     1      35.296 -16.081 -20.166  0.00  0.00    +0.045 C 
ATOM      8  C   UNL     1      35.131 -16.752 -22.482  0.00  0.00    +0.045 C 
ENDROOT
BRANCH   3  13
ATOM      9  O   UNL     1      32.621  -8.471 -21.719  0.00  0.00    -0.272 OA
ATOM     10  N   UNL     1      33.282 -10.464 -22.723  0.00  0.00    -0.273 N 
ATOM     11  C   UNL     1      33.222 -12.397 -21.204  0.00  0.00    +0.048 C 
ATOM     12  C   UNL     1      32.420 -11.287 -21.877  0.00  0.00    +0.098 C 
ATOM     13  C   UNL     1      34.087 -13.138 -22.194  0.00  0.00    -0.019 C 
ATOM     14  C   UNL     1      34.023 -11.173 -23.775  0.00  0.00    +0.120 C 
ATOM     15  C   UNL     1      34.430 -12.559 -23.360  0.00  0.00    -0.009 C 
ATOM     16  C   UNL     1      33.241  -9.072 -22.599  0.00  0.00    +0.255 C 
BRANCH  16  17
ATOM     17  C   UNL     1      34.026  -8.286 -23.621  0.00  0.00    +0.217 C 
BRANCH  17  18
ATOM     18  O   UNL     1      33.227  -7.161 -23.926  0.00  0.00    -0.374 OA
ATOM     19  H   UNL     1      33.067  -7.127 -24.882  0.00  0.00    +0.211 HD
ENDBRANCH  17  18
BRANCH  17  20
ATOM     20  C   UNL     1      35.344  -7.824 -23.040  0.00  0.00    +0.176 C 
BRANCH  20  21
ATOM     21  O   UNL     1      36.365  -8.756 -23.370  0.00  0.00    -0.379 OA
ATOM     22  H   UNL     1      36.298  -9.529 -22.788  0.00  0.00    +0.211 HD
ENDBRANCH  20  21
ENDBRANCH  17  20
ENDBRANCH  16  17
ENDBRANCH   3  13
BRANCH   4  25
ATOM     23  O   UNL     1      37.196 -20.131 -20.317  0.00  0.00    -0.432 OA
ATOM     24  O   UNL     1      38.240 -18.173 -20.792  0.00  0.00    -0.226 OA
ATOM     25  N   UNL     1      35.881 -18.363 -20.807  0.00  0.00    -0.221 N 
ATOM     26  C   UNL     1      35.853 -20.540 -20.021  0.00  0.00    +0.234 C 
ATOM     27  C   UNL     1      34.988 -19.482 -20.671  0.00  0.00    +0.149 C 
ATOM     28  C   UNL     1      37.196 -18.794 -20.651  0.00  0.00    +0.409 C 
BRANCH  26  29
ATOM     29  C   UNL     1      35.683 -20.609 -18.511  0.00  0.00    +0.252 C 
BRANCH  29  30
ATOM     30  O   UNL     1      35.280 -21.922 -18.159  0.00  0.00    -0.454 OA
BRANCH  30  33
ATOM     31  O   UNL     1      31.915 -21.817 -17.339  0.00  0.00    -0.347 OA
ATOM     32  N   UNL     1      32.985 -21.534 -18.181  0.00  0.00    -0.039 NA
ATOM     33  C   UNL     1      34.054 -22.044 -17.564  0.00  0.00    +0.264 C 
ATOM     34  C   UNL     1      33.725 -22.655 -16.342  0.00  0.00    +0.104 C 
ATOM     35  C   UNL     1      32.369 -22.485 -16.247  0.00  0.00    +0.217 C 
ENDBRANCH  30  33
ENDBRANCH  29  30
ENDBRANCH  26  29
ENDBRANCH   4  25
TORSDOF 9
ENDMDL
MODEL 8
REMARK VINA RESULT:      -9.9      4.297     12.234
REMARK  Name = 213049
REMARK  9 active torsions:
REMARK  status: ('A' for Active; 'I' for Inactive)
REMARK    1  A    between atoms: C_3  and  C_13
REMARK    2  A    between atoms: C_4  and  N_25
REMARK    3  A    between atoms: C_16  and  C_17
REMARK    4  A    between atoms: C_17  and  O_18
REMARK    5  A    between atoms: C_17  and  C_20
REMARK    6  A    between atoms: C_20  and  O_21
REMARK    7  A    between atoms: C_26  and  C_29
REMARK    8  A    between atoms: C_29  and  O_30
REMARK    9  A    between atoms: O_30  and  C_33
REMARK                            x       y       z     vdW  Elec       q    Type
REMARK                         _______ _______ _______ _____ _____    ______ ____
ROOT
ATOM      1  F   UNL     1      34.918 -15.205 -19.387  0.00  0.00    -0.204 F 
ATOM      2  F   UNL     1      35.128 -17.242 -23.679  0.00  0.00    -0.204 F 
ATOM      3  C   UNL     1      35.028 -16.261 -21.516  0.00  0.00    +0.051 C 
ATOM      4  C   UNL     1      34.615 -13.776 -22.714  0.00  0.00    +0.062 C 
ATOM      5  C   UNL     1      34.871 -15.122 -20.726  0.00  0.00    +0.143 C 
ATOM      6  C   UNL     1      34.978 -16.157 -22.906  0.00  0.00    +0.143 C 
ATOM      7  C   UNL     1      34.665 -13.879 -21.324  0.00  0.00    +0.045 C 
ATOM      8  C   UNL     1      34.771 -14.915 -23.505  0.00  0.00    +0.045 C 
ENDROOT
BRANCH   3  13
ATOM      9  O   UNL     1      37.082 -21.034 -17.902  0.00  0.00    -0.272 OA
ATOM     10  N   UNL     1      35.721 -20.016 -19.492  0.00  0.00    -0.273 N 
ATOM     11  C   UNL     1      36.622 -17.891 -20.340  0.00  0.00    +0.048 C 
ATOM     12  C   UNL     1      36.844 -19.393 -20.192  0.00  0.00    +0.098 C 
ATOM     13  C   UNL     1      35.247 -17.580 -20.879  0.00  0.00    -0.019 C 
ATOM     14  C   UNL     1      34.396 -19.822 -20.095  0.00  0.00    +0.120 C 
ATOM     15  C   UNL     1      34.254 -18.482 -20.759  0.00  0.00    -0.009 C 
ATOM     16  C   UNL     1      35.971 -20.867 -18.412  0.00  0.00    +0.255 C 
BRANCH  16  17
ATOM     17  C   UNL     1      34.781 -21.606 -17.852  0.00  0.00    +0.217 C 
BRANCH  17  18
ATOM     18  O   UNL     1      34.576 -22.703 -18.720  0.00  0.00    -0.374 OA
ATOM     19  H   UNL     1      34.841 -23.523 -18.274  0.00  0.00    +0.211 HD
ENDBRANCH  17  18
BRANCH  17  20
ATOM     20  C   UNL     1      35.076 -22.115 -16.459  0.00  0.00    +0.176 C 
BRANCH  20  21
ATOM     21  O   UNL     1      34.326 -23.296 -16.211  0.00  0.00    -0.379 OA
ATOM     22  H   UNL     1      34.180 -23.392 -15.257  0.00  0.00    +0.211 HD
ENDBRANCH  20  21
ENDBRANCH  17  20
ENDBRANCH  16  17
ENDBRANCH   3  13
BRANCH   4  25
ATOM     23  O   UNL     1      33.836 -10.892 -24.797  0.00  0.00    -0.432 OA
ATOM     24  O   UNL     1      33.465 -13.038 -25.432  0.00  0.00    -0.226 OA
ATOM     25  N   UNL     1      34.405 -12.507 -23.326  0.00  0.00    -0.221 N 
ATOM     26  C   UNL     1      34.160 -10.219 -23.572  0.00  0.00    +0.234 C 
ATOM     27  C   UNL     1      34.852 -11.274 -22.737  0.00  0.00    +0.149 C 
ATOM     28  C   UNL     1      33.859 -12.253 -24.582  0.00  0.00    +0.409 C 
BRANCH  26  29
ATOM     29  C   UNL     1      32.875  -9.702 -22.942  0.00  0.00    +0.252 C 
BRANCH  29  30
ATOM     30  O   UNL     1      33.041  -8.328 -22.633  0.00  0.00    -0.454 OA
BRANCH  30  33
ATOM     31  O   UNL     1      32.244  -8.178 -19.265  0.00  0.00    -0.347 OA
ATOM     32  N   UNL     1      32.234  -8.810 -20.503  0.00  0.00    -0.039 NA
ATOM     33  C   UNL     1      32.883  -7.977 -21.321  0.00  0.00    +0.264 C 
ATOM     34  C   UNL     1      33.323  -6.815 -20.661  0.00  0.00    +0.104 C 
ATOM     35  C   UNL     1      32.895  -6.991 -19.372  0.00  0.00    +0.217 C 
ENDBRANCH  30  33
ENDBRANCH  29  30
ENDBRANCH  26  29
ENDBRANCH   4  25
TORSDOF 9
ENDMDL
MODEL 9
REMARK VINA RESULT:      -9.9      4.314     12.247
REMARK  Name = 213049
REMARK  9 active torsions:
REMARK  status: ('A' for Active; 'I' for Inactive)
REMARK    1  A    between atoms: C_3  and  C_13
REMARK    2  A    between atoms: C_4  and  N_25
REMARK    3  A    between atoms: C_16  and  C_17
REMARK    4  A    between atoms: C_17  and  O_18
REMARK    5  A    between atoms: C_17  and  C_20
REMARK    6  A    between atoms: C_20  and  O_21
REMARK    7  A    between atoms: C_26  and  C_29
REMARK    8  A    between atoms: C_29  and  O_30
REMARK    9  A    between atoms: O_30  and  C_33
REMARK                            x       y       z     vdW  Elec       q    Type
REMARK                         _______ _______ _______ _____ _____    ______ ____
ROOT
ATOM      1  F   UNL     1      35.144 -17.216 -23.700  0.00  0.00    -0.204 F 
ATOM      2  F   UNL     1      34.919 -15.219 -19.389  0.00  0.00    -0.204 F 
ATOM      3  C   UNL     1      35.039 -16.254 -21.526  0.00  0.00    +0.051 C 
ATOM      4  C   UNL     1      34.629 -13.759 -22.705  0.00  0.00    +0.062 C 
ATOM      5  C   UNL     1      34.994 -16.137 -22.916  0.00  0.00    +0.143 C 
ATOM      6  C   UNL     1      34.880 -15.123 -20.726  0.00  0.00    +0.143 C 
ATOM      7  C   UNL     1      34.789 -14.890 -23.505  0.00  0.00    +0.045 C 
ATOM      8  C   UNL     1      34.675 -13.875 -21.314  0.00  0.00    +0.045 C 
ENDROOT
BRANCH   3  13
ATOM      9  O   UNL     1      37.092 -21.063 -17.959  0.00  0.00    -0.272 OA
ATOM     10  N   UNL     1      35.729 -20.028 -19.536  0.00  0.00    -0.273 N 
ATOM     11  C   UNL     1      36.633 -17.898 -20.370  0.00  0.00    +0.048 C 
ATOM     12  C   UNL     1      36.851 -19.402 -20.235  0.00  0.00    +0.098 C 
ATOM     13  C   UNL     1      35.257 -17.580 -20.901  0.00  0.00    -0.019 C 
ATOM     14  C   UNL     1      34.402 -19.825 -20.132  0.00  0.00    +0.120 C 
ATOM     15  C   UNL     1      34.262 -18.480 -20.785  0.00  0.00    -0.009 C 
ATOM     16  C   UNL     1      35.981 -20.888 -18.463  0.00  0.00    +0.255 C 
BRANCH  16  17
ATOM     17  C   UNL     1      34.790 -21.629 -17.906  0.00  0.00    +0.217 C 
BRANCH  17  18
ATOM     18  O   UNL     1      34.574 -22.713 -18.785  0.00  0.00    -0.374 OA
ATOM     19  H   UNL     1      35.111 -22.595 -19.584  0.00  0.00    +0.211 HD
ENDBRANCH  17  18
BRANCH  17  20
ATOM     20  C   UNL     1      35.092 -22.156 -16.520  0.00  0.00    +0.176 C 
BRANCH  20  21
ATOM     21  O   UNL     1      34.213 -23.231 -16.216  0.00  0.00    -0.379 OA
ATOM     22  H   UNL     1      33.391 -23.129 -16.720  0.00  0.00    +0.211 HD
ENDBRANCH  20  21
ENDBRANCH  17  20
ENDBRANCH  16  17
ENDBRANCH   3  13
BRANCH   4  25
ATOM     23  O   UNL     1      33.867 -10.859 -24.771  0.00  0.00    -0.432 OA
ATOM     24  O   UNL     1      33.541 -13.001 -25.442  0.00  0.00    -0.226 OA
ATOM     25  N   UNL     1      34.419 -12.485 -23.306  0.00  0.00    -0.221 N 
ATOM     26  C   UNL     1      34.149 -10.197 -23.529  0.00  0.00    +0.234 C 
ATOM     27  C   UNL     1      34.833 -11.254 -22.689  0.00  0.00    +0.149 C 
ATOM     28  C   UNL     1      33.903 -12.222 -24.572  0.00  0.00    +0.409 C 
BRANCH  26  29
ATOM     29  C   UNL     1      32.841  -9.706 -22.926  0.00  0.00    +0.252 C 
BRANCH  29  30
ATOM     30  O   UNL     1      32.958  -8.319 -22.657  0.00  0.00    -0.454 OA
BRANCH  30  33
ATOM     31  O   UNL     1      32.327  -8.129 -19.256  0.00  0.00    -0.347 OA
ATOM     32  N   UNL     1      32.295  -8.793 -20.476  0.00  0.00    -0.039 NA
ATOM     33  C   UNL     1      32.845  -7.942 -21.347  0.00  0.00    +0.264 C 
ATOM     34  C   UNL     1      33.240  -6.737 -20.740  0.00  0.00    +0.104 C 
ATOM     35  C   UNL     1      32.892  -6.905 -19.426  0.00  0.00    +0.217 C 
ENDBRANCH  30  33
ENDBRANCH  29  30
ENDBRANCH  26  29
ENDBRANCH   4  25
TORSDOF 9
ENDMDL
