MODEL 1
REMARK VINA RESULT:     -11.7      0.000      0.000
REMARK  Name = 71183216
REMARK  5 active torsions:
REMARK  status: ('A' for Active; 'I' for Inactive)
REMARK    1  A    between atoms: N_3  and  C_24
REMARK    2  A    between atoms: C_10  and  C_13
REMARK    3  A    between atoms: C_18  and  O_19
REMARK    4  A    between atoms: O_19  and  C_23
REMARK    5  A    between atoms: C_24  and  C_27
REMARK                            x       y       z     vdW  Elec       q    Type
REMARK                         _______ _______ _______ _____ _____    ______ ____
ROOT
ATOM      1  O   UNL     1      35.040 -15.543 -25.047  0.00  0.00    -0.473 OA
ATOM      2  O   UNL     1      35.767 -14.057 -21.478  0.00  0.00    -0.270 OA
ATOM      3  N   UNL     1      34.162 -13.635 -23.120  0.00  0.00    -0.259 N 
ATOM      4  C   UNL     1      33.181 -14.197 -24.045  0.00  0.00    +0.142 C 
ATOM      5  C   UNL     1      34.972 -15.903 -22.655  0.00  0.00    +0.087 C 
ATOM      6  C   UNL     1      33.856 -14.772 -25.285  0.00  0.00    +0.227 C 
ATOM      7  C   UNL     1      35.006 -14.450 -22.359  0.00  0.00    +0.253 C 
ATOM      8  C   UNL     1      34.954 -16.383 -23.971  0.00  0.00    +0.143 C 
ATOM      9  C   UNL     1      34.993 -16.804 -21.586  0.00  0.00    +0.008 C 
ATOM     10  C   UNL     1      34.988 -18.176 -21.837  0.00  0.00    +0.000 C 
ATOM     11  C   UNL     1      34.971 -17.755 -24.218  0.00  0.00    +0.037 C 
ATOM     12  C   UNL     1      34.976 -18.651 -23.149  0.00  0.00    +0.003 C 
ENDROOT
BRANCH  10  13
ATOM     13  C   UNL     1      35.000 -19.112 -20.733  0.00  0.00    +0.000 C 
ATOM     14  C   UNL     1      33.801 -19.629 -20.242  0.00  0.00    +0.003 C 
ATOM     15  C   UNL     1      36.212 -19.494 -20.157  0.00  0.00    +0.003 C 
ATOM     16  C   UNL     1      33.814 -20.529 -19.177  0.00  0.00    +0.037 C 
ATOM     17  C   UNL     1      36.224 -20.394 -19.091  0.00  0.00    +0.037 C 
ATOM     18  C   UNL     1      35.025 -20.911 -18.601  0.00  0.00    +0.147 C 
BRANCH  18  19
ATOM     19  O   UNL     1      35.037 -21.789 -17.560  0.00  0.00    -0.404 OA
BRANCH  19  23
ATOM     20  F   UNL     1      32.773 -21.715 -17.243  0.00  0.00    -0.133 F 
ATOM     21  F   UNL     1      33.975 -23.119 -16.078  0.00  0.00    -0.133 F 
ATOM     22  F   UNL     1      33.659 -23.496 -18.208  0.00  0.00    -0.133 F 
ATOM     23  C   UNL     1      33.851 -22.527 -17.287  0.00  0.00    +0.575 C 
ENDBRANCH  19  23
ENDBRANCH  18  19
ENDBRANCH  10  13
BRANCH   3  24
ATOM     24  C   UNL     1      34.207 -12.188 -22.988  0.00  0.00    +0.194 C 
BRANCH  24  27
ATOM     25  N   UNL     1      32.763 -10.411 -22.192  0.00  0.00    -0.217 NA
ATOM     26  N   UNL     1      32.771 -12.543 -21.067  0.00  0.00    -0.195 NA
ATOM     27  C   UNL     1      33.179 -11.680 -22.018  0.00  0.00    +0.028 C 
ATOM     28  C   UNL     1      31.840  -9.987 -21.303  0.00  0.00    +0.164 C 
ATOM     29  C   UNL     1      31.848 -12.054 -20.213  0.00  0.00    +0.107 C 
ATOM     30  C   UNL     1      31.341 -10.772 -20.284  0.00  0.00    +0.022 C 
ENDBRANCH  24  27
ENDBRANCH   3  24
TORSDOF 5
ENDMDL
MODEL 2
REMARK VINA RESULT:     -11.5      6.275     10.959
REMARK  Name = 71183216
REMARK  5 active torsions:
REMARK  status: ('A' for Active; 'I' for Inactive)
REMARK    1  A    between atoms: N_3  and  C_24
REMARK    2  A    between atoms: C_10  and  C_13
REMARK    3  A    between atoms: C_18  and  O_19
REMARK    4  A    between atoms: O_19  and  C_23
REMARK    5  A    between atoms: C_24  and  C_27
REMARK                            x       y       z     vdW  Elec       q    Type
REMARK                         _______ _______ _______ _____ _____    ______ ____
ROOT
ATOM      1  O   UNL     1      34.210 -23.377 -14.907  0.00  0.00    -0.473 OA
ATOM      2  O   UNL     1      37.598 -21.380 -14.868  0.00  0.00    -0.270 OA
ATOM      3  N   UNL     1      37.042 -23.643 -14.729  0.00  0.00    -0.259 N 
ATOM      4  C   UNL     1      36.269 -24.749 -15.288  0.00  0.00    +0.142 C 
ATOM      5  C   UNL     1      35.816 -22.097 -16.184  0.00  0.00    +0.087 C 
ATOM      6  C   UNL     1      34.809 -24.678 -14.857  0.00  0.00    +0.227 C 
ATOM      7  C   UNL     1      36.902 -22.335 -15.202  0.00  0.00    +0.253 C 
ATOM      8  C   UNL     1      34.540 -22.651 -16.016  0.00  0.00    +0.143 C 
ATOM      9  C   UNL     1      36.076 -21.269 -17.281  0.00  0.00    +0.008 C 
ATOM     10  C   UNL     1      35.066 -21.007 -18.207  0.00  0.00    +0.000 C 
ATOM     11  C   UNL     1      33.527 -22.368 -16.932  0.00  0.00    +0.037 C 
ATOM     12  C   UNL     1      33.794 -21.556 -18.033  0.00  0.00    +0.003 C 
ENDROOT
BRANCH  10  13
ATOM     13  C   UNL     1      35.334 -20.159 -19.348  0.00  0.00    +0.000 C 
ATOM     14  C   UNL     1      36.618 -19.654 -19.556  0.00  0.00    +0.003 C 
ATOM     15  C   UNL     1      34.308 -19.843 -20.238  0.00  0.00    +0.003 C 
ATOM     16  C   UNL     1      36.876 -18.835 -20.656  0.00  0.00    +0.037 C 
ATOM     17  C   UNL     1      34.566 -19.024 -21.338  0.00  0.00    +0.037 C 
ATOM     18  C   UNL     1      35.850 -18.520 -21.546  0.00  0.00    +0.147 C 
BRANCH  18  19
ATOM     19  O   UNL     1      36.101 -17.719 -22.618  0.00  0.00    -0.404 OA
BRANCH  19  23
ATOM     20  F   UNL     1      34.231 -16.815 -23.575  0.00  0.00    -0.133 F 
ATOM     21  F   UNL     1      36.042 -15.604 -23.404  0.00  0.00    -0.133 F 
ATOM     22  F   UNL     1      34.892 -16.064 -21.604  0.00  0.00    -0.133 F 
ATOM     23  C   UNL     1      35.301 -16.555 -22.793  0.00  0.00    +0.575 C 
ENDBRANCH  19  23
ENDBRANCH  18  19
ENDBRANCH  10  13
BRANCH   3  24
ATOM     24  C   UNL     1      37.998 -23.956 -13.679  0.00  0.00    +0.194 C 
BRANCH  24  27
ATOM     25  N   UNL     1      37.921 -22.523 -11.725  0.00  0.00    -0.217 NA
ATOM     26  N   UNL     1      36.556 -24.508 -11.810  0.00  0.00    -0.195 NA
ATOM     27  C   UNL     1      37.456 -23.641 -12.314  0.00  0.00    +0.028 C 
ATOM     28  C   UNL     1      37.414 -22.272 -10.500  0.00  0.00    +0.164 C 
ATOM     29  C   UNL     1      36.090 -24.195 -10.583  0.00  0.00    +0.107 C 
ATOM     30  C   UNL     1      36.487 -23.079  -9.873  0.00  0.00    +0.022 C 
ENDBRANCH  24  27
ENDBRANCH   3  24
TORSDOF 5
ENDMDL
MODEL 3
REMARK VINA RESULT:     -11.4      6.344     11.329
REMARK  Name = 71183216
REMARK  5 active torsions:
REMARK  status: ('A' for Active; 'I' for Inactive)
REMARK    1  A    between atoms: N_3  and  C_24
REMARK    2  A    between atoms: C_10  and  C_13
REMARK    3  A    between atoms: C_18  and  O_19
REMARK    4  A    between atoms: O_19  and  C_23
REMARK    5  A    between atoms: C_24  and  C_27
REMARK                            x       y       z     vdW  Elec       q    Type
REMARK                         _______ _______ _______ _____ _____    ______ ____
ROOT
ATOM      1  O   UNL     1      33.477 -23.493 -14.193  0.00  0.00    -0.473 OA
ATOM      2  O   UNL     1      36.833 -21.452 -14.394  0.00  0.00    -0.270 OA
ATOM      3  N   UNL     1      36.316 -23.701 -14.046  0.00  0.00    -0.259 N 
ATOM      4  C   UNL     1      35.552 -24.864 -14.490  0.00  0.00    +0.142 C 
ATOM      5  C   UNL     1      35.040 -22.308 -15.609  0.00  0.00    +0.087 C 
ATOM      6  C   UNL     1      34.098 -24.776 -14.040  0.00  0.00    +0.227 C 
ATOM      7  C   UNL     1      36.146 -22.443 -14.630  0.00  0.00    +0.253 C 
ATOM      8  C   UNL     1      33.776 -22.863 -15.368  0.00  0.00    +0.143 C 
ATOM      9  C   UNL     1      35.267 -21.576 -16.779  0.00  0.00    +0.008 C 
ATOM     10  C   UNL     1      34.237 -21.412 -17.704  0.00  0.00    +0.000 C 
ATOM     11  C   UNL     1      32.742 -22.678 -16.285  0.00  0.00    +0.037 C 
ATOM     12  C   UNL     1      32.977 -21.962 -17.459  0.00  0.00    +0.003 C 
ENDROOT
BRANCH  10  13
ATOM     13  C   UNL     1      34.471 -20.665 -18.921  0.00  0.00    +0.000 C 
ATOM     14  C   UNL     1      33.395 -20.142 -19.638  0.00  0.00    +0.003 C 
ATOM     15  C   UNL     1      35.775 -20.470 -19.378  0.00  0.00    +0.003 C 
ATOM     16  C   UNL     1      33.622 -19.422 -20.811  0.00  0.00    +0.037 C 
ATOM     17  C   UNL     1      36.002 -19.750 -20.552  0.00  0.00    +0.037 C 
ATOM     18  C   UNL     1      34.925 -19.227 -21.269  0.00  0.00    +0.147 C 
BRANCH  18  19
ATOM     19  O   UNL     1      35.146 -18.527 -22.414  0.00  0.00    -0.404 OA
BRANCH  19  23
ATOM     20  F   UNL     1      37.127 -17.419 -22.124  0.00  0.00    -0.133 F 
ATOM     21  F   UNL     1      35.299 -16.596 -21.255  0.00  0.00    -0.133 F 
ATOM     22  F   UNL     1      35.579 -16.519 -23.421  0.00  0.00    -0.133 F 
ATOM     23  C   UNL     1      35.799 -17.265 -22.318  0.00  0.00    +0.575 C 
ENDBRANCH  19  23
ENDBRANCH  18  19
ENDBRANCH  10  13
BRANCH   3  24
ATOM     24  C   UNL     1      37.295 -23.906 -12.990  0.00  0.00    +0.194 C 
BRANCH  24  27
ATOM     25  N   UNL     1      38.828 -25.768 -13.226  0.00  0.00    -0.217 NA
ATOM     26  N   UNL     1      39.359 -23.644 -14.233  0.00  0.00    -0.195 NA
ATOM     27  C   UNL     1      38.579 -24.477 -13.518  0.00  0.00    +0.028 C 
ATOM     28  C   UNL     1      39.991 -26.249 -13.715  0.00  0.00    +0.164 C 
ATOM     29  C   UNL     1      40.505 -24.190 -14.692  0.00  0.00    +0.107 C 
ATOM     30  C   UNL     1      40.876 -25.499 -14.462  0.00  0.00    +0.022 C 
ENDBRANCH  24  27
ENDBRANCH   3  24
TORSDOF 5
ENDMDL
MODEL 4
REMARK VINA RESULT:     -11.2      4.195      6.781
REMARK  Name = 71183216
REMARK  5 active torsions:
REMARK  status: ('A' for Active; 'I' for Inactive)
REMARK    1  A    between atoms: N_3  and  C_24
REMARK    2  A    between atoms: C_10  and  C_13
REMARK    3  A    between atoms: C_18  and  O_19
REMARK    4  A    between atoms: O_19  and  C_23
REMARK    5  A    between atoms: C_24  and  C_27
REMARK                            x       y       z     vdW  Elec       q    Type
REMARK                         _______ _______ _______ _____ _____    ______ ____
ROOT
ATOM      1  O   UNL     1      33.372 -20.416 -20.302  0.00  0.00    -0.473 OA
ATOM      2  O   UNL     1      37.295 -20.583 -20.076  0.00  0.00    -0.270 OA
ATOM      3  N   UNL     1      35.756 -18.856 -20.391  0.00  0.00    -0.259 N 
ATOM      4  C   UNL     1      34.521 -18.221 -19.940  0.00  0.00    +0.142 C 
ATOM      5  C   UNL     1      35.303 -20.733 -18.880  0.00  0.00    +0.087 C 
ATOM      6  C   UNL     1      33.295 -18.990 -20.419  0.00  0.00    +0.227 C 
ATOM      7  C   UNL     1      36.212 -20.054 -19.835  0.00  0.00    +0.253 C 
ATOM      8  C   UNL     1      33.930 -20.853 -19.133  0.00  0.00    +0.143 C 
ATOM      9  C   UNL     1      35.848 -21.293 -17.719  0.00  0.00    +0.008 C 
ATOM     10  C   UNL     1      35.019 -21.959 -16.817  0.00  0.00    +0.000 C 
ATOM     11  C   UNL     1      33.109 -21.539 -18.239  0.00  0.00    +0.037 C 
ATOM     12  C   UNL     1      33.652 -22.081 -17.075  0.00  0.00    +0.003 C 
ENDROOT
BRANCH  10  13
ATOM     13  C   UNL     1      35.577 -22.531 -15.610  0.00  0.00    +0.000 C 
ATOM     14  C   UNL     1      36.931 -22.362 -15.320  0.00  0.00    +0.003 C 
ATOM     15  C   UNL     1      34.762 -23.254 -14.739  0.00  0.00    +0.003 C 
ATOM     16  C   UNL     1      37.470 -22.915 -14.158  0.00  0.00    +0.037 C 
ATOM     17  C   UNL     1      35.300 -23.806 -13.577  0.00  0.00    +0.037 C 
ATOM     18  C   UNL     1      36.654 -23.638 -13.287  0.00  0.00    +0.147 C 
BRANCH  18  19
ATOM     19  O   UNL     1      37.180 -24.178 -12.154  0.00  0.00    -0.404 OA
BRANCH  19  23
ATOM     20  F   UNL     1      37.472 -26.140 -13.292  0.00  0.00    -0.133 F 
ATOM     21  F   UNL     1      37.765 -26.102 -11.127  0.00  0.00    -0.133 F 
ATOM     22  F   UNL     1      39.239 -25.138 -12.421  0.00  0.00    -0.133 F 
ATOM     23  C   UNL     1      37.922 -25.388 -12.265  0.00  0.00    +0.575 C 
ENDBRANCH  19  23
ENDBRANCH  18  19
ENDBRANCH  10  13
BRANCH   3  24
ATOM     24  C   UNL     1      36.521 -18.176 -21.424  0.00  0.00    +0.194 C 
BRANCH  24  27
ATOM     25  N   UNL     1      35.560 -16.406 -22.773  0.00  0.00    -0.217 NA
ATOM     26  N   UNL     1      35.050 -18.708 -23.276  0.00  0.00    -0.195 NA
ATOM     27  C   UNL     1      35.653 -17.734 -22.567  0.00  0.00    +0.028 C 
ATOM     28  C   UNL     1      34.772 -16.045 -23.807  0.00  0.00    +0.164 C 
ATOM     29  C   UNL     1      34.279 -18.275 -24.295  0.00  0.00    +0.107 C 
ATOM     30  C   UNL     1      34.100 -16.943 -24.610  0.00  0.00    +0.022 C 
ENDBRANCH  24  27
ENDBRANCH   3  24
TORSDOF 5
ENDMDL
MODEL 5
REMARK VINA RESULT:     -11.0      5.629      9.942
REMARK  Name = 71183216
REMARK  5 active torsions:
REMARK  status: ('A' for Active; 'I' for Inactive)
REMARK    1  A    between atoms: N_3  and  C_24
REMARK    2  A    between atoms: C_10  and  C_13
REMARK    3  A    between atoms: C_18  and  O_19
REMARK    4  A    between atoms: O_19  and  C_23
REMARK    5  A    between atoms: C_24  and  C_27
REMARK                            x       y       z     vdW  Elec       q    Type
REMARK                         _______ _______ _______ _____ _____    ______ ____
ROOT
ATOM      1  O   UNL     1      36.074 -23.216 -15.047  0.00  0.00    -0.473 OA
ATOM      2  O   UNL     1      32.884 -23.585 -17.318  0.00  0.00    -0.270 OA
ATOM      3  N   UNL     1      33.226 -23.099 -15.060  0.00  0.00    -0.259 N 
ATOM      4  C   UNL     1      33.954 -22.301 -14.078  0.00  0.00    +0.142 C 
ATOM      5  C   UNL     1      34.724 -22.252 -16.807  0.00  0.00    +0.087 C 
ATOM      6  C   UNL     1      35.363 -22.840 -13.860  0.00  0.00    +0.227 C 
ATOM      7  C   UNL     1      33.526 -23.039 -16.424  0.00  0.00    +0.253 C 
ATOM      8  C   UNL     1      35.923 -22.345 -16.089  0.00  0.00    +0.143 C 
ATOM      9  C   UNL     1      34.651 -21.428 -17.935  0.00  0.00    +0.008 C 
ATOM     10  C   UNL     1      35.770 -20.696 -18.332  0.00  0.00    +0.000 C 
ATOM     11  C   UNL     1      37.046 -21.629 -16.503  0.00  0.00    +0.037 C 
ATOM     12  C   UNL     1      36.965 -20.796 -17.618  0.00  0.00    +0.003 C 
ENDROOT
BRANCH  10  13
ATOM     13  C   UNL     1      35.694 -19.835 -19.493  0.00  0.00    +0.000 C 
ATOM     14  C   UNL     1      34.509 -19.752 -20.224  0.00  0.00    +0.003 C 
ATOM     15  C   UNL     1      36.808 -19.091 -19.882  0.00  0.00    +0.003 C 
ATOM     16  C   UNL     1      34.438 -18.922 -21.344  0.00  0.00    +0.037 C 
ATOM     17  C   UNL     1      36.736 -18.262 -21.001  0.00  0.00    +0.037 C 
ATOM     18  C   UNL     1      35.552 -18.178 -21.733  0.00  0.00    +0.147 C 
BRANCH  18  19
ATOM     19  O   UNL     1      35.482 -17.370 -22.826  0.00  0.00    -0.404 OA
BRANCH  19  23
ATOM     20  F   UNL     1      34.154 -15.602 -23.409  0.00  0.00    -0.133 F 
ATOM     21  F   UNL     1      36.267 -15.259 -22.970  0.00  0.00    -0.133 F 
ATOM     22  F   UNL     1      34.900 -15.738 -21.333  0.00  0.00    -0.133 F 
ATOM     23  C   UNL     1      35.183 -15.992 -22.628  0.00  0.00    +0.575 C 
ENDBRANCH  19  23
ENDBRANCH  18  19
ENDBRANCH  10  13
BRANCH   3  24
ATOM     24  C   UNL     1      32.144 -23.939 -14.573  0.00  0.00    +0.194 C 
BRANCH  24  27
ATOM     25  N   UNL     1      30.533 -22.140 -14.363  0.00  0.00    -0.217 NA
ATOM     26  N   UNL     1      29.979 -24.101 -15.650  0.00  0.00    -0.195 NA
ATOM     27  C   UNL     1      30.796 -23.355 -14.882  0.00  0.00    +0.028 C 
ATOM     28  C   UNL     1      29.313 -21.646 -14.661  0.00  0.00    +0.164 C 
ATOM     29  C   UNL     1      28.776 -23.547 -15.909  0.00  0.00    +0.107 C 
ATOM     30  C   UNL     1      28.385 -22.310 -15.436  0.00  0.00    +0.022 C 
ENDBRANCH  24  27
ENDBRANCH   3  24
TORSDOF 5
ENDMDL
MODEL 6
REMARK VINA RESULT:     -10.4      5.931      9.605
REMARK  Name = 71183216
REMARK  5 active torsions:
REMARK  status: ('A' for Active; 'I' for Inactive)
REMARK    1  A    between atoms: N_3  and  C_24
REMARK    2  A    between atoms: C_10  and  C_13
REMARK    3  A    between atoms: C_18  and  O_19
REMARK    4  A    between atoms: O_19  and  C_23
REMARK    5  A    between atoms: C_24  and  C_27
REMARK                            x       y       z     vdW  Elec       q    Type
REMARK                         _______ _______ _______ _____ _____    ______ ____
ROOT
ATOM      1  O   UNL     1      34.185 -18.051 -23.458  0.00  0.00    -0.473 OA
ATOM      2  O   UNL     1      34.965 -15.943 -20.230  0.00  0.00    -0.270 OA
ATOM      3  N   UNL     1      36.125 -17.581 -21.422  0.00  0.00    -0.259 N 
ATOM      4  C   UNL     1      36.581 -18.052 -22.727  0.00  0.00    +0.142 C 
ATOM      5  C   UNL     1      34.760 -15.884 -22.549  0.00  0.00    +0.087 C 
ATOM      6  C   UNL     1      35.451 -18.723 -23.500  0.00  0.00    +0.227 C 
ATOM      7  C   UNL     1      35.291 -16.467 -21.293  0.00  0.00    +0.253 C 
ATOM      8  C   UNL     1      34.268 -16.693 -23.582  0.00  0.00    +0.143 C 
ATOM      9  C   UNL     1      34.723 -14.492 -22.678  0.00  0.00    +0.008 C 
ATOM     10  C   UNL     1      34.206 -13.917 -23.838  0.00  0.00    +0.000 C 
ATOM     11  C   UNL     1      33.731 -16.113 -24.731  0.00  0.00    +0.037 C 
ATOM     12  C   UNL     1      33.711 -14.725 -24.864  0.00  0.00    +0.003 C 
ENDROOT
BRANCH  10  13
ATOM     13  C   UNL     1      34.175 -12.477 -23.979  0.00  0.00    +0.000 C 
ATOM     14  C   UNL     1      34.087 -11.900 -25.246  0.00  0.00    +0.003 C 
ATOM     15  C   UNL     1      34.237 -11.665 -22.846  0.00  0.00    +0.003 C 
ATOM     16  C   UNL     1      34.059 -10.512 -25.381  0.00  0.00    +0.037 C 
ATOM     17  C   UNL     1      34.210 -10.277 -22.981  0.00  0.00    +0.037 C 
ATOM     18  C   UNL     1      34.121  -9.700 -24.248  0.00  0.00    +0.147 C 
BRANCH  18  19
ATOM     19  O   UNL     1      34.096  -8.346 -24.380  0.00  0.00    -0.404 OA
BRANCH  19  23
ATOM     20  F   UNL     1      35.291  -6.535 -25.103  0.00  0.00    -0.133 F 
ATOM     21  F   UNL     1      36.312  -8.443 -24.801  0.00  0.00    -0.133 F 
ATOM     22  F   UNL     1      35.645  -7.302 -23.060  0.00  0.00    -0.133 F 
ATOM     23  C   UNL     1      35.331  -7.640 -24.329  0.00  0.00    +0.575 C 
ENDBRANCH  19  23
ENDBRANCH  18  19
ENDBRANCH  10  13
BRANCH   3  24
ATOM     24  C   UNL     1      36.600 -18.295 -20.248  0.00  0.00    +0.194 C 
BRANCH  24  27
ATOM     25  N   UNL     1      34.353 -19.203 -20.223  0.00  0.00    -0.217 NA
ATOM     26  N   UNL     1      36.104 -20.303 -18.984  0.00  0.00    -0.195 NA
ATOM     27  C   UNL     1      35.621 -19.336 -19.788  0.00  0.00    +0.028 C 
ATOM     28  C   UNL     1      33.500 -20.155 -19.790  0.00  0.00    +0.164 C 
ATOM     29  C   UNL     1      35.197 -21.220 -18.589  0.00  0.00    +0.107 C 
ATOM     30  C   UNL     1      33.869 -21.197 -18.965  0.00  0.00    +0.022 C 
ENDBRANCH  24  27
ENDBRANCH   3  24
TORSDOF 5
ENDMDL
MODEL 7
REMARK VINA RESULT:     -10.2      3.942      6.582
REMARK  Name = 71183216
REMARK  5 active torsions:
REMARK  status: ('A' for Active; 'I' for Inactive)
REMARK    1  A    between atoms: N_3  and  C_24
REMARK    2  A    between atoms: C_10  and  C_13
REMARK    3  A    between atoms: C_18  and  O_19
REMARK    4  A    between atoms: O_19  and  C_23
REMARK    5  A    between atoms: C_24  and  C_27
REMARK                            x       y       z     vdW  Elec       q    Type
REMARK                         _______ _______ _______ _____ _____    ______ ____
ROOT
ATOM      1  O   UNL     1      33.288 -20.626 -20.267  0.00  0.00    -0.473 OA
ATOM      2  O   UNL     1      37.206 -20.666 -19.921  0.00  0.00    -0.270 OA
ATOM      3  N   UNL     1      35.625 -18.995 -20.316  0.00  0.00    -0.259 N 
ATOM      4  C   UNL     1      34.358 -18.390 -19.913  0.00  0.00    +0.142 C 
ATOM      5  C   UNL     1      35.183 -20.856 -18.782  0.00  0.00    +0.087 C 
ATOM      6  C   UNL     1      33.171 -19.205 -20.414  0.00  0.00    +0.227 C 
ATOM      7  C   UNL     1      36.100 -20.167 -19.722  0.00  0.00    +0.253 C 
ATOM      8  C   UNL     1      33.823 -21.023 -19.074  0.00  0.00    +0.143 C 
ATOM      9  C   UNL     1      35.709 -21.378 -17.595  0.00  0.00    +0.008 C 
ATOM     10  C   UNL     1      34.874 -22.052 -16.705  0.00  0.00    +0.000 C 
ATOM     11  C   UNL     1      32.997 -21.718 -18.192  0.00  0.00    +0.037 C 
ATOM     12  C   UNL     1      33.521 -22.222 -17.002  0.00  0.00    +0.003 C 
ENDROOT
BRANCH  10  13
ATOM     13  C   UNL     1      35.413 -22.584 -15.472  0.00  0.00    +0.000 C 
ATOM     14  C   UNL     1      34.554 -23.065 -14.484  0.00  0.00    +0.003 C 
ATOM     15  C   UNL     1      36.793 -22.613 -15.270  0.00  0.00    +0.003 C 
ATOM     16  C   UNL     1      35.074 -23.576 -13.295  0.00  0.00    +0.037 C 
ATOM     17  C   UNL     1      37.314 -23.124 -14.081  0.00  0.00    +0.037 C 
ATOM     18  C   UNL     1      36.454 -23.605 -13.093  0.00  0.00    +0.147 C 
BRANCH  18  19
ATOM     19  O   UNL     1      36.961 -24.102 -11.932  0.00  0.00    -0.404 OA
BRANCH  19  23
ATOM     20  F   UNL     1      37.201 -21.907 -11.336  0.00  0.00    -0.133 F 
ATOM     21  F   UNL     1      38.744 -23.347 -10.770  0.00  0.00    -0.133 F 
ATOM     22  F   UNL     1      36.807 -23.405  -9.759  0.00  0.00    -0.133 F 
ATOM     23  C   UNL     1      37.413 -23.181 -10.945  0.00  0.00    +0.575 C 
ENDBRANCH  19  23
ENDBRANCH  18  19
ENDBRANCH  10  13
BRANCH   3  24
ATOM     24  C   UNL     1      36.399 -18.310 -21.338  0.00  0.00    +0.194 C 
BRANCH  24  27
ATOM     25  N   UNL     1      35.433 -16.892 -23.050  0.00  0.00    -0.217 NA
ATOM     26  N   UNL     1      35.588 -16.095 -20.780  0.00  0.00    -0.195 NA
ATOM     27  C   UNL     1      35.765 -17.013 -21.750  0.00  0.00    +0.028 C 
ATOM     28  C   UNL     1      34.865 -15.714 -23.384  0.00  0.00    +0.164 C 
ATOM     29  C   UNL     1      35.016 -14.943 -21.184  0.00  0.00    +0.107 C 
ATOM     30  C   UNL     1      34.630 -14.693 -22.486  0.00  0.00    +0.022 C 
ENDBRANCH  24  27
ENDBRANCH   3  24
TORSDOF 5
ENDMDL
MODEL 8
REMARK VINA RESULT:     -10.1      5.214      9.460
REMARK  Name = 71183216
REMARK  5 active torsions:
REMARK  status: ('A' for Active; 'I' for Inactive)
REMARK    1  A    between atoms: N_3  and  C_24
REMARK    2  A    between atoms: C_10  and  C_13
REMARK    3  A    between atoms: C_18  and  O_19
REMARK    4  A    between atoms: O_19  and  C_23
REMARK    5  A    between atoms: C_24  and  C_27
REMARK                            x       y       z     vdW  Elec       q    Type
REMARK                         _______ _______ _______ _____ _____    ______ ____
ROOT
ATOM      1  O   UNL     1      36.691 -21.252 -19.606  0.00  0.00    -0.473 OA
ATOM      2  O   UNL     1      32.845 -20.502 -19.942  0.00  0.00    -0.270 OA
ATOM      3  N   UNL     1      34.206 -21.272 -18.210  0.00  0.00    -0.259 N 
ATOM      4  C   UNL     1      35.436 -21.084 -17.445  0.00  0.00    +0.142 C 
ATOM      5  C   UNL     1      34.970 -19.562 -19.793  0.00  0.00    +0.087 C 
ATOM      6  C   UNL     1      36.650 -21.594 -18.214  0.00  0.00    +0.227 C 
ATOM      7  C   UNL     1      33.907 -20.485 -19.325  0.00  0.00    +0.253 C 
ATOM      8  C   UNL     1      36.308 -19.968 -19.878  0.00  0.00    +0.143 C 
ATOM      9  C   UNL     1      34.609 -18.270 -20.188  0.00  0.00    +0.008 C 
ATOM     10  C   UNL     1      35.585 -17.390 -20.655  0.00  0.00    +0.000 C 
ATOM     11  C   UNL     1      37.277 -19.093 -20.367  0.00  0.00    +0.037 C 
ATOM     12  C   UNL     1      36.916 -17.800 -20.744  0.00  0.00    +0.003 C 
ENDROOT
BRANCH  10  13
ATOM     13  C   UNL     1      35.215 -16.049 -21.055  0.00  0.00    +0.000 C 
ATOM     14  C   UNL     1      35.165 -15.713 -22.408  0.00  0.00    +0.003 C 
ATOM     15  C   UNL     1      34.913 -15.092 -20.087  0.00  0.00    +0.003 C 
ATOM     16  C   UNL     1      34.811 -14.420 -22.792  0.00  0.00    +0.037 C 
ATOM     17  C   UNL     1      34.558 -13.798 -20.471  0.00  0.00    +0.037 C 
ATOM     18  C   UNL     1      34.508 -13.462 -21.824  0.00  0.00    +0.147 C 
BRANCH  18  19
ATOM     19  O   UNL     1      34.164 -12.200 -22.200  0.00  0.00    -0.404 OA
BRANCH  19  23
ATOM     20  F   UNL     1      31.911 -12.591 -22.125  0.00  0.00    -0.133 F 
ATOM     21  F   UNL     1      32.637 -10.563 -22.491  0.00  0.00    -0.133 F 
ATOM     22  F   UNL     1      32.848 -11.428 -20.496  0.00  0.00    -0.133 F 
ATOM     23  C   UNL     1      32.884 -11.708 -21.816  0.00  0.00    +0.575 C 
ENDBRANCH  19  23
ENDBRANCH  18  19
ENDBRANCH  10  13
BRANCH   3  24
ATOM     24  C   UNL     1      33.277 -22.289 -17.746  0.00  0.00    +0.194 C 
BRANCH  24  27
ATOM     25  N   UNL     1      34.653 -23.349 -16.055  0.00  0.00    -0.217 NA
ATOM     26  N   UNL     1      32.589 -22.277 -15.422  0.00  0.00    -0.195 NA
ATOM     27  C   UNL     1      33.523 -22.663 -16.313  0.00  0.00    +0.028 C 
ATOM     28  C   UNL     1      34.842 -23.668 -14.757  0.00  0.00    +0.164 C 
ATOM     29  C   UNL     1      32.841 -22.629 -14.144  0.00  0.00    +0.107 C 
ATOM     30  C   UNL     1      33.962 -23.332 -13.749  0.00  0.00    +0.022 C 
ENDBRANCH  24  27
ENDBRANCH   3  24
TORSDOF 5
ENDMDL
MODEL 9
REMARK VINA RESULT:     -10.0      5.396      9.478
REMARK  Name = 71183216
REMARK  5 active torsions:
REMARK  status: ('A' for Active; 'I' for Inactive)
REMARK    1  A    between atoms: N_3  and  C_24
REMARK    2  A    between atoms: C_10  and  C_13
REMARK    3  A    between atoms: C_18  and  O_19
REMARK    4  A    between atoms: O_19  and  C_23
REMARK    5  A    between atoms: C_24  and  C_27
REMARK                            x       y       z     vdW  Elec       q    Type
REMARK                         _______ _______ _______ _____ _____    ______ ____
ROOT
ATOM      1  O   UNL     1      36.999 -21.847 -17.212  0.00  0.00    -0.473 OA
ATOM      2  O   UNL     1      33.736 -22.716 -19.230  0.00  0.00    -0.270 OA
ATOM      3  N   UNL     1      34.203 -22.350 -16.973  0.00  0.00    -0.259 N 
ATOM      4  C   UNL     1      34.847 -21.494 -15.980  0.00  0.00    +0.142 C 
ATOM      5  C   UNL     1      35.302 -21.061 -18.747  0.00  0.00    +0.087 C 
ATOM      6  C   UNL     1      36.353 -21.731 -15.938  0.00  0.00    +0.227 C 
ATOM      7  C   UNL     1      34.341 -22.117 -18.344  0.00  0.00    +0.253 C 
ATOM      8  C   UNL     1      36.562 -20.949 -18.146  0.00  0.00    +0.143 C 
ATOM      9  C   UNL     1      34.941 -20.185 -19.776  0.00  0.00    +0.008 C 
ATOM     10  C   UNL     1      35.836 -19.199 -20.191  0.00  0.00    +0.000 C 
ATOM     11  C   UNL     1      37.462 -19.976 -18.579  0.00  0.00    +0.037 C 
ATOM     12  C   UNL     1      37.093 -19.094 -19.594  0.00  0.00    +0.003 C 
ENDROOT
BRANCH  10  13
ATOM     13  C   UNL     1      35.462 -18.285 -21.249  0.00  0.00    +0.000 C 
ATOM     14  C   UNL     1      35.700 -16.918 -21.107  0.00  0.00    +0.003 C 
ATOM     15  C   UNL     1      34.861 -18.771 -22.410  0.00  0.00    +0.003 C 
ATOM     16  C   UNL     1      35.338 -16.037 -22.126  0.00  0.00    +0.037 C 
ATOM     17  C   UNL     1      34.499 -17.891 -23.429  0.00  0.00    +0.037 C 
ATOM     18  C   UNL     1      34.737 -16.524 -23.287  0.00  0.00    +0.147 C 
BRANCH  18  19
ATOM     19  O   UNL     1      34.383 -15.664 -24.281  0.00  0.00    -0.404 OA
BRANCH  19  23
ATOM     20  F   UNL     1      35.328 -13.787 -23.378  0.00  0.00    -0.133 F 
ATOM     21  F   UNL     1      33.199 -14.172 -23.069  0.00  0.00    -0.133 F 
ATOM     22  F   UNL     1      33.898 -13.565 -25.049  0.00  0.00    -0.133 F 
ATOM     23  C   UNL     1      34.215 -14.288 -23.955  0.00  0.00    +0.575 C 
ENDBRANCH  19  23
ENDBRANCH  18  19
ENDBRANCH  10  13
BRANCH   3  24
ATOM     24  C   UNL     1      33.376 -23.441 -16.482  0.00  0.00    +0.194 C 
BRANCH  24  27
ATOM     25  N   UNL     1      32.101 -23.133 -14.444  0.00  0.00    -0.217 NA
ATOM     26  N   UNL     1      31.212 -22.350 -16.544  0.00  0.00    -0.195 NA
ATOM     27  C   UNL     1      32.149 -22.942 -15.777  0.00  0.00    +0.028 C 
ATOM     28  C   UNL     1      30.984 -22.673 -13.843  0.00  0.00    +0.164 C 
ATOM     29  C   UNL     1      30.123 -21.914 -15.878  0.00  0.00    +0.107 C 
ATOM     30  C   UNL     1      29.953 -22.049 -14.515  0.00  0.00    +0.022 C 
ENDBRANCH  24  27
ENDBRANCH   3  24
TORSDOF 5
ENDMDL
