MODEL 1
REMARK VINA RESULT:     -12.4      0.000      0.000
REMARK  Name = 17748441
REMARK  5 active torsions:
REMARK  status: ('A' for Active; 'I' for Inactive)
REMARK    1  A    between atoms: C_2  and  N_10
REMARK    2  A    between atoms: C_3  and  O_24
REMARK    3  A    between atoms: C_12  and  C_16
REMARK    4  A    between atoms: C_16  and  C_18
REMARK    5  A    between atoms: O_24  and  C_27
REMARK                            x       y       z     vdW  Elec       q    Type
REMARK                         _______ _______ _______ _____ _____    ______ ____
ROOT
ATOM      1  F   UNL     1      38.010 -17.851 -22.082  0.00  0.00    -0.201 F 
ATOM      2  C   UNL     1      36.273 -19.579 -19.394  0.00  0.00    +0.054 C 
ATOM      3  C   UNL     1      35.726 -18.464 -21.892  0.00  0.00    +0.173 C 
ATOM      4  C   UNL     1      37.296 -18.981 -20.130  0.00  0.00    +0.047 C 
ATOM      5  C   UNL     1      34.977 -19.619 -19.908  0.00  0.00    +0.018 C 
ATOM      6  C   UNL     1      37.022 -18.423 -21.379  0.00  0.00    +0.176 C 
ATOM      7  C   UNL     1      34.703 -19.061 -21.156  0.00  0.00    +0.041 C 
ENDROOT
BRANCH   2  10
ATOM      8  O   UNL     1      35.416 -23.476 -15.696  0.00  0.00    -0.274 OA
ATOM      9  O   UNL     1      35.170 -22.045 -18.082  0.00  0.00    -0.252 OA
ATOM     10  N   UNL     1      36.550 -20.144 -18.127  0.00  0.00    -0.268 N 
ATOM     11  N   UNL     1      36.543 -21.520 -16.284  0.00  0.00    -0.239 N 
ATOM     12  C   UNL     1      36.219 -22.583 -15.437  0.00  0.00    +0.234 C 
ATOM     13  C   UNL     1      36.002 -21.302 -17.567  0.00  0.00    +0.310 C 
ATOM     14  H   UNL     1      37.208 -19.663 -17.574  0.00  0.00    +0.156 HD
ATOM     15  H   UNL     1      37.205 -20.868 -15.956  0.00  0.00    +0.159 HD
BRANCH  12  16
ATOM     16  C   UNL     1      36.991 -22.503 -14.133  0.00  0.00    +0.112 C 
BRANCH  16  18
ATOM     17  F   UNL     1      41.237 -26.195 -13.826  0.00  0.00    -0.204 F 
ATOM     18  C   UNL     1      38.126 -23.489 -14.051  0.00  0.00    -0.013 C 
ATOM     19  C   UNL     1      39.177 -23.420 -14.964  0.00  0.00    -0.001 C 
ATOM     20  C   UNL     1      38.126 -24.473 -13.061  0.00  0.00    -0.001 C 
ATOM     21  C   UNL     1      40.228 -24.334 -14.888  0.00  0.00    +0.029 C 
ATOM     22  C   UNL     1      39.176 -25.387 -12.986  0.00  0.00    +0.029 C 
ATOM     23  C   UNL     1      40.228 -25.318 -13.899  0.00  0.00    +0.140 C 
ENDBRANCH  16  18
ENDBRANCH  12  16
ENDBRANCH   2  10
BRANCH   3  24
ATOM     24  O   UNL     1      35.458 -17.918 -23.110  0.00  0.00    -0.451 OA
BRANCH  24  27
ATOM     25  N   UNL     1      34.216 -13.929 -23.218  0.00  0.00    -0.229 NA
ATOM     26  N   UNL     1      33.216 -14.313 -25.346  0.00  0.00    -0.343 N 
ATOM     27  C   UNL     1      35.047 -16.596 -23.146  0.00  0.00    +0.150 C 
ATOM     28  C   UNL     1      34.333 -16.116 -24.239  0.00  0.00    +0.071 C 
ATOM     29  C   UNL     1      35.346 -15.743 -22.090  0.00  0.00    +0.058 C 
ATOM     30  C   UNL     1      33.944 -14.787 -24.226  0.00  0.00    +0.128 C 
ATOM     31  C   UNL     1      34.911 -14.430 -22.173  0.00  0.00    +0.103 C 
ATOM     32  H   UNL     1      32.920 -13.375 -25.380  0.00  0.00    +0.144 HD
ATOM     33  H   UNL     1      33.008 -14.923 -26.091  0.00  0.00    +0.144 HD
ENDBRANCH  24  27
ENDBRANCH   3  24
TORSDOF 5
ENDMDL
MODEL 2
REMARK VINA RESULT:     -12.4      5.042      8.182
REMARK  Name = 17748441
REMARK  5 active torsions:
REMARK  status: ('A' for Active; 'I' for Inactive)
REMARK    1  A    between atoms: C_2  and  N_10
REMARK    2  A    between atoms: C_3  and  O_24
REMARK    3  A    between atoms: C_12  and  C_16
REMARK    4  A    between atoms: C_16  and  C_18
REMARK    5  A    between atoms: O_24  and  C_27
REMARK                            x       y       z     vdW  Elec       q    Type
REMARK                         _______ _______ _______ _____ _____    ______ ____
ROOT
ATOM      1  F   UNL     1      30.938 -11.550 -19.467  0.00  0.00    -0.201 F 
ATOM      2  C   UNL     1      33.708 -13.432 -20.886  0.00  0.00    +0.054 C 
ATOM      3  C   UNL     1      32.230 -11.125 -21.411  0.00  0.00    +0.173 C 
ATOM      4  C   UNL     1      32.671 -13.058 -20.031  0.00  0.00    +0.047 C 
ATOM      5  C   UNL     1      34.005 -12.652 -22.003  0.00  0.00    +0.018 C 
ATOM      6  C   UNL     1      31.932 -11.904 -20.294  0.00  0.00    +0.176 C 
ATOM      7  C   UNL     1      33.266 -11.499 -22.266  0.00  0.00    +0.041 C 
ENDROOT
BRANCH   2  10
ATOM      8  O   UNL     1      36.293 -17.868 -22.683  0.00  0.00    -0.274 OA
ATOM      9  O   UNL     1      34.819 -15.497 -22.762  0.00  0.00    -0.252 OA
ATOM     10  N   UNL     1      34.458 -14.602 -20.620  0.00  0.00    -0.268 N 
ATOM     11  N   UNL     1      35.647 -16.555 -20.867  0.00  0.00    -0.239 N 
ATOM     12  C   UNL     1      36.268 -17.649 -21.475  0.00  0.00    +0.234 C 
ATOM     13  C   UNL     1      34.951 -15.531 -21.541  0.00  0.00    +0.310 C 
ATOM     14  H   UNL     1      34.655 -14.783 -19.672  0.00  0.00    +0.156 HD
ATOM     15  H   UNL     1      35.698 -16.495 -19.885  0.00  0.00    +0.159 HD
BRANCH  12  16
ATOM     16  C   UNL     1      36.920 -18.553 -20.446  0.00  0.00    +0.112 C 
BRANCH  16  18
ATOM     17  F   UNL     1      33.305 -22.108 -17.987  0.00  0.00    -0.204 F 
ATOM     18  C   UNL     1      35.954 -19.503 -19.789  0.00  0.00    -0.013 C 
ATOM     19  C   UNL     1      36.416 -20.435 -18.861  0.00  0.00    -0.001 C 
ATOM     20  C   UNL     1      34.597 -19.450 -20.109  0.00  0.00    -0.001 C 
ATOM     21  C   UNL     1      35.521 -21.315 -18.252  0.00  0.00    +0.029 C 
ATOM     22  C   UNL     1      33.702 -20.331 -19.501  0.00  0.00    +0.029 C 
ATOM     23  C   UNL     1      34.164 -21.263 -18.571  0.00  0.00    +0.140 C 
ENDBRANCH  16  18
ENDBRANCH  12  16
ENDBRANCH   2  10
BRANCH   3  24
ATOM     24  O   UNL     1      31.507 -10.000 -21.669  0.00  0.00    -0.451 OA
BRANCH  24  27
ATOM     25  N   UNL     1      33.389  -6.312 -21.100  0.00  0.00    -0.229 NA
ATOM     26  N   UNL     1      33.386  -6.690 -18.748  0.00  0.00    -0.343 N 
ATOM     27  C   UNL     1      32.130  -8.778 -21.480  0.00  0.00    +0.150 C 
ATOM     28  C   UNL     1      32.446  -8.346 -20.197  0.00  0.00    +0.071 C 
ATOM     29  C   UNL     1      32.443  -7.978 -22.573  0.00  0.00    +0.058 C 
ATOM     30  C   UNL     1      33.070  -7.116 -20.062  0.00  0.00    +0.128 C 
ATOM     31  C   UNL     1      33.067  -6.765 -22.332  0.00  0.00    +0.103 C 
ATOM     32  H   UNL     1      33.829  -5.823 -18.605  0.00  0.00    +0.144 HD
ATOM     33  H   UNL     1      33.161  -7.261 -17.978  0.00  0.00    +0.144 HD
ENDBRANCH  24  27
ENDBRANCH   3  24
TORSDOF 5
ENDMDL
MODEL 3
REMARK VINA RESULT:     -12.3      2.012      2.732
REMARK  Name = 17748441
REMARK  5 active torsions:
REMARK  status: ('A' for Active; 'I' for Inactive)
REMARK    1  A    between atoms: C_2  and  N_10
REMARK    2  A    between atoms: C_3  and  O_24
REMARK    3  A    between atoms: C_12  and  C_16
REMARK    4  A    between atoms: C_16  and  C_18
REMARK    5  A    between atoms: O_24  and  C_27
REMARK                            x       y       z     vdW  Elec       q    Type
REMARK                         _______ _______ _______ _____ _____    ______ ____
ROOT
ATOM      1  F   UNL     1      33.040 -20.543 -19.990  0.00  0.00    -0.201 F 
ATOM      2  C   UNL     1      35.710 -21.261 -17.628  0.00  0.00    +0.054 C 
ATOM      3  C   UNL     1      35.370 -20.125 -20.153  0.00  0.00    +0.173 C 
ATOM      4  C   UNL     1      34.437 -21.184 -18.192  0.00  0.00    +0.047 C 
ATOM      5  C   UNL     1      36.813 -20.771 -18.327  0.00  0.00    +0.018 C 
ATOM      6  C   UNL     1      34.267 -20.615 -19.454  0.00  0.00    +0.176 C 
ATOM      7  C   UNL     1      36.643 -20.203 -19.590  0.00  0.00    +0.041 C 
ENDROOT
BRANCH   2  10
ATOM      8  O   UNL     1      33.651 -23.914 -13.348  0.00  0.00    -0.274 OA
ATOM      9  O   UNL     1      33.746 -22.672 -15.848  0.00  0.00    -0.252 OA
ATOM     10  N   UNL     1      35.884 -21.838 -16.348  0.00  0.00    -0.268 N 
ATOM     11  N   UNL     1      35.505 -22.916 -14.352  0.00  0.00    -0.239 N 
ATOM     12  C   UNL     1      34.837 -23.596 -13.330  0.00  0.00    +0.234 C 
ATOM     13  C   UNL     1      34.926 -22.486 -15.562  0.00  0.00    +0.310 C 
ATOM     14  H   UNL     1      36.789 -21.774 -15.964  0.00  0.00    +0.156 HD
ATOM     15  H   UNL     1      36.460 -22.719 -14.214  0.00  0.00    +0.159 HD
BRANCH  12  16
ATOM     16  C   UNL     1      35.769 -23.902 -12.172  0.00  0.00    +0.112 C 
BRANCH  16  18
ATOM     17  F   UNL     1      40.810 -25.812 -13.813  0.00  0.00    -0.204 F 
ATOM     18  C   UNL     1      37.116 -24.413 -12.610  0.00  0.00    -0.013 C 
ATOM     19  C   UNL     1      38.272 -23.709 -12.273  0.00  0.00    -0.001 C 
ATOM     20  C   UNL     1      37.209 -25.590 -13.355  0.00  0.00    -0.001 C 
ATOM     21  C   UNL     1      39.520 -24.182 -12.679  0.00  0.00    +0.029 C 
ATOM     22  C   UNL     1      38.456 -26.061 -13.762  0.00  0.00    +0.029 C 
ATOM     23  C   UNL     1      39.612 -25.358 -13.423  0.00  0.00    +0.140 C 
ENDBRANCH  16  18
ENDBRANCH  12  16
ENDBRANCH   2  10
BRANCH   3  24
ATOM     24  O   UNL     1      35.204 -19.573 -21.386  0.00  0.00    -0.451 OA
BRANCH  24  27
ATOM     25  N   UNL     1      35.304 -15.404 -21.674  0.00  0.00    -0.229 NA
ATOM     26  N   UNL     1      35.339 -15.584 -24.050  0.00  0.00    -0.343 N 
ATOM     27  C   UNL     1      35.237 -18.191 -21.482  0.00  0.00    +0.150 C 
ATOM     28  C   UNL     1      35.272 -17.578 -22.729  0.00  0.00    +0.071 C 
ATOM     29  C   UNL     1      35.236 -17.412 -20.331  0.00  0.00    +0.058 C 
ATOM     30  C   UNL     1      35.304 -16.194 -22.771  0.00  0.00    +0.128 C 
ATOM     31  C   UNL     1      35.270 -16.035 -20.479  0.00  0.00    +0.103 C 
ATOM     32  H   UNL     1      35.362 -14.603 -24.127  0.00  0.00    +0.144 HD
ATOM     33  H   UNL     1      35.340 -16.142 -24.861  0.00  0.00    +0.144 HD
ENDBRANCH  24  27
ENDBRANCH   3  24
TORSDOF 5
ENDMDL
MODEL 4
REMARK VINA RESULT:     -12.0      2.782     11.306
REMARK  Name = 17748441
REMARK  5 active torsions:
REMARK  status: ('A' for Active; 'I' for Inactive)
REMARK    1  A    between atoms: C_2  and  N_10
REMARK    2  A    between atoms: C_3  and  O_24
REMARK    3  A    between atoms: C_12  and  C_16
REMARK    4  A    between atoms: C_16  and  C_18
REMARK    5  A    between atoms: O_24  and  C_27
REMARK                            x       y       z     vdW  Elec       q    Type
REMARK                         _______ _______ _______ _____ _____    ______ ____
ROOT
ATOM      1  F   UNL     1      38.247 -21.445 -15.554  0.00  0.00    -0.201 F 
ATOM      2  C   UNL     1      35.524 -21.134 -17.945  0.00  0.00    +0.054 C 
ATOM      3  C   UNL     1      36.037 -22.304 -15.465  0.00  0.00    +0.173 C 
ATOM      4  C   UNL     1      36.781 -20.997 -17.355  0.00  0.00    +0.047 C 
ATOM      5  C   UNL     1      34.524 -21.857 -17.294  0.00  0.00    +0.018 C 
ATOM      6  C   UNL     1      37.037 -21.582 -16.115  0.00  0.00    +0.176 C 
ATOM      7  C   UNL     1      34.781 -22.443 -16.054  0.00  0.00    +0.041 C 
ENDROOT
BRANCH   2  10
ATOM      8  O   UNL     1      36.894 -17.610 -21.856  0.00  0.00    -0.274 OA
ATOM      9  O   UNL     1      37.037 -19.021 -19.450  0.00  0.00    -0.252 OA
ATOM     10  N   UNL     1      35.263 -20.541 -19.203  0.00  0.00    -0.268 N 
ATOM     11  N   UNL     1      35.408 -19.238 -21.092  0.00  0.00    -0.239 N 
ATOM     12  C   UNL     1      35.884 -18.293 -22.005  0.00  0.00    +0.234 C 
ATOM     13  C   UNL     1      36.008 -19.556 -19.857  0.00  0.00    +0.310 C 
ATOM     14  H   UNL     1      34.459 -20.862 -19.673  0.00  0.00    +0.156 HD
ATOM     15  H   UNL     1      34.584 -19.721 -21.331  0.00  0.00    +0.159 HD
BRANCH  12  16
ATOM     16  C   UNL     1      34.989 -18.209 -23.227  0.00  0.00    +0.112 C 
BRANCH  16  18
ATOM     17  F   UNL     1      33.720 -12.922 -24.706  0.00  0.00    -0.204 F 
ATOM     18  C   UNL     1      34.649 -16.796 -23.622  0.00  0.00    -0.013 C 
ATOM     19  C   UNL     1      34.062 -16.541 -24.860  0.00  0.00    -0.001 C 
ATOM     20  C   UNL     1      34.924 -15.743 -22.750  0.00  0.00    -0.001 C 
ATOM     21  C   UNL     1      33.747 -15.232 -25.227  0.00  0.00    +0.029 C 
ATOM     22  C   UNL     1      34.611 -14.434 -23.116  0.00  0.00    +0.029 C 
ATOM     23  C   UNL     1      34.022 -14.178 -24.354  0.00  0.00    +0.140 C 
ENDBRANCH  16  18
ENDBRANCH  12  16
ENDBRANCH   2  10
BRANCH   3  24
ATOM     24  O   UNL     1      36.288 -22.877 -14.256  0.00  0.00    -0.451 OA
BRANCH  24  27
ATOM     25  N   UNL     1      38.397 -26.486 -14.215  0.00  0.00    -0.229 NA
ATOM     26  N   UNL     1      40.346 -25.321 -13.490  0.00  0.00    -0.343 N 
ATOM     27  C   UNL     1      36.987 -24.073 -14.243  0.00  0.00    +0.150 C 
ATOM     28  C   UNL     1      38.327 -24.094 -13.870  0.00  0.00    +0.071 C 
ATOM     29  C   UNL     1      36.353 -25.256 -14.602  0.00  0.00    +0.058 C 
ATOM     30  C   UNL     1      38.981 -25.316 -13.873  0.00  0.00    +0.128 C 
ATOM     31  C   UNL     1      37.095 -26.426 -14.572  0.00  0.00    +0.103 C 
ATOM     32  H   UNL     1      40.850 -26.166 -13.478  0.00  0.00    +0.144 HD
ATOM     33  H   UNL     1      40.789 -24.479 -13.237  0.00  0.00    +0.144 HD
ENDBRANCH  24  27
ENDBRANCH   3  24
TORSDOF 5
ENDMDL
MODEL 5
REMARK VINA RESULT:     -12.0      6.000     13.135
REMARK  Name = 17748441
REMARK  5 active torsions:
REMARK  status: ('A' for Active; 'I' for Inactive)
REMARK    1  A    between atoms: C_2  and  N_10
REMARK    2  A    between atoms: C_3  and  O_24
REMARK    3  A    between atoms: C_12  and  C_16
REMARK    4  A    between atoms: C_16  and  C_18
REMARK    5  A    between atoms: O_24  and  C_27
REMARK                            x       y       z     vdW  Elec       q    Type
REMARK                         _______ _______ _______ _____ _____    ______ ____
ROOT
ATOM      1  F   UNL     1      34.663 -16.058 -25.007  0.00  0.00    -0.201 F 
ATOM      2  C   UNL     1      33.928 -13.491 -22.537  0.00  0.00    +0.054 C 
ATOM      3  C   UNL     1      35.253 -15.940 -22.712  0.00  0.00    +0.173 C 
ATOM      4  C   UNL     1      33.966 -14.179 -23.750  0.00  0.00    +0.047 C 
ATOM      5  C   UNL     1      34.553 -14.029 -21.411  0.00  0.00    +0.018 C 
ATOM      6  C   UNL     1      34.629 -15.403 -23.837  0.00  0.00    +0.176 C 
ATOM      7  C   UNL     1      35.215 -15.253 -21.499  0.00  0.00    +0.041 C 
ENDROOT
BRANCH   2  10
ATOM      8  O   UNL     1      33.751  -8.155 -23.580  0.00  0.00    -0.274 OA
ATOM      9  O   UNL     1      34.723 -10.773 -23.537  0.00  0.00    -0.252 OA
ATOM     10  N   UNL     1      33.256 -12.250 -22.447  0.00  0.00    -0.268 N 
ATOM     11  N   UNL     1      32.717 -10.022 -22.638  0.00  0.00    -0.239 N 
ATOM     12  C   UNL     1      32.814  -8.669 -22.976  0.00  0.00    +0.234 C 
ATOM     13  C   UNL     1      33.678 -11.009 -22.935  0.00  0.00    +0.310 C 
ATOM     14  H   UNL     1      32.386 -12.262 -21.984  0.00  0.00    +0.156 HD
ATOM     15  H   UNL     1      31.911 -10.309 -22.151  0.00  0.00    +0.159 HD
BRANCH  12  16
ATOM     16  C   UNL     1      31.599  -7.895 -22.498  0.00  0.00    +0.112 C 
BRANCH  16  18
ATOM     17  F   UNL     1      32.718  -4.397 -18.225  0.00  0.00    -0.204 F 
ATOM     18  C   UNL     1      31.899  -6.960 -21.356  0.00  0.00    -0.013 C 
ATOM     19  C   UNL     1      32.571  -7.430 -20.229  0.00  0.00    -0.001 C 
ATOM     20  C   UNL     1      31.503  -5.624 -21.426  0.00  0.00    -0.001 C 
ATOM     21  C   UNL     1      32.848  -6.564 -19.171  0.00  0.00    +0.029 C 
ATOM     22  C   UNL     1      31.779  -4.759 -20.368  0.00  0.00    +0.029 C 
ATOM     23  C   UNL     1      32.452  -5.228 -19.240  0.00  0.00    +0.140 C 
ENDBRANCH  16  18
ENDBRANCH  12  16
ENDBRANCH   2  10
BRANCH   3  24
ATOM     24  O   UNL     1      35.898 -17.136 -22.796  0.00  0.00    -0.451 OA
BRANCH  24  27
ATOM     25  N   UNL     1      35.637 -19.721 -19.522  0.00  0.00    -0.229 NA
ATOM     26  N   UNL     1      33.326 -20.062 -19.995  0.00  0.00    -0.343 N 
ATOM     27  C   UNL     1      35.811 -17.992 -21.711  0.00  0.00    +0.150 C 
ATOM     28  C   UNL     1      34.601 -18.601 -21.397  0.00  0.00    +0.071 C 
ATOM     29  C   UNL     1      36.934 -18.247 -20.932  0.00  0.00    +0.058 C 
ATOM     30  C   UNL     1      34.567 -19.449 -20.302  0.00  0.00    +0.128 C 
ATOM     31  C   UNL     1      36.796 -19.112 -19.858  0.00  0.00    +0.103 C 
ATOM     32  H   UNL     1      33.256 -20.672 -19.226  0.00  0.00    +0.144 HD
ATOM     33  H   UNL     1      32.535 -19.877 -20.551  0.00  0.00    +0.144 HD
ENDBRANCH  24  27
ENDBRANCH   3  24
TORSDOF 5
ENDMDL
MODEL 6
REMARK VINA RESULT:     -11.8      5.939      9.284
REMARK  Name = 17748441
REMARK  5 active torsions:
REMARK  status: ('A' for Active; 'I' for Inactive)
REMARK    1  A    between atoms: C_2  and  N_10
REMARK    2  A    between atoms: C_3  and  O_24
REMARK    3  A    between atoms: C_12  and  C_16
REMARK    4  A    between atoms: C_16  and  C_18
REMARK    5  A    between atoms: O_24  and  C_27
REMARK                            x       y       z     vdW  Elec       q    Type
REMARK                         _______ _______ _______ _____ _____    ______ ____
ROOT
ATOM      1  F   UNL     1      34.695  -8.597 -24.419  0.00  0.00    -0.201 F 
ATOM      2  C   UNL     1      33.815 -11.665 -22.675  0.00  0.00    +0.054 C 
ATOM      3  C   UNL     1      32.931  -9.028 -22.892  0.00  0.00    +0.173 C 
ATOM      4  C   UNL     1      34.488 -10.770 -23.507  0.00  0.00    +0.047 C 
ATOM      5  C   UNL     1      32.701 -11.241 -21.951  0.00  0.00    +0.018 C 
ATOM      6  C   UNL     1      34.045  -9.452 -23.616  0.00  0.00    +0.176 C 
ATOM      7  C   UNL     1      32.259  -9.922 -22.059  0.00  0.00    +0.041 C 
ENDROOT
BRANCH   2  10
ATOM      8  O   UNL     1      35.402 -15.850 -19.583  0.00  0.00    -0.274 OA
ATOM      9  O   UNL     1      34.510 -13.287 -20.246  0.00  0.00    -0.252 OA
ATOM     10  N   UNL     1      34.263 -13.002 -22.564  0.00  0.00    -0.268 N 
ATOM     11  N   UNL     1      34.984 -15.017 -21.722  0.00  0.00    -0.239 N 
ATOM     12  C   UNL     1      35.369 -15.997 -20.802  0.00  0.00    +0.234 C 
ATOM     13  C   UNL     1      34.573 -13.709 -21.398  0.00  0.00    +0.310 C 
ATOM     14  H   UNL     1      34.371 -13.494 -23.411  0.00  0.00    +0.156 HD
ATOM     15  H   UNL     1      35.002 -15.262 -22.676  0.00  0.00    +0.159 HD
BRANCH  12  16
ATOM     16  C   UNL     1      35.750 -17.288 -21.502  0.00  0.00    +0.112 C 
BRANCH  16  18
ATOM     17  F   UNL     1      35.240 -21.837 -18.216  0.00  0.00    -0.204 F 
ATOM     18  C   UNL     1      35.614 -18.504 -20.624  0.00  0.00    -0.013 C 
ATOM     19  C   UNL     1      34.354 -19.047 -20.375  0.00  0.00    -0.001 C 
ATOM     20  C   UNL     1      36.748 -19.088 -20.059  0.00  0.00    -0.001 C 
ATOM     21  C   UNL     1      34.227 -20.173 -19.562  0.00  0.00    +0.029 C 
ATOM     22  C   UNL     1      36.622 -20.213 -19.245  0.00  0.00    +0.029 C 
ATOM     23  C   UNL     1      35.361 -20.757 -18.997  0.00  0.00    +0.140 C 
ENDBRANCH  16  18
ENDBRANCH  12  16
ENDBRANCH   2  10
BRANCH   3  24
ATOM     24  O   UNL     1      32.501  -7.741 -22.996  0.00  0.00    -0.451 OA
BRANCH  24  27
ATOM     25  N   UNL     1      32.270  -5.482 -19.487  0.00  0.00    -0.229 NA
ATOM     26  N   UNL     1      30.589  -4.123 -20.489  0.00  0.00    -0.343 N 
ATOM     27  C   UNL     1      32.424  -6.992 -21.833  0.00  0.00    +0.150 C 
ATOM     28  C   UNL     1      31.537  -5.925 -21.747  0.00  0.00    +0.071 C 
ATOM     29  C   UNL     1      33.235  -7.304 -20.748  0.00  0.00    +0.058 C 
ATOM     30  C   UNL     1      31.498  -5.208 -20.562  0.00  0.00    +0.128 C 
ATOM     31  C   UNL     1      33.121  -6.525 -19.607  0.00  0.00    +0.103 C 
ATOM     32  H   UNL     1      30.528  -3.587 -19.667  0.00  0.00    +0.144 HD
ATOM     33  H   UNL     1      30.017  -3.908 -21.262  0.00  0.00    +0.144 HD
ENDBRANCH  24  27
ENDBRANCH   3  24
TORSDOF 5
ENDMDL
MODEL 7
REMARK VINA RESULT:     -11.7      5.649     12.697
REMARK  Name = 17748441
REMARK  5 active torsions:
REMARK  status: ('A' for Active; 'I' for Inactive)
REMARK    1  A    between atoms: C_2  and  N_10
REMARK    2  A    between atoms: C_3  and  O_24
REMARK    3  A    between atoms: C_12  and  C_16
REMARK    4  A    between atoms: C_16  and  C_18
REMARK    5  A    between atoms: O_24  and  C_27
REMARK                            x       y       z     vdW  Elec       q    Type
REMARK                         _______ _______ _______ _____ _____    ______ ____
ROOT
ATOM      1  F   UNL     1      35.735 -16.427 -19.555  0.00  0.00    -0.201 F 
ATOM      2  C   UNL     1      34.563 -14.184 -22.168  0.00  0.00    +0.054 C 
ATOM      3  C   UNL     1      35.501 -16.796 -21.887  0.00  0.00    +0.173 C 
ATOM      4  C   UNL     1      34.923 -14.665 -20.908  0.00  0.00    +0.047 C 
ATOM      5  C   UNL     1      34.672 -15.010 -23.286  0.00  0.00    +0.018 C 
ATOM      6  C   UNL     1      35.392 -15.971 -20.768  0.00  0.00    +0.176 C 
ATOM      7  C   UNL     1      35.142 -16.316 -23.146  0.00  0.00    +0.041 C 
ENDROOT
BRANCH   2  10
ATOM      8  O   UNL     1      30.973 -10.310 -20.864  0.00  0.00    -0.274 OA
ATOM      9  O   UNL     1      32.230 -12.805 -20.875  0.00  0.00    -0.252 OA
ATOM     10  N   UNL     1      34.088 -12.859 -22.311  0.00  0.00    -0.268 N 
ATOM     11  N   UNL     1      32.854 -10.930 -22.095  0.00  0.00    -0.239 N 
ATOM     12  C   UNL     1      31.863 -10.043 -21.666  0.00  0.00    +0.234 C 
ATOM     13  C   UNL     1      32.989 -12.269 -21.679  0.00  0.00    +0.310 C 
ATOM     14  H   UNL     1      34.592 -12.284 -22.932  0.00  0.00    +0.156 HD
ATOM     15  H   UNL     1      33.513 -10.591 -22.744  0.00  0.00    +0.159 HD
BRANCH  12  16
ATOM     16  C   UNL     1      32.021  -8.683 -22.321  0.00  0.00    +0.112 C 
BRANCH  16  18
ATOM     17  F   UNL     1      32.490  -4.463 -18.617  0.00  0.00    -0.204 F 
ATOM     18  C   UNL     1      32.146  -7.556 -21.330  0.00  0.00    -0.013 C 
ATOM     19  C   UNL     1      31.517  -6.337 -21.580  0.00  0.00    -0.001 C 
ATOM     20  C   UNL     1      32.891  -7.730 -20.164  0.00  0.00    -0.001 C 
ATOM     21  C   UNL     1      31.633  -5.291 -20.663  0.00  0.00    +0.029 C 
ATOM     22  C   UNL     1      33.008  -6.685 -19.248  0.00  0.00    +0.029 C 
ATOM     23  C   UNL     1      32.379  -5.466 -19.497  0.00  0.00    +0.140 C 
ENDBRANCH  16  18
ENDBRANCH  12  16
ENDBRANCH   2  10
BRANCH   3  24
ATOM     24  O   UNL     1      35.960 -18.070 -21.750  0.00  0.00    -0.451 OA
BRANCH  24  27
ATOM     25  N   UNL     1      33.917 -20.599 -19.124  0.00  0.00    -0.229 NA
ATOM     26  N   UNL     1      35.990 -21.203 -18.116  0.00  0.00    -0.343 N 
ATOM     27  C   UNL     1      35.284 -18.909 -20.880  0.00  0.00    +0.150 C 
ATOM     28  C   UNL     1      35.985 -19.640 -19.928  0.00  0.00    +0.071 C 
ATOM     29  C   UNL     1      33.900 -19.022 -20.955  0.00  0.00    +0.058 C 
ATOM     30  C   UNL     1      35.261 -20.464 -19.081  0.00  0.00    +0.128 C 
ATOM     31  C   UNL     1      33.269 -19.873 -20.062  0.00  0.00    +0.103 C 
ATOM     32  H   UNL     1      35.516 -21.800 -17.493  0.00  0.00    +0.144 HD
ATOM     33  H   UNL     1      36.969 -21.118 -18.068  0.00  0.00    +0.144 HD
ENDBRANCH  24  27
ENDBRANCH   3  24
TORSDOF 5
ENDMDL
MODEL 8
REMARK VINA RESULT:     -11.6      3.471     10.657
REMARK  Name = 17748441
REMARK  5 active torsions:
REMARK  status: ('A' for Active; 'I' for Inactive)
REMARK    1  A    between atoms: C_2  and  N_10
REMARK    2  A    between atoms: C_3  and  O_24
REMARK    3  A    between atoms: C_12  and  C_16
REMARK    4  A    between atoms: C_16  and  C_18
REMARK    5  A    between atoms: O_24  and  C_27
REMARK                            x       y       z     vdW  Elec       q    Type
REMARK                         _______ _______ _______ _____ _____    ______ ____
ROOT
ATOM      1  F   UNL     1      36.724 -21.564 -17.914  0.00  0.00    -0.201 F 
ATOM      2  C   UNL     1      34.729 -19.391 -20.042  0.00  0.00    +0.054 C 
ATOM      3  C   UNL     1      34.445 -21.732 -18.552  0.00  0.00    +0.173 C 
ATOM      4  C   UNL     1      35.817 -19.906 -19.337  0.00  0.00    +0.047 C 
ATOM      5  C   UNL     1      33.499 -20.048 -20.002  0.00  0.00    +0.018 C 
ATOM      6  C   UNL     1      35.674 -21.076 -18.591  0.00  0.00    +0.176 C 
ATOM      7  C   UNL     1      33.357 -21.219 -19.257  0.00  0.00    +0.041 C 
ENDROOT
BRANCH   2  10
ATOM      8  O   UNL     1      34.727 -16.855 -24.855  0.00  0.00    -0.274 OA
ATOM      9  O   UNL     1      34.524 -18.937 -23.003  0.00  0.00    -0.252 OA
ATOM     10  N   UNL     1      34.873 -18.205 -20.799  0.00  0.00    -0.268 N 
ATOM     11  N   UNL     1      34.978 -16.706 -22.541  0.00  0.00    -0.239 N 
ATOM     12  C   UNL     1      34.946 -16.196 -23.842  0.00  0.00    +0.234 C 
ATOM     13  C   UNL     1      34.765 -18.053 -22.185  0.00  0.00    +0.310 C 
ATOM     14  H   UNL     1      35.073 -17.387 -20.287  0.00  0.00    +0.156 HD
ATOM     15  H   UNL     1      35.165 -16.071 -21.811  0.00  0.00    +0.159 HD
BRANCH  12  16
ATOM     16  C   UNL     1      35.220 -14.704 -23.854  0.00  0.00    +0.112 C 
BRANCH  16  18
ATOM     17  F   UNL     1      32.437 -11.889 -19.844  0.00  0.00    -0.204 F 
ATOM     18  C   UNL     1      34.475 -13.953 -22.783  0.00  0.00    -0.013 C 
ATOM     19  C   UNL     1      33.355 -13.192 -23.115  0.00  0.00    -0.001 C 
ATOM     20  C   UNL     1      34.907 -14.016 -21.457  0.00  0.00    -0.001 C 
ATOM     21  C   UNL     1      32.666 -12.495 -22.122  0.00  0.00    +0.029 C 
ATOM     22  C   UNL     1      34.219 -13.319 -20.465  0.00  0.00    +0.029 C 
ATOM     23  C   UNL     1      33.098 -12.558 -20.797  0.00  0.00    +0.140 C 
ENDBRANCH  16  18
ENDBRANCH  12  16
ENDBRANCH   2  10
BRANCH   3  24
ATOM     24  O   UNL     1      34.306 -22.876 -17.826  0.00  0.00    -0.451 OA
BRANCH  24  27
ATOM     25  N   UNL     1      32.724 -22.547 -13.971  0.00  0.00    -0.229 NA
ATOM     26  N   UNL     1      34.904 -22.872 -13.065  0.00  0.00    -0.343 N 
ATOM     27  C   UNL     1      33.782 -22.767 -16.549  0.00  0.00    +0.150 C 
ATOM     28  C   UNL     1      34.615 -22.876 -15.441  0.00  0.00    +0.071 C 
ATOM     29  C   UNL     1      32.421 -22.549 -16.369  0.00  0.00    +0.058 C 
ATOM     30  C   UNL     1      34.042 -22.759 -14.184  0.00  0.00    +0.128 C 
ATOM     31  C   UNL     1      31.946 -22.448 -15.071  0.00  0.00    +0.103 C 
ATOM     32  H   UNL     1      34.540 -22.796 -12.154  0.00  0.00    +0.144 HD
ATOM     33  H   UNL     1      35.867 -23.026 -13.200  0.00  0.00    +0.144 HD
ENDBRANCH  24  27
ENDBRANCH   3  24
TORSDOF 5
ENDMDL
MODEL 9
REMARK VINA RESULT:     -11.2      4.911     11.739
REMARK  Name = 17748441
REMARK  5 active torsions:
REMARK  status: ('A' for Active; 'I' for Inactive)
REMARK    1  A    between atoms: C_2  and  N_10
REMARK    2  A    between atoms: C_3  and  O_24
REMARK    3  A    between atoms: C_12  and  C_16
REMARK    4  A    between atoms: C_16  and  C_18
REMARK    5  A    between atoms: O_24  and  C_27
REMARK                            x       y       z     vdW  Elec       q    Type
REMARK                         _______ _______ _______ _____ _____    ______ ____
ROOT
ATOM      1  F   UNL     1      35.376 -17.123 -23.939  0.00  0.00    -0.201 F 
ATOM      2  C   UNL     1      34.548 -14.427 -21.642  0.00  0.00    +0.054 C 
ATOM      3  C   UNL     1      35.612 -17.005 -21.581  0.00  0.00    +0.173 C 
ATOM      4  C   UNL     1      34.699 -15.148 -22.827  0.00  0.00    +0.047 C 
ATOM      5  C   UNL     1      34.929 -14.996 -20.427  0.00  0.00    +0.018 C 
ATOM      6  C   UNL     1      35.232 -16.437 -22.796  0.00  0.00    +0.176 C 
ATOM      7  C   UNL     1      35.461 -16.285 -20.396  0.00  0.00    +0.041 C 
ENDROOT
BRANCH   2  10
ATOM      8  O   UNL     1      33.643  -9.775 -24.313  0.00  0.00    -0.274 OA
ATOM      9  O   UNL     1      34.548 -12.374 -23.833  0.00  0.00    -0.252 OA
ATOM     10  N   UNL     1      34.008 -13.120 -21.673  0.00  0.00    -0.268 N 
ATOM     11  N   UNL     1      33.387 -11.012 -22.352  0.00  0.00    -0.239 N 
ATOM     12  C   UNL     1      33.232  -9.883 -23.161  0.00  0.00    +0.234 C 
ATOM     13  C   UNL     1      34.039 -12.204 -22.728  0.00  0.00    +0.310 C 
ATOM     14  H   UNL     1      33.557 -12.820 -20.850  0.00  0.00    +0.156 HD
ATOM     15  H   UNL     1      33.010 -10.972 -21.443  0.00  0.00    +0.159 HD
BRANCH  12  16
ATOM     16  C   UNL     1      32.481  -8.784 -22.432  0.00  0.00    +0.112 C 
BRANCH  16  18
ATOM     17  F   UNL     1      30.691 -10.317 -17.314  0.00  0.00    -0.204 F 
ATOM     18  C   UNL     1      32.003  -9.194 -21.064  0.00  0.00    -0.013 C 
ATOM     19  C   UNL     1      31.082 -10.232 -20.930  0.00  0.00    -0.001 C 
ATOM     20  C   UNL     1      32.481  -8.536 -19.931  0.00  0.00    -0.001 C 
ATOM     21  C   UNL     1      30.638 -10.612 -19.663  0.00  0.00    +0.029 C 
ATOM     22  C   UNL     1      32.038  -8.914 -18.665  0.00  0.00    +0.029 C 
ATOM     23  C   UNL     1      31.117  -9.953 -18.530  0.00  0.00    +0.140 C 
ENDBRANCH  16  18
ENDBRANCH  12  16
ENDBRANCH   2  10
BRANCH   3  24
ATOM     24  O   UNL     1      36.130 -18.264 -21.551  0.00  0.00    -0.451 OA
BRANCH  24  27
ATOM     25  N   UNL     1      34.656 -20.899 -18.661  0.00  0.00    -0.229 NA
ATOM     26  N   UNL     1      36.863 -21.175 -17.808  0.00  0.00    -0.343 N 
ATOM     27  C   UNL     1      35.642 -19.137 -20.593  0.00  0.00    +0.150 C 
ATOM     28  C   UNL     1      36.507 -19.722 -19.675  0.00  0.00    +0.071 C 
ATOM     29  C   UNL     1      34.285 -19.433 -20.546  0.00  0.00    +0.058 C 
ATOM     30  C   UNL     1      35.969 -20.588 -18.737  0.00  0.00    +0.128 C 
ATOM     31  C   UNL     1      33.845 -20.313 -19.569  0.00  0.00    +0.103 C 
ATOM     32  H   UNL     1      36.525 -21.797 -17.124  0.00  0.00    +0.144 HD
ATOM     33  H   UNL     1      37.824 -20.961 -17.846  0.00  0.00    +0.144 HD
ENDBRANCH  24  27
ENDBRANCH   3  24
TORSDOF 5
ENDMDL
