MODEL 1
REMARK VINA RESULT:     -12.1      0.000      0.000
REMARK  Name = 5327686
REMARK  3 active torsions:
REMARK  status: ('A' for Active; 'I' for Inactive)
REMARK    1  A    between atoms: C_4  and  C_10
REMARK    2  A    between atoms: C_5  and  C_23
REMARK    3  A    between atoms: C_17  and  N_21
REMARK                            x       y       z     vdW  Elec       q    Type
REMARK                         _______ _______ _______ _____ _____    ______ ____
ROOT
ATOM      1  O   UNL     1      31.847 -22.324 -17.032  0.00  0.00    -0.270 OA
ATOM      2  O   UNL     1      31.809 -24.587 -13.053  0.00  0.00    -0.270 OA
ATOM      3  N   UNL     1      31.441 -23.519 -15.082  0.00  0.00    -0.248 N 
ATOM      4  C   UNL     1      33.590 -22.850 -15.454  0.00  0.00    +0.059 C 
ATOM      5  C   UNL     1      33.577 -23.505 -14.279  0.00  0.00    +0.059 C 
ATOM      6  C   UNL     1      32.205 -22.846 -15.989  0.00  0.00    +0.252 C 
ATOM      7  C   UNL     1      32.183 -23.950 -14.023  0.00  0.00    +0.252 C 
ATOM      8  H   UNL     1      30.473 -23.673 -15.178  0.00  0.00    +0.158 HD
ENDROOT
BRANCH   4  10
ATOM      9  N   UNL     1      36.740 -21.517 -16.583  0.00  0.00    -0.284 N 
ATOM     10  C   UNL     1      34.680 -22.219 -16.132  0.00  0.00    +0.021 C 
ATOM     11  C   UNL     1      34.650 -21.502 -17.363  0.00  0.00    +0.015 C 
ATOM     12  C   UNL     1      35.954 -21.074 -17.623  0.00  0.00    +0.053 C 
ATOM     13  C   UNL     1      35.981 -22.209 -15.678  0.00  0.00    +0.066 C 
ATOM     14  C   UNL     1      33.635 -21.178 -18.284  0.00  0.00    +0.003 C 
ATOM     15  C   UNL     1      36.294 -20.335 -18.761  0.00  0.00    +0.039 C 
ATOM     16  C   UNL     1      38.164 -21.293 -16.450  0.00  0.00    +0.117 C 
ATOM     17  C   UNL     1      35.270 -20.024 -19.660  0.00  0.00    +0.144 C 
ATOM     18  C   UNL     1      33.960 -20.439 -19.428  0.00  0.00    +0.024 C 
BRANCH  17  21
ATOM     19  O   UNL     1      34.729 -19.232 -21.756  0.00  0.00    -0.126 OA
ATOM     20  O   UNL     1      36.670 -18.673 -20.898  0.00  0.00    -0.126 OA
ATOM     21  N   UNL     1      35.571 -19.273 -20.828  0.00  0.00    +0.058 N 
ENDBRANCH  17  21
ENDBRANCH   4  10
BRANCH   5  23
ATOM     22  N   UNL     1      35.919 -23.765 -11.560  0.00  0.00    -0.284 N 
ATOM     23  C   UNL     1      34.655 -23.791 -13.384  0.00  0.00    +0.021 C 
ATOM     24  C   UNL     1      35.778 -24.633 -13.610  0.00  0.00    +0.015 C 
ATOM     25  C   UNL     1      36.556 -24.599 -12.450  0.00  0.00    +0.052 C 
ATOM     26  C   UNL     1      34.770 -23.271 -12.115  0.00  0.00    +0.066 C 
ATOM     27  C   UNL     1      36.210 -25.425 -14.693  0.00  0.00    +0.001 C 
ATOM     28  C   UNL     1      37.749 -25.319 -12.320  0.00  0.00    +0.015 C 
ATOM     29  C   UNL     1      36.386 -23.441 -10.229  0.00  0.00    +0.117 C 
ATOM     30  C   UNL     1      37.401 -26.150 -14.577  0.00  0.00    +0.000 C 
ATOM     31  C   UNL     1      38.157 -26.097 -13.407  0.00  0.00    +0.001 C 
ENDBRANCH   5  23
TORSDOF 3
ENDMDL
MODEL 2
REMARK VINA RESULT:     -11.4      8.629     13.933
REMARK  Name = 5327686
REMARK  3 active torsions:
REMARK  status: ('A' for Active; 'I' for Inactive)
REMARK    1  A    between atoms: C_4  and  C_10
REMARK    2  A    between atoms: C_5  and  C_23
REMARK    3  A    between atoms: C_17  and  N_21
REMARK                            x       y       z     vdW  Elec       q    Type
REMARK                         _______ _______ _______ _____ _____    ______ ____
ROOT
ATOM      1  O   UNL     1      32.059 -13.557 -19.972  0.00  0.00    -0.270 OA
ATOM      2  O   UNL     1      32.115  -9.281 -21.605  0.00  0.00    -0.270 OA
ATOM      3  N   UNL     1      31.856 -11.302 -20.491  0.00  0.00    -0.248 N 
ATOM      4  C   UNL     1      33.139 -12.572 -21.888  0.00  0.00    +0.059 C 
ATOM      5  C   UNL     1      33.146 -11.317 -22.373  0.00  0.00    +0.059 C 
ATOM      6  C   UNL     1      32.299 -12.580 -20.663  0.00  0.00    +0.252 C 
ATOM      7  C   UNL     1      32.316 -10.476 -21.473  0.00  0.00    +0.252 C 
ATOM      8  H   UNL     1      31.275 -11.012 -19.751  0.00  0.00    +0.158 HD
ENDROOT
BRANCH   4  10
ATOM      9  N   UNL     1      34.481 -15.287 -23.836  0.00  0.00    -0.284 N 
ATOM     10  C   UNL     1      33.770 -13.749 -22.397  0.00  0.00    +0.021 C 
ATOM     11  C   UNL     1      34.481 -14.747 -21.671  0.00  0.00    +0.015 C 
ATOM     12  C   UNL     1      34.917 -15.699 -22.596  0.00  0.00    +0.053 C 
ATOM     13  C   UNL     1      33.789 -14.111 -23.726  0.00  0.00    +0.066 C 
ATOM     14  C   UNL     1      34.797 -14.931 -20.310  0.00  0.00    +0.003 C 
ATOM     15  C   UNL     1      35.655 -16.829 -22.227  0.00  0.00    +0.039 C 
ATOM     16  C   UNL     1      34.714 -15.984 -25.083  0.00  0.00    +0.117 C 
ATOM     17  C   UNL     1      35.955 -16.991 -20.872  0.00  0.00    +0.144 C 
ATOM     18  C   UNL     1      35.535 -16.057 -19.927  0.00  0.00    +0.024 C 
BRANCH  17  21
ATOM     19  O   UNL     1      37.875 -18.268 -20.870  0.00  0.00    -0.126 OA
ATOM     20  O   UNL     1      36.164 -18.953 -19.679  0.00  0.00    -0.126 OA
ATOM     21  N   UNL     1      36.701 -18.125 -20.453  0.00  0.00    +0.058 N 
ENDBRANCH  17  21
ENDBRANCH   4  10
BRANCH   5  23
ATOM     22  N   UNL     1      34.619 -10.635 -25.585  0.00  0.00    -0.284 N 
ATOM     23  C   UNL     1      33.816 -10.789 -23.522  0.00  0.00    +0.021 C 
ATOM     24  C   UNL     1      34.485  -9.541 -23.645  0.00  0.00    +0.015 C 
ATOM     25  C   UNL     1      34.980  -9.469 -24.950  0.00  0.00    +0.052 C 
ATOM     26  C   UNL     1      33.916 -11.440 -24.730  0.00  0.00    +0.066 C 
ATOM     27  C   UNL     1      34.718  -8.460 -22.771  0.00  0.00    +0.001 C 
ATOM     28  C   UNL     1      35.700  -8.366 -25.424  0.00  0.00    +0.015 C 
ATOM     29  C   UNL     1      34.935 -10.979 -26.954  0.00  0.00    +0.117 C 
ATOM     30  C   UNL     1      35.436  -7.351 -23.232  0.00  0.00    +0.000 C 
ATOM     31  C   UNL     1      35.919  -7.307 -24.539  0.00  0.00    +0.001 C 
ENDBRANCH   5  23
TORSDOF 3
ENDMDL
MODEL 3
REMARK VINA RESULT:     -11.3      0.826      2.012
REMARK  Name = 5327686
REMARK  3 active torsions:
REMARK  status: ('A' for Active; 'I' for Inactive)
REMARK    1  A    between atoms: C_4  and  C_10
REMARK    2  A    between atoms: C_5  and  C_23
REMARK    3  A    between atoms: C_17  and  N_21
REMARK                            x       y       z     vdW  Elec       q    Type
REMARK                         _______ _______ _______ _____ _____    ______ ____
ROOT
ATOM      1  O   UNL     1      31.688 -21.836 -16.726  0.00  0.00    -0.270 OA
ATOM      2  O   UNL     1      32.207 -24.947 -13.408  0.00  0.00    -0.270 OA
ATOM      3  N   UNL     1      31.556 -23.423 -15.035  0.00  0.00    -0.248 N 
ATOM      4  C   UNL     1      33.646 -22.804 -15.709  0.00  0.00    +0.059 C 
ATOM      5  C   UNL     1      33.798 -23.710 -14.726  0.00  0.00    +0.059 C 
ATOM      6  C   UNL     1      32.190 -22.602 -15.920  0.00  0.00    +0.252 C 
ATOM      7  C   UNL     1      32.445 -24.126 -14.278  0.00  0.00    +0.252 C 
ATOM      8  H   UNL     1      30.577 -23.498 -14.952  0.00  0.00    +0.158 HD
ENDROOT
BRANCH   4  10
ATOM      9  N   UNL     1      36.604 -21.231 -17.032  0.00  0.00    -0.284 N 
ATOM     10  C   UNL     1      34.638 -22.094 -16.455  0.00  0.00    +0.021 C 
ATOM     11  C   UNL     1      34.477 -21.397 -17.687  0.00  0.00    +0.015 C 
ATOM     12  C   UNL     1      35.725 -20.866 -18.026  0.00  0.00    +0.053 C 
ATOM     13  C   UNL     1      35.958 -21.972 -16.079  0.00  0.00    +0.066 C 
ATOM     14  C   UNL     1      33.387 -21.168 -18.549  0.00  0.00    +0.003 C 
ATOM     15  C   UNL     1      35.935 -20.116 -19.188  0.00  0.00    +0.039 C 
ATOM     16  C   UNL     1      38.010 -20.889 -16.985  0.00  0.00    +0.117 C 
ATOM     17  C   UNL     1      34.838 -19.900 -20.027  0.00  0.00    +0.144 C 
ATOM     18  C   UNL     1      33.583 -20.418 -19.715  0.00  0.00    +0.024 C 
BRANCH  17  21
ATOM     19  O   UNL     1      36.118 -18.606 -21.442  0.00  0.00    -0.126 OA
ATOM     20  O   UNL     1      34.040 -19.028 -22.006  0.00  0.00    -0.126 OA
ATOM     21  N   UNL     1      35.007 -19.142 -21.216  0.00  0.00    +0.058 N 
ENDBRANCH  17  21
ENDBRANCH   4  10
BRANCH   5  23
ATOM     22  N   UNL     1      36.850 -25.456 -13.962  0.00  0.00    -0.284 N 
ATOM     23  C   UNL     1      34.997 -24.252 -14.165  0.00  0.00    +0.021 C 
ATOM     24  C   UNL     1      35.579 -23.961 -12.901  0.00  0.00    +0.015 C 
ATOM     25  C   UNL     1      36.741 -24.730 -12.798  0.00  0.00    +0.052 C 
ATOM     26  C   UNL     1      35.801 -25.175 -14.795  0.00  0.00    +0.066 C 
ATOM     27  C   UNL     1      35.229 -23.114 -11.830  0.00  0.00    +0.001 C 
ATOM     28  C   UNL     1      37.572 -24.695 -11.672  0.00  0.00    +0.015 C 
ATOM     29  C   UNL     1      37.910 -26.391 -14.273  0.00  0.00    +0.117 C 
ATOM     30  C   UNL     1      36.052 -23.069 -10.698  0.00  0.00    +0.000 C 
ATOM     31  C   UNL     1      37.205 -23.848 -10.623  0.00  0.00    +0.001 C 
ENDBRANCH   5  23
TORSDOF 3
ENDMDL
MODEL 4
REMARK VINA RESULT:     -11.0      9.769     14.723
REMARK  Name = 5327686
REMARK  3 active torsions:
REMARK  status: ('A' for Active; 'I' for Inactive)
REMARK    1  A    between atoms: C_4  and  C_10
REMARK    2  A    between atoms: C_5  and  C_23
REMARK    3  A    between atoms: C_17  and  N_21
REMARK                            x       y       z     vdW  Elec       q    Type
REMARK                         _______ _______ _______ _____ _____    ______ ____
ROOT
ATOM      1  O   UNL     1      31.482 -12.635 -19.529  0.00  0.00    -0.270 OA
ATOM      2  O   UNL     1      31.892  -8.116 -20.140  0.00  0.00    -0.270 OA
ATOM      3  N   UNL     1      31.469 -10.312 -19.513  0.00  0.00    -0.248 N 
ATOM      4  C   UNL     1      32.627 -11.326 -21.197  0.00  0.00    +0.059 C 
ATOM      5  C   UNL     1      32.738  -9.998 -21.382  0.00  0.00    +0.059 C 
ATOM      6  C   UNL     1      31.799 -11.548 -19.984  0.00  0.00    +0.252 C 
ATOM      7  C   UNL     1      31.991  -9.323 -20.291  0.00  0.00    +0.252 C 
ATOM      8  H   UNL     1      30.920 -10.154 -18.710  0.00  0.00    +0.158 HD
ENDROOT
BRANCH   4  10
ATOM      9  N   UNL     1      33.642 -13.661 -23.744  0.00  0.00    -0.284 N 
ATOM     10  C   UNL     1      33.152 -12.401 -21.979  0.00  0.00    +0.021 C 
ATOM     11  C   UNL     1      33.893 -13.533 -21.531  0.00  0.00    +0.015 C 
ATOM     12  C   UNL     1      34.188 -14.305 -22.657  0.00  0.00    +0.053 C 
ATOM     13  C   UNL     1      33.015 -12.512 -23.346  0.00  0.00    +0.066 C 
ATOM     14  C   UNL     1      34.343 -13.973 -20.270  0.00  0.00    +0.003 C 
ATOM     15  C   UNL     1      34.913 -15.500 -22.584  0.00  0.00    +0.039 C 
ATOM     16  C   UNL     1      33.713 -14.119 -25.115  0.00  0.00    +0.117 C 
ATOM     17  C   UNL     1      35.348 -15.917 -21.323  0.00  0.00    +0.144 C 
ATOM     18  C   UNL     1      35.070 -15.166 -20.182  0.00  0.00    +0.024 C 
BRANCH  17  21
ATOM     19  O   UNL     1      36.624 -17.611 -22.226  0.00  0.00    -0.126 OA
ATOM     20  O   UNL     1      36.178 -17.671 -20.078  0.00  0.00    -0.126 OA
ATOM     21  N   UNL     1      36.086 -17.125 -21.203  0.00  0.00    +0.058 N 
ENDBRANCH  17  21
ENDBRANCH   4  10
BRANCH   5  23
ATOM     22  N   UNL     1      34.968  -8.778 -23.929  0.00  0.00    -0.284 N 
ATOM     23  C   UNL     1      33.442  -9.276 -22.397  0.00  0.00    +0.021 C 
ATOM     24  C   UNL     1      33.125  -8.002 -22.942  0.00  0.00    +0.015 C 
ATOM     25  C   UNL     1      34.098  -7.713 -23.902  0.00  0.00    +0.052 C 
ATOM     26  C   UNL     1      34.581  -9.728 -23.023  0.00  0.00    +0.066 C 
ATOM     27  C   UNL     1      32.099  -7.063 -22.712  0.00  0.00    +0.001 C 
ATOM     28  C   UNL     1      34.097  -6.527 -24.645  0.00  0.00    +0.015 C 
ATOM     29  C   UNL     1      36.132  -8.892 -24.782  0.00  0.00    +0.117 C 
ATOM     30  C   UNL     1      32.086  -5.873 -23.448  0.00  0.00    +0.000 C 
ATOM     31  C   UNL     1      33.070  -5.611 -24.399  0.00  0.00    +0.001 C 
ENDBRANCH   5  23
TORSDOF 3
ENDMDL
MODEL 5
REMARK VINA RESULT:     -10.9     10.443     14.217
REMARK  Name = 5327686
REMARK  3 active torsions:
REMARK  status: ('A' for Active; 'I' for Inactive)
REMARK    1  A    between atoms: C_4  and  C_10
REMARK    2  A    between atoms: C_5  and  C_23
REMARK    3  A    between atoms: C_17  and  N_21
REMARK                            x       y       z     vdW  Elec       q    Type
REMARK                         _______ _______ _______ _____ _____    ______ ____
ROOT
ATOM      1  O   UNL     1      31.732  -9.120 -19.708  0.00  0.00    -0.270 OA
ATOM      2  O   UNL     1      31.797 -13.695 -19.564  0.00  0.00    -0.270 OA
ATOM      3  N   UNL     1      31.560 -11.400 -19.300  0.00  0.00    -0.248 N 
ATOM      4  C   UNL     1      32.669 -10.771 -21.192  0.00  0.00    +0.059 C 
ATOM      5  C   UNL     1      32.698 -12.115 -21.143  0.00  0.00    +0.059 C 
ATOM      6  C   UNL     1      31.935 -10.289 -19.995  0.00  0.00    +0.252 C 
ATOM      7  C   UNL     1      31.976 -12.542 -19.917  0.00  0.00    +0.252 C 
ATOM      8  H   UNL     1      31.053 -11.381 -18.456  0.00  0.00    +0.158 HD
ENDROOT
BRANCH   4  10
ATOM      9  N   UNL     1      34.629  -9.054 -23.678  0.00  0.00    -0.284 N 
ATOM     10  C   UNL     1      33.233  -9.883 -22.160  0.00  0.00    +0.021 C 
ATOM     11  C   UNL     1      32.719  -8.631 -22.606  0.00  0.00    +0.015 C 
ATOM     12  C   UNL     1      33.613  -8.134 -23.558  0.00  0.00    +0.053 C 
ATOM     13  C   UNL     1      34.409 -10.113 -22.839  0.00  0.00    +0.066 C 
ATOM     14  C   UNL     1      31.574  -7.873 -22.291  0.00  0.00    +0.003 C 
ATOM     15  C   UNL     1      33.418  -6.912 -24.211  0.00  0.00    +0.039 C 
ATOM     16  C   UNL     1      35.771  -8.935 -24.559  0.00  0.00    +0.117 C 
ATOM     17  C   UNL     1      32.276  -6.177 -23.881  0.00  0.00    +0.144 C 
ATOM     18  C   UNL     1      31.366  -6.649 -22.937  0.00  0.00    +0.024 C 
BRANCH  17  21
ATOM     19  O   UNL     1      31.205  -4.140 -24.018  0.00  0.00    -0.126 OA
ATOM     20  O   UNL     1      32.674  -4.654 -25.566  0.00  0.00    -0.126 OA
ATOM     21  N   UNL     1      32.040  -4.930 -24.519  0.00  0.00    +0.058 N 
ENDBRANCH  17  21
ENDBRANCH   4  10
BRANCH   5  23
ATOM     22  N   UNL     1      33.775 -14.052 -23.978  0.00  0.00    -0.284 N 
ATOM     23  C   UNL     1      33.270 -13.048 -22.065  0.00  0.00    +0.021 C 
ATOM     24  C   UNL     1      34.119 -14.151 -21.777  0.00  0.00    +0.015 C 
ATOM     25  C   UNL     1      34.422 -14.765 -22.995  0.00  0.00    +0.052 C 
ATOM     26  C   UNL     1      33.075 -13.013 -23.427  0.00  0.00    +0.066 C 
ATOM     27  C   UNL     1      34.663 -14.689 -20.593  0.00  0.00    +0.001 C 
ATOM     28  C   UNL     1      35.243 -15.894 -23.088  0.00  0.00    +0.015 C 
ATOM     29  C   UNL     1      33.813 -14.349 -25.394  0.00  0.00    +0.117 C 
ATOM     30  C   UNL     1      35.486 -15.819 -20.671  0.00  0.00    +0.000 C 
ATOM     31  C   UNL     1      35.770 -16.410 -21.901  0.00  0.00    +0.001 C 
ENDBRANCH   5  23
TORSDOF 3
ENDMDL
MODEL 6
REMARK VINA RESULT:     -10.5     12.523     16.307
REMARK  Name = 5327686
REMARK  3 active torsions:
REMARK  status: ('A' for Active; 'I' for Inactive)
REMARK    1  A    between atoms: C_4  and  C_10
REMARK    2  A    between atoms: C_5  and  C_23
REMARK    3  A    between atoms: C_17  and  N_21
REMARK                            x       y       z     vdW  Elec       q    Type
REMARK                         _______ _______ _______ _____ _____    ______ ____
ROOT
ATOM      1  O   UNL     1      35.122  -7.453 -24.763  0.00  0.00    -0.270 OA
ATOM      2  O   UNL     1      34.241 -11.911 -24.201  0.00  0.00    -0.270 OA
ATOM      3  N   UNL     1      34.893  -9.765 -24.804  0.00  0.00    -0.248 N 
ATOM      4  C   UNL     1      33.865  -8.655 -23.096  0.00  0.00    +0.059 C 
ATOM      5  C   UNL     1      33.597  -9.964 -22.937  0.00  0.00    +0.059 C 
ATOM      6  C   UNL     1      34.706  -8.508 -24.311  0.00  0.00    +0.252 C 
ATOM      7  C   UNL     1      34.262 -10.702 -24.041  0.00  0.00    +0.252 C 
ATOM      8  H   UNL     1      35.417  -9.971 -25.612  0.00  0.00    +0.158 HD
ENDROOT
BRANCH   4  10
ATOM      9  N   UNL     1      33.032  -6.264 -20.534  0.00  0.00    -0.284 N 
ATOM     10  C   UNL     1      33.445  -7.538 -22.308  0.00  0.00    +0.021 C 
ATOM     11  C   UNL     1      32.885  -6.309 -22.760  0.00  0.00    +0.015 C 
ATOM     12  C   UNL     1      32.636  -5.528 -21.628  0.00  0.00    +0.053 C 
ATOM     13  C   UNL     1      33.522  -7.479 -20.934  0.00  0.00    +0.066 C 
ATOM     14  C   UNL     1      32.566  -5.783 -24.028  0.00  0.00    +0.003 C 
ATOM     15  C   UNL     1      32.083  -4.245 -21.702  0.00  0.00    +0.039 C 
ATOM     16  C   UNL     1      32.950  -5.832 -19.155  0.00  0.00    +0.117 C 
ATOM     17  C   UNL     1      31.774  -3.746 -22.970  0.00  0.00    +0.144 C 
ATOM     18  C   UNL     1      32.012  -4.501 -24.117  0.00  0.00    +0.024 C 
BRANCH  17  21
ATOM     19  O   UNL     1      31.425  -1.786 -24.133  0.00  0.00    -0.126 OA
ATOM     20  O   UNL     1      30.510  -2.001 -22.150  0.00  0.00    -0.126 OA
ATOM     21  N   UNL     1      31.209  -2.448 -23.090  0.00  0.00    +0.058 N 
ENDBRANCH  17  21
ENDBRANCH   4  10
BRANCH   5  23
ATOM     22  N   UNL     1      31.242 -11.024 -20.432  0.00  0.00    -0.284 N 
ATOM     23  C   UNL     1      32.843 -10.622 -21.915  0.00  0.00    +0.021 C 
ATOM     24  C   UNL     1      33.130 -11.860 -21.277  0.00  0.00    +0.015 C 
ATOM     25  C   UNL     1      32.109 -12.089 -20.351  0.00  0.00    +0.052 C 
ATOM     26  C   UNL     1      31.676 -10.131 -21.374  0.00  0.00    +0.066 C 
ATOM     27  C   UNL     1      34.162 -12.812 -21.399  0.00  0.00    +0.001 C 
ATOM     28  C   UNL     1      32.070 -13.228 -19.537  0.00  0.00    +0.015 C 
ATOM     29  C   UNL     1      30.043 -10.855 -19.640  0.00  0.00    +0.117 C 
ATOM     30  C   UNL     1      34.135 -13.954 -20.592  0.00  0.00    +0.000 C 
ATOM     31  C   UNL     1      33.105 -14.158 -19.676  0.00  0.00    +0.001 C 
ENDBRANCH   5  23
TORSDOF 3
ENDMDL
MODEL 7
REMARK VINA RESULT:     -10.4     12.111     16.080
REMARK  Name = 5327686
REMARK  3 active torsions:
REMARK  status: ('A' for Active; 'I' for Inactive)
REMARK    1  A    between atoms: C_4  and  C_10
REMARK    2  A    between atoms: C_5  and  C_23
REMARK    3  A    between atoms: C_17  and  N_21
REMARK                            x       y       z     vdW  Elec       q    Type
REMARK                         _______ _______ _______ _____ _____    ______ ____
ROOT
ATOM      1  O   UNL     1      31.350 -11.173 -19.375  0.00  0.00    -0.270 OA
ATOM      2  O   UNL     1      33.582 -13.971 -22.229  0.00  0.00    -0.270 OA
ATOM      3  N   UNL     1      32.399 -12.874 -20.559  0.00  0.00    -0.248 N 
ATOM      4  C   UNL     1      32.429 -10.794 -21.495  0.00  0.00    +0.059 C 
ATOM      5  C   UNL     1      33.095 -11.614 -22.329  0.00  0.00    +0.059 C 
ATOM      6  C   UNL     1      31.972 -11.599 -20.334  0.00  0.00    +0.252 C 
ATOM      7  C   UNL     1      33.082 -12.975 -21.734  0.00  0.00    +0.252 C 
ATOM      8  H   UNL     1      32.236 -13.629 -19.947  0.00  0.00    +0.158 HD
ENDROOT
BRANCH   4  10
ATOM      9  N   UNL     1      31.562  -7.437 -22.471  0.00  0.00    -0.284 N 
ATOM     10  C   UNL     1      32.177  -9.391 -21.608  0.00  0.00    +0.021 C 
ATOM     11  C   UNL     1      32.389  -8.380 -20.626  0.00  0.00    +0.015 C 
ATOM     12  C   UNL     1      31.995  -7.166 -21.193  0.00  0.00    +0.053 C 
ATOM     13  C   UNL     1      31.668  -8.777 -22.731  0.00  0.00    +0.066 C 
ATOM     14  C   UNL     1      32.879  -8.384 -19.305  0.00  0.00    +0.003 C 
ATOM     15  C   UNL     1      32.067  -5.951 -20.502  0.00  0.00    +0.039 C 
ATOM     16  C   UNL     1      31.064  -6.459 -23.416  0.00  0.00    +0.117 C 
ATOM     17  C   UNL     1      32.557  -5.980 -19.193  0.00  0.00    +0.144 C 
ATOM     18  C   UNL     1      32.956  -7.176 -18.601  0.00  0.00    +0.024 C 
BRANCH  17  21
ATOM     19  O   UNL     1      32.732  -3.684 -19.078  0.00  0.00    -0.126 OA
ATOM     20  O   UNL     1      32.644  -4.819 -17.202  0.00  0.00    -0.126 OA
ATOM     21  N   UNL     1      32.648  -4.769 -18.456  0.00  0.00    +0.058 N 
ENDBRANCH  17  21
ENDBRANCH   4  10
BRANCH   5  23
ATOM     22  N   UNL     1      34.329 -11.537 -25.708  0.00  0.00    -0.284 N 
ATOM     23  C   UNL     1      33.713 -11.327 -23.586  0.00  0.00    +0.021 C 
ATOM     24  C   UNL     1      34.523 -10.209 -23.926  0.00  0.00    +0.015 C 
ATOM     25  C   UNL     1      34.896 -10.365 -25.264  0.00  0.00    +0.052 C 
ATOM     26  C   UNL     1      33.613 -12.127 -24.702  0.00  0.00    +0.066 C 
ATOM     27  C   UNL     1      34.976  -9.074 -23.223  0.00  0.00    +0.001 C 
ATOM     28  C   UNL     1      35.703  -9.439 -25.935  0.00  0.00    +0.015 C 
ATOM     29  C   UNL     1      34.465 -12.084 -27.040  0.00  0.00    +0.117 C 
ATOM     30  C   UNL     1      35.783  -8.140 -23.883  0.00  0.00    +0.000 C 
ATOM     31  C   UNL     1      36.140  -8.322 -25.218  0.00  0.00    +0.001 C 
ENDBRANCH   5  23
TORSDOF 3
ENDMDL
MODEL 8
REMARK VINA RESULT:     -10.3     10.196     14.301
REMARK  Name = 5327686
REMARK  3 active torsions:
REMARK  status: ('A' for Active; 'I' for Inactive)
REMARK    1  A    between atoms: C_4  and  C_10
REMARK    2  A    between atoms: C_5  and  C_23
REMARK    3  A    between atoms: C_17  and  N_21
REMARK                            x       y       z     vdW  Elec       q    Type
REMARK                         _______ _______ _______ _____ _____    ______ ____
ROOT
ATOM      1  O   UNL     1      34.325 -10.651 -26.850  0.00  0.00    -0.270 OA
ATOM      2  O   UNL     1      33.207 -14.620 -24.863  0.00  0.00    -0.270 OA
ATOM      3  N   UNL     1      33.752 -12.809 -26.210  0.00  0.00    -0.248 N 
ATOM      4  C   UNL     1      34.007 -11.271 -24.544  0.00  0.00    +0.059 C 
ATOM      5  C   UNL     1      33.667 -12.435 -23.961  0.00  0.00    +0.059 C 
ATOM      6  C   UNL     1      34.063 -11.497 -26.011  0.00  0.00    +0.252 C 
ATOM      7  C   UNL     1      33.500 -13.449 -25.033  0.00  0.00    +0.252 C 
ATOM      8  H   UNL     1      33.713 -13.241 -27.094  0.00  0.00    +0.158 HD
ENDROOT
BRANCH   4  10
ATOM      9  N   UNL     1      35.338  -8.149 -23.340  0.00  0.00    -0.284 N 
ATOM     10  C   UNL     1      34.263  -9.996 -23.949  0.00  0.00    +0.021 C 
ATOM     11  C   UNL     1      33.367  -9.184 -23.195  0.00  0.00    +0.015 C 
ATOM     12  C   UNL     1      34.066  -8.032 -22.826  0.00  0.00    +0.053 C 
ATOM     13  C   UNL     1      35.467  -9.330 -24.019  0.00  0.00    +0.066 C 
ATOM     14  C   UNL     1      32.024  -9.320 -22.792  0.00  0.00    +0.003 C 
ATOM     15  C   UNL     1      33.486  -7.007 -22.072  0.00  0.00    +0.039 C 
ATOM     16  C   UNL     1      36.396  -7.172 -23.193  0.00  0.00    +0.117 C 
ATOM     17  C   UNL     1      32.153  -7.164 -21.683  0.00  0.00    +0.144 C 
ATOM     18  C   UNL     1      31.431  -8.302 -22.037  0.00  0.00    +0.024 C 
BRANCH  17  21
ATOM     19  O   UNL     1      30.713  -5.375 -21.475  0.00  0.00    -0.126 OA
ATOM     20  O   UNL     1      31.803  -6.051 -19.694  0.00  0.00    -0.126 OA
ATOM     21  N   UNL     1      31.526  -6.147 -20.913  0.00  0.00    +0.058 N 
ENDBRANCH  17  21
ENDBRANCH   4  10
BRANCH   5  23
ATOM     22  N   UNL     1      32.760 -12.632 -20.484  0.00  0.00    -0.284 N 
ATOM     23  C   UNL     1      33.497 -12.744 -22.575  0.00  0.00    +0.021 C 
ATOM     24  C   UNL     1      34.126 -13.776 -21.826  0.00  0.00    +0.015 C 
ATOM     25  C   UNL     1      33.646 -13.684 -20.517  0.00  0.00    +0.052 C 
ATOM     26  C   UNL     1      32.663 -12.056 -21.723  0.00  0.00    +0.066 C 
ATOM     27  C   UNL     1      35.060 -14.785 -22.137  0.00  0.00    +0.001 C 
ATOM     28  C   UNL     1      34.056 -14.554 -19.500  0.00  0.00    +0.015 C 
ATOM     29  C   UNL     1      32.032 -12.182 -19.318  0.00  0.00    +0.117 C 
ATOM     30  C   UNL     1      35.479 -15.661 -21.129  0.00  0.00    +0.000 C 
ATOM     31  C   UNL     1      34.983 -15.546 -19.831  0.00  0.00    +0.001 C 
ENDBRANCH   5  23
TORSDOF 3
ENDMDL
MODEL 9
REMARK VINA RESULT:     -10.2     10.339     14.453
REMARK  Name = 5327686
REMARK  3 active torsions:
REMARK  status: ('A' for Active; 'I' for Inactive)
REMARK    1  A    between atoms: C_4  and  C_10
REMARK    2  A    between atoms: C_5  and  C_23
REMARK    3  A    between atoms: C_17  and  N_21
REMARK                            x       y       z     vdW  Elec       q    Type
REMARK                         _______ _______ _______ _____ _____    ______ ____
ROOT
ATOM      1  O   UNL     1      34.818 -11.287 -25.796  0.00  0.00    -0.270 OA
ATOM      2  O   UNL     1      32.606  -7.646 -24.119  0.00  0.00    -0.270 OA
ATOM      3  N   UNL     1      33.761  -9.278 -25.300  0.00  0.00    -0.248 N 
ATOM      4  C   UNL     1      33.802 -10.857 -23.653  0.00  0.00    +0.059 C 
ATOM      5  C   UNL     1      33.162  -9.783 -23.157  0.00  0.00    +0.059 C 
ATOM      6  C   UNL     1      34.203 -10.544 -25.049  0.00  0.00    +0.252 C 
ATOM      7  C   UNL     1      33.124  -8.746 -24.219  0.00  0.00    +0.252 C 
ATOM      8  H   UNL     1      33.887  -8.808 -26.156  0.00  0.00    +0.158 HD
ENDROOT
BRANCH   4  10
ATOM      9  N   UNL     1      34.720 -13.570 -21.470  0.00  0.00    -0.284 N 
ATOM     10  C   UNL     1      34.109 -12.104 -23.025  0.00  0.00    +0.021 C 
ATOM     11  C   UNL     1      34.054 -13.410 -23.593  0.00  0.00    +0.015 C 
ATOM     12  C   UNL     1      34.441 -14.310 -22.597  0.00  0.00    +0.053 C 
ATOM     13  C   UNL     1      34.523 -12.238 -21.718  0.00  0.00    +0.066 C 
ATOM     14  C   UNL     1      33.709 -13.912 -24.863  0.00  0.00    +0.003 C 
ATOM     15  C   UNL     1      34.500 -15.691 -22.809  0.00  0.00    +0.039 C 
ATOM     16  C   UNL     1      35.158 -14.108 -20.199  0.00  0.00    +0.117 C 
ATOM     17  C   UNL     1      34.154 -16.167 -24.077  0.00  0.00    +0.144 C 
ATOM     18  C   UNL     1      33.764 -15.293 -25.090  0.00  0.00    +0.024 C 
BRANCH  17  21
ATOM     19  O   UNL     1      33.555 -18.023 -25.306  0.00  0.00    -0.126 OA
ATOM     20  O   UNL     1      34.892 -18.296 -23.587  0.00  0.00    -0.126 OA
ATOM     21  N   UNL     1      34.203 -17.563 -24.336  0.00  0.00    +0.058 N 
ENDBRANCH  17  21
ENDBRANCH   4  10
BRANCH   5  23
ATOM     22  N   UNL     1      31.362  -9.964 -20.047  0.00  0.00    -0.284 N 
ATOM     23  C   UNL     1      32.573  -9.589 -21.868  0.00  0.00    +0.021 C 
ATOM     24  C   UNL     1      32.739  -8.484 -20.989  0.00  0.00    +0.015 C 
ATOM     25  C   UNL     1      31.969  -8.745 -19.853  0.00  0.00    +0.052 C 
ATOM     26  C   UNL     1      31.720 -10.483 -21.262  0.00  0.00    +0.066 C 
ATOM     27  C   UNL     1      33.475  -7.283 -21.049  0.00  0.00    +0.001 C 
ATOM     28  C   UNL     1      31.896  -7.860 -18.771  0.00  0.00    +0.015 C 
ATOM     29  C   UNL     1      30.468 -10.616 -19.114  0.00  0.00    +0.117 C 
ATOM     30  C   UNL     1      33.411  -6.389 -19.974  0.00  0.00    +0.000 C 
ATOM     31  C   UNL     1      32.633  -6.675 -18.853  0.00  0.00    +0.001 C 
ENDBRANCH   5  23
TORSDOF 3
ENDMDL
