MODEL 1
REMARK VINA RESULT:     -11.9      0.000      0.000
REMARK  Name = 46937134
REMARK  9 active torsions:
REMARK  status: ('A' for Active; 'I' for Inactive)
REMARK    1  A    between atoms: N_2  and  C_15
REMARK    2  A    between atoms: N_6  and  C_29
REMARK    3  A    between atoms: C_16  and  O_19
REMARK    4  A    between atoms: C_18  and  C_21
REMARK    5  A    between atoms: C_21  and  O_22
REMARK    6  A    between atoms: O_22  and  P_23
REMARK    7  A    between atoms: P_23  and  O_25
REMARK    8  A    between atoms: P_23  and  O_27
REMARK    9  A    between atoms: C_29  and  C_30
REMARK                            x       y       z     vdW  Elec       q    Type
REMARK                         _______ _______ _______ _____ _____    ______ ____
ROOT
ATOM      1  O   UNL     1      34.369 -19.329 -24.745  0.00  0.00    -0.208 OA
ATOM      2  N   UNL     1      34.474 -14.890 -23.900  0.00  0.00    -0.209 NA
ATOM      3  N   UNL     1      35.456 -16.345 -22.217  0.00  0.00    -0.279 N 
ATOM      4  N   UNL     1      33.845 -16.490 -25.343  0.00  0.00    -0.241 NA
ATOM      5  N   UNL     1      35.354 -18.684 -22.749  0.00  0.00    -0.301 NA
ATOM      6  N   UNL     1      36.320 -17.897 -20.774  0.00  0.00    -0.292 N 
ATOM      7  C   UNL     1      34.838 -16.080 -23.371  0.00  0.00    +0.191 C 
ATOM      8  C   UNL     1      33.873 -15.191 -25.102  0.00  0.00    +0.205 C 
ATOM      9  C   UNL     1      34.453 -17.047 -24.253  0.00  0.00    +0.183 C 
ATOM     10  C   UNL     1      35.695 -17.690 -21.949  0.00  0.00    +0.248 C 
ATOM     11  C   UNL     1      34.705 -18.445 -23.967  0.00  0.00    +0.224 C 
ATOM     12  H   UNL     1      35.726 -15.631 -21.593  0.00  0.00    +0.152 HD
ATOM     13  H   UNL     1      36.549 -17.116 -20.220  0.00  0.00    +0.151 HD
ENDROOT
BRANCH   2  15
ATOM     14  O   UNL     1      34.457 -13.491 -21.895  0.00  0.00    -0.338 OA
ATOM     15  C   UNL     1      34.671 -13.513 -23.319  0.00  0.00    +0.182 C 
ATOM     16  C   UNL     1      33.657 -11.445 -22.805  0.00  0.00    +0.144 C 
ATOM     17  C   UNL     1      33.726 -12.472 -23.911  0.00  0.00    +0.079 C 
ATOM     18  C   UNL     1      33.733 -12.295 -21.543  0.00  0.00    +0.174 C 
BRANCH  16  19
ATOM     19  O   UNL     1      34.810 -10.610 -22.890  0.00  0.00    -0.382 OA
ATOM     20  H   UNL     1      35.276 -10.616 -22.038  0.00  0.00    +0.210 HD
ENDBRANCH  16  19
BRANCH  18  21
ATOM     21  C   UNL     1      32.360 -12.711 -21.031  0.00  0.00    +0.186 C 
BRANCH  21  22
ATOM     22  O   UNL     1      32.214 -12.247 -19.699  0.00  0.00    -0.271 OA
BRANCH  22  23
ATOM     23  P   UNL     1      31.536 -10.798 -19.456  0.00  0.00    +0.473 P 
ATOM     24  O   UNL     1      32.314  -9.635 -20.000  0.00  0.00    -0.227 OA
BRANCH  23  25
ATOM     25  O   UNL     1      30.056 -10.981 -20.080  0.00  0.00    -0.303 OA
ATOM     26  H   UNL     1      29.434 -10.402 -19.612  0.00  0.00    +0.222 HD
ENDBRANCH  23  25
BRANCH  23  27
ATOM     27  O   UNL     1      31.266 -10.764 -17.862  0.00  0.00    -0.303 OA
ATOM     28  H   UNL     1      30.619 -11.447 -17.629  0.00  0.00    +0.222 HD
ENDBRANCH  23  27
ENDBRANCH  22  23
ENDBRANCH  21  22
ENDBRANCH  18  21
ENDBRANCH   2  15
BRANCH   6  29
ATOM     29  C   UNL     1      36.670 -19.213 -20.290  0.00  0.00    +0.117 C 
BRANCH  29  30
ATOM     30  C   UNL     1      35.487 -19.876 -19.656  0.00  0.00    -0.003 C 
ATOM     31  C   UNL     1      35.601 -20.641 -18.484  0.00  0.00    -0.002 C 
ATOM     32  C   UNL     1      34.444 -21.244 -17.934  0.00  0.00    -0.000 C 
ATOM     33  C   UNL     1      34.249 -19.706 -20.276  0.00  0.00    -0.003 C 
ATOM     34  C   UNL     1      36.839 -20.824 -17.846  0.00  0.00    -0.000 C 
ATOM     35  C   UNL     1      33.207 -21.063 -18.573  0.00  0.00    -0.000 C 
ATOM     36  C   UNL     1      33.111 -20.298 -19.736  0.00  0.00    -0.000 C 
ATOM     37  C   UNL     1      34.559 -22.011 -16.763  0.00  0.00    -0.000 C 
ATOM     38  C   UNL     1      36.935 -21.588 -16.683  0.00  0.00    -0.000 C 
ATOM     39  C   UNL     1      35.797 -22.180 -16.142  0.00  0.00    -0.000 C 
ENDBRANCH  29  30
ENDBRANCH   6  29
TORSDOF 9
ENDMDL
MODEL 2
REMARK VINA RESULT:     -11.0      3.957      6.674
REMARK  Name = 46937134
REMARK  9 active torsions:
REMARK  status: ('A' for Active; 'I' for Inactive)
REMARK    1  A    between atoms: N_2  and  C_15
REMARK    2  A    between atoms: N_6  and  C_29
REMARK    3  A    between atoms: C_16  and  O_19
REMARK    4  A    between atoms: C_18  and  C_21
REMARK    5  A    between atoms: C_21  and  O_22
REMARK    6  A    between atoms: O_22  and  P_23
REMARK    7  A    between atoms: P_23  and  O_25
REMARK    8  A    between atoms: P_23  and  O_27
REMARK    9  A    between atoms: C_29  and  C_30
REMARK                            x       y       z     vdW  Elec       q    Type
REMARK                         _______ _______ _______ _____ _____    ______ ____
ROOT
ATOM      1  O   UNL     1      35.806  -9.998 -26.736  0.00  0.00    -0.208 OA
ATOM      2  N   UNL     1      34.409  -7.319 -23.374  0.00  0.00    -0.209 NA
ATOM      3  N   UNL     1      34.096  -9.711 -23.065  0.00  0.00    -0.279 N 
ATOM      4  N   UNL     1      35.360  -7.405 -25.405  0.00  0.00    -0.241 NA
ATOM      5  N   UNL     1      34.865 -11.055 -24.900  0.00  0.00    -0.301 NA
ATOM      6  N   UNL     1      33.900 -11.990 -22.991  0.00  0.00    -0.292 N 
ATOM      7  C   UNL     1      34.486  -8.621 -23.732  0.00  0.00    +0.191 C 
ATOM      8  C   UNL     1      34.954  -6.616 -24.425  0.00  0.00    +0.205 C 
ATOM      9  C   UNL     1      35.065  -8.666 -24.966  0.00  0.00    +0.183 C 
ATOM     10  C   UNL     1      34.312 -10.928 -23.708  0.00  0.00    +0.248 C 
ATOM     11  C   UNL     1      35.287  -9.935 -25.628  0.00  0.00    +0.224 C 
ATOM     12  H   UNL     1      33.679  -9.658 -22.174  0.00  0.00    +0.152 HD
ATOM     13  H   UNL     1      33.494 -11.832 -22.108  0.00  0.00    +0.151 HD
ENDROOT
BRANCH   2  15
ATOM     14  O   UNL     1      33.718  -7.724 -21.064  0.00  0.00    -0.338 OA
ATOM     15  C   UNL     1      33.850  -6.735 -22.102  0.00  0.00    +0.182 C 
ATOM     16  C   UNL     1      31.895  -6.207 -20.888  0.00  0.00    +0.144 C 
ATOM     17  C   UNL     1      32.466  -6.118 -22.284  0.00  0.00    +0.079 C 
ATOM     18  C   UNL     1      32.475  -7.515 -20.364  0.00  0.00    +0.174 C 
BRANCH  16  19
ATOM     19  O   UNL     1      32.404  -5.117 -20.122  0.00  0.00    -0.382 OA
ATOM     20  H   UNL     1      32.479  -5.384 -19.191  0.00  0.00    +0.210 HD
ENDBRANCH  16  19
BRANCH  18  21
ATOM     21  C   UNL     1      31.574  -8.710 -20.640  0.00  0.00    +0.186 C 
BRANCH  21  22
ATOM     22  O   UNL     1      32.337  -9.896 -20.500  0.00  0.00    -0.271 OA
BRANCH  22  23
ATOM     23  P   UNL     1      31.575 -11.261 -20.078  0.00  0.00    +0.473 P 
ATOM     24  O   UNL     1      32.141 -11.957 -18.876  0.00  0.00    -0.227 OA
BRANCH  23  25
ATOM     25  O   UNL     1      30.037 -10.785 -19.930  0.00  0.00    -0.303 OA
ATOM     26  H   UNL     1      29.828 -10.144 -20.629  0.00  0.00    +0.222 HD
ENDBRANCH  23  25
BRANCH  23  27
ATOM     27  O   UNL     1      31.566 -12.131 -21.442  0.00  0.00    -0.303 OA
ATOM     28  H   UNL     1      30.651 -12.349 -21.680  0.00  0.00    +0.222 HD
ENDBRANCH  23  27
ENDBRANCH  22  23
ENDBRANCH  21  22
ENDBRANCH  18  21
ENDBRANCH   2  15
BRANCH   6  29
ATOM     29  C   UNL     1      34.025 -13.351 -23.459  0.00  0.00    +0.117 C 
BRANCH  29  30
ATOM     30  C   UNL     1      34.462 -14.257 -22.349  0.00  0.00    -0.003 C 
ATOM     31  C   UNL     1      34.723 -15.620 -22.559  0.00  0.00    -0.002 C 
ATOM     32  C   UNL     1      35.132 -16.423 -21.468  0.00  0.00    -0.000 C 
ATOM     33  C   UNL     1      34.605 -13.692 -21.082  0.00  0.00    -0.003 C 
ATOM     34  C   UNL     1      34.584 -16.206 -23.828  0.00  0.00    -0.000 C 
ATOM     35  C   UNL     1      35.270 -15.838 -20.199  0.00  0.00    -0.000 C 
ATOM     36  C   UNL     1      35.008 -14.481 -20.009  0.00  0.00    -0.000 C 
ATOM     37  C   UNL     1      35.392 -17.788 -21.678  0.00  0.00    -0.000 C 
ATOM     38  C   UNL     1      34.846 -17.563 -24.019  0.00  0.00    -0.000 C 
ATOM     39  C   UNL     1      35.250 -18.352 -22.946  0.00  0.00    -0.000 C 
ENDBRANCH  29  30
ENDBRANCH   6  29
TORSDOF 9
ENDMDL
MODEL 3
REMARK VINA RESULT:     -11.0      4.729      8.260
REMARK  Name = 46937134
REMARK  9 active torsions:
REMARK  status: ('A' for Active; 'I' for Inactive)
REMARK    1  A    between atoms: N_2  and  C_15
REMARK    2  A    between atoms: N_6  and  C_29
REMARK    3  A    between atoms: C_16  and  O_19
REMARK    4  A    between atoms: C_18  and  C_21
REMARK    5  A    between atoms: C_21  and  O_22
REMARK    6  A    between atoms: O_22  and  P_23
REMARK    7  A    between atoms: P_23  and  O_25
REMARK    8  A    between atoms: P_23  and  O_27
REMARK    9  A    between atoms: C_29  and  C_30
REMARK                            x       y       z     vdW  Elec       q    Type
REMARK                         _______ _______ _______ _____ _____    ______ ____
ROOT
ATOM      1  O   UNL     1      32.626  -9.326 -17.280  0.00  0.00    -0.208 OA
ATOM      2  N   UNL     1      31.883  -6.625 -20.826  0.00  0.00    -0.209 NA
ATOM      3  N   UNL     1      32.176  -8.992 -21.300  0.00  0.00    -0.279 N 
ATOM      4  N   UNL     1      32.123  -6.737 -18.598  0.00  0.00    -0.241 NA
ATOM      5  N   UNL     1      32.567 -10.349 -19.358  0.00  0.00    -0.301 NA
ATOM      6  N   UNL     1      32.479 -11.251 -21.510  0.00  0.00    -0.292 N 
ATOM      7  C   UNL     1      32.101  -7.921 -20.506  0.00  0.00    +0.191 C 
ATOM      8  C   UNL     1      31.905  -5.942 -19.631  0.00  0.00    +0.205 C 
ATOM      9  C   UNL     1      32.245  -7.981 -19.151  0.00  0.00    +0.183 C 
ATOM     10  C   UNL     1      32.415 -10.207 -20.662  0.00  0.00    +0.248 C 
ATOM     11  C   UNL     1      32.494  -9.249 -18.495  0.00  0.00    +0.224 C 
ATOM     12  H   UNL     1      32.068  -8.927 -22.277  0.00  0.00    +0.152 HD
ATOM     13  H   UNL     1      32.359 -11.082 -22.472  0.00  0.00    +0.151 HD
ENDROOT
BRANCH   2  15
ATOM     14  O   UNL     1      32.095  -6.911 -23.246  0.00  0.00    -0.338 OA
ATOM     15  C   UNL     1      31.661  -6.028 -22.193  0.00  0.00    +0.182 C 
ATOM     16  C   UNL     1      32.561  -4.673 -23.904  0.00  0.00    +0.144 C 
ATOM     17  C   UNL     1      32.408  -4.714 -22.401  0.00  0.00    +0.079 C 
ATOM     18  C   UNL     1      32.759  -6.140 -24.267  0.00  0.00    +0.174 C 
BRANCH  16  19
ATOM     19  O   UNL     1      31.342  -4.200 -24.470  0.00  0.00    -0.382 OA
ATOM     20  H   UNL     1      31.393  -4.255 -25.438  0.00  0.00    +0.210 HD
ENDBRANCH  16  19
BRANCH  18  21
ATOM     21  C   UNL     1      34.226  -6.549 -24.284  0.00  0.00    +0.186 C 
BRANCH  21  22
ATOM     22  O   UNL     1      34.395  -7.665 -23.427  0.00  0.00    -0.271 OA
BRANCH  22  23
ATOM     23  P   UNL     1      34.587  -9.129 -24.093  0.00  0.00    +0.473 P 
ATOM     24  O   UNL     1      35.500  -9.168 -25.283  0.00  0.00    -0.227 OA
BRANCH  23  25
ATOM     25  O   UNL     1      35.057 -10.036 -22.841  0.00  0.00    -0.303 OA
ATOM     26  H   UNL     1      35.877 -10.503 -23.070  0.00  0.00    +0.222 HD
ENDBRANCH  23  25
BRANCH  23  27
ATOM     27  O   UNL     1      33.072  -9.626 -24.366  0.00  0.00    -0.303 OA
ATOM     28  H   UNL     1      32.456  -8.899 -24.188  0.00  0.00    +0.222 HD
ENDBRANCH  23  27
ENDBRANCH  22  23
ENDBRANCH  21  22
ENDBRANCH  18  21
ENDBRANCH   2  15
BRANCH   6  29
ATOM     29  C   UNL     1      32.719 -12.607 -21.072  0.00  0.00    +0.117 C 
BRANCH  29  30
ATOM     30  C   UNL     1      33.382 -13.404 -22.151  0.00  0.00    -0.003 C 
ATOM     31  C   UNL     1      34.212 -14.500 -21.865  0.00  0.00    -0.002 C 
ATOM     32  C   UNL     1      34.811 -15.213 -22.931  0.00  0.00    -0.000 C 
ATOM     33  C   UNL     1      33.143 -13.019 -23.471  0.00  0.00    -0.003 C 
ATOM     34  C   UNL     1      34.464 -14.903 -20.544  0.00  0.00    -0.000 C 
ATOM     35  C   UNL     1      34.560 -14.810 -24.253  0.00  0.00    -0.000 C 
ATOM     36  C   UNL     1      33.731 -13.720 -24.519  0.00  0.00    -0.000 C 
ATOM     37  C   UNL     1      35.642 -16.308 -22.645  0.00  0.00    -0.000 C 
ATOM     38  C   UNL     1      35.292 -15.993 -20.277  0.00  0.00    -0.000 C 
ATOM     39  C   UNL     1      35.880 -16.694 -21.326  0.00  0.00    -0.000 C 
ENDBRANCH  29  30
ENDBRANCH   6  29
TORSDOF 9
ENDMDL
MODEL 4
REMARK VINA RESULT:     -10.9      4.749      7.552
REMARK  Name = 46937134
REMARK  9 active torsions:
REMARK  status: ('A' for Active; 'I' for Inactive)
REMARK    1  A    between atoms: N_2  and  C_15
REMARK    2  A    between atoms: N_6  and  C_29
REMARK    3  A    between atoms: C_16  and  O_19
REMARK    4  A    between atoms: C_18  and  C_21
REMARK    5  A    between atoms: C_21  and  O_22
REMARK    6  A    between atoms: O_22  and  P_23
REMARK    7  A    between atoms: P_23  and  O_25
REMARK    8  A    between atoms: P_23  and  O_27
REMARK    9  A    between atoms: C_29  and  C_30
REMARK                            x       y       z     vdW  Elec       q    Type
REMARK                         _______ _______ _______ _____ _____    ______ ____
ROOT
ATOM      1  O   UNL     1      35.580  -9.650 -26.023  0.00  0.00    -0.208 OA
ATOM      2  N   UNL     1      33.477  -7.708 -22.525  0.00  0.00    -0.209 NA
ATOM      3  N   UNL     1      33.545 -10.139 -22.545  0.00  0.00    -0.279 N 
ATOM      4  N   UNL     1      34.595  -7.366 -24.440  0.00  0.00    -0.241 NA
ATOM      5  N   UNL     1      34.679 -11.082 -24.439  0.00  0.00    -0.301 NA
ATOM      6  N   UNL     1      33.729 -12.409 -22.769  0.00  0.00    -0.292 N 
ATOM      7  C   UNL     1      33.801  -8.921 -23.029  0.00  0.00    +0.191 C 
ATOM      8  C   UNL     1      33.982  -6.791 -23.420  0.00  0.00    +0.205 C 
ATOM      9  C   UNL     1      34.481  -8.705 -24.192  0.00  0.00    +0.183 C 
ATOM     10  C   UNL     1      34.015 -11.207 -23.304  0.00  0.00    +0.248 C 
ATOM     11  C   UNL     1      34.967  -9.821 -24.977  0.00  0.00    +0.224 C 
ATOM     12  H   UNL     1      33.052 -10.274 -21.702  0.00  0.00    +0.152 HD
ATOM     13  H   UNL     1      33.230 -12.439 -21.921  0.00  0.00    +0.151 HD
ENDROOT
BRANCH   2  15
ATOM     14  O   UNL     1      31.595  -6.534 -21.495  0.00  0.00    -0.338 OA
ATOM     15  C   UNL     1      32.723  -7.398 -21.257  0.00  0.00    +0.182 C 
ATOM     16  C   UNL     1      32.545  -5.964 -19.391  0.00  0.00    +0.144 C 
ATOM     17  C   UNL     1      33.582  -6.702 -20.205  0.00  0.00    +0.079 C 
ATOM     18  C   UNL     1      31.512  -5.560 -20.436  0.00  0.00    +0.174 C 
BRANCH  16  19
ATOM     19  O   UNL     1      31.959  -6.879 -18.468  0.00  0.00    -0.382 OA
ATOM     20  H   UNL     1      30.997  -6.747 -18.448  0.00  0.00    +0.210 HD
ENDBRANCH  16  19
BRANCH  18  21
ATOM     21  C   UNL     1      31.790  -4.188 -21.037  0.00  0.00    +0.186 C 
BRANCH  21  22
ATOM     22  O   UNL     1      31.570  -4.254 -22.436  0.00  0.00    -0.271 OA
BRANCH  22  23
ATOM     23  P   UNL     1      32.106  -3.037 -23.360  0.00  0.00    +0.473 P 
ATOM     24  O   UNL     1      32.927  -3.455 -24.544  0.00  0.00    -0.227 OA
BRANCH  23  25
ATOM     25  O   UNL     1      30.751  -2.231 -23.718  0.00  0.00    -0.303 OA
ATOM     26  H   UNL     1      30.900  -1.279 -23.600  0.00  0.00    +0.222 HD
ENDBRANCH  23  25
BRANCH  23  27
ATOM     27  O   UNL     1      32.854  -2.060 -22.310  0.00  0.00    -0.303 OA
ATOM     28  H   UNL     1      32.446  -1.181 -22.339  0.00  0.00    +0.222 HD
ENDBRANCH  23  27
ENDBRANCH  22  23
ENDBRANCH  21  22
ENDBRANCH  18  21
ENDBRANCH   2  15
BRANCH   6  29
ATOM     29  C   UNL     1      34.119 -13.657 -23.384  0.00  0.00    +0.117 C 
BRANCH  29  30
ATOM     30  C   UNL     1      34.537 -14.652 -22.347  0.00  0.00    -0.003 C 
ATOM     31  C   UNL     1      34.729 -16.010 -22.651  0.00  0.00    -0.002 C 
ATOM     32  C   UNL     1      35.124 -16.901 -21.624  0.00  0.00    -0.000 C 
ATOM     33  C   UNL     1      34.733 -14.180 -21.049  0.00  0.00    -0.003 C 
ATOM     34  C   UNL     1      34.536 -16.504 -23.951  0.00  0.00    -0.000 C 
ATOM     35  C   UNL     1      35.315 -16.407 -20.324  0.00  0.00    -0.000 C 
ATOM     36  C   UNL     1      35.121 -15.055 -20.039  0.00  0.00    -0.000 C 
ATOM     37  C   UNL     1      35.315 -18.259 -21.928  0.00  0.00    -0.000 C 
ATOM     38  C   UNL     1      34.731 -17.855 -24.236  0.00  0.00    -0.000 C 
ATOM     39  C   UNL     1      35.120 -18.731 -23.226  0.00  0.00    -0.000 C 
ENDBRANCH  29  30
ENDBRANCH   6  29
TORSDOF 9
ENDMDL
MODEL 5
REMARK VINA RESULT:     -10.6      4.057      6.733
REMARK  Name = 46937134
REMARK  9 active torsions:
REMARK  status: ('A' for Active; 'I' for Inactive)
REMARK    1  A    between atoms: N_2  and  C_15
REMARK    2  A    between atoms: N_6  and  C_29
REMARK    3  A    between atoms: C_16  and  O_19
REMARK    4  A    between atoms: C_18  and  C_21
REMARK    5  A    between atoms: C_21  and  O_22
REMARK    6  A    between atoms: O_22  and  P_23
REMARK    7  A    between atoms: P_23  and  O_25
REMARK    8  A    between atoms: P_23  and  O_27
REMARK    9  A    between atoms: C_29  and  C_30
REMARK                            x       y       z     vdW  Elec       q    Type
REMARK                         _______ _______ _______ _____ _____    ______ ____
ROOT
ATOM      1  O   UNL     1      32.176 -13.816 -18.755  0.00  0.00    -0.208 OA
ATOM      2  N   UNL     1      31.382  -9.835 -20.742  0.00  0.00    -0.209 NA
ATOM      3  N   UNL     1      33.068 -11.252 -21.774  0.00  0.00    -0.279 N 
ATOM      4  N   UNL     1      30.841 -11.204 -19.048  0.00  0.00    -0.241 NA
ATOM      5  N   UNL     1      33.424 -13.344 -20.651  0.00  0.00    -0.301 NA
ATOM      6  N   UNL     1      34.609 -12.744 -22.570  0.00  0.00    -0.292 N 
ATOM      7  C   UNL     1      32.144 -10.946 -20.858  0.00  0.00    +0.191 C 
ATOM      8  C   UNL     1      30.603 -10.038 -19.624  0.00  0.00    +0.205 C 
ATOM      9  C   UNL     1      31.810 -11.773 -19.826  0.00  0.00    +0.183 C 
ATOM     10  C   UNL     1      33.690 -12.489 -21.621  0.00  0.00    +0.248 C 
ATOM     11  C   UNL     1      32.462 -13.058 -19.674  0.00  0.00    +0.224 C 
ATOM     12  H   UNL     1      33.294 -10.640 -22.512  0.00  0.00    +0.152 HD
ATOM     13  H   UNL     1      34.765 -12.066 -23.268  0.00  0.00    +0.151 HD
ENDROOT
BRANCH   2  15
ATOM     14  O   UNL     1      32.099  -8.832 -22.853  0.00  0.00    -0.338 OA
ATOM     15  C   UNL     1      31.368  -8.618 -21.632  0.00  0.00    +0.182 C 
ATOM     16  C   UNL     1      32.427  -6.578 -22.170  0.00  0.00    +0.144 C 
ATOM     17  C   UNL     1      31.984  -7.387 -20.973  0.00  0.00    +0.079 C 
ATOM     18  C   UNL     1      32.860  -7.647 -23.165  0.00  0.00    +0.174 C 
BRANCH  16  19
ATOM     19  O   UNL     1      31.297  -5.876 -22.683  0.00  0.00    -0.382 OA
ATOM     20  H   UNL     1      30.582  -6.506 -22.868  0.00  0.00    +0.210 HD
ENDBRANCH  16  19
BRANCH  18  21
ATOM     21  C   UNL     1      34.338  -7.995 -23.049  0.00  0.00    +0.186 C 
BRANCH  21  22
ATOM     22  O   UNL     1      34.887  -8.079 -24.353  0.00  0.00    -0.271 OA
BRANCH  22  23
ATOM     23  P   UNL     1      35.015  -9.537 -25.045  0.00  0.00    +0.473 P 
ATOM     24  O   UNL     1      35.993  -9.616 -26.180  0.00  0.00    -0.227 OA
BRANCH  23  25
ATOM     25  O   UNL     1      35.343 -10.504 -23.791  0.00  0.00    -0.303 OA
ATOM     26  H   UNL     1      35.844 -11.276 -24.101  0.00  0.00    +0.222 HD
ENDBRANCH  23  25
BRANCH  23  27
ATOM     27  O   UNL     1      33.488  -9.918 -25.419  0.00  0.00    -0.303 OA
ATOM     28  H   UNL     1      33.058 -10.321 -24.650  0.00  0.00    +0.222 HD
ENDBRANCH  23  27
ENDBRANCH  22  23
ENDBRANCH  21  22
ENDBRANCH  18  21
ENDBRANCH   2  15
BRANCH   6  29
ATOM     29  C   UNL     1      35.379 -13.966 -22.612  0.00  0.00    +0.117 C 
BRANCH  29  30
ATOM     30  C   UNL     1      34.730 -14.972 -23.511  0.00  0.00    -0.003 C 
ATOM     31  C   UNL     1      34.882 -16.354 -23.314  0.00  0.00    -0.002 C 
ATOM     32  C   UNL     1      34.242 -17.254 -24.199  0.00  0.00    -0.000 C 
ATOM     33  C   UNL     1      33.956 -14.485 -24.564  0.00  0.00    -0.003 C 
ATOM     34  C   UNL     1      35.656 -16.863 -22.259  0.00  0.00    -0.000 C 
ATOM     35  C   UNL     1      33.469 -16.745 -25.255  0.00  0.00    -0.000 C 
ATOM     36  C   UNL     1      33.327 -15.369 -25.435  0.00  0.00    -0.000 C 
ATOM     37  C   UNL     1      34.395 -18.637 -24.003  0.00  0.00    -0.000 C 
ATOM     38  C   UNL     1      35.797 -18.239 -22.078  0.00  0.00    -0.000 C 
ATOM     39  C   UNL     1      35.168 -19.124 -22.949  0.00  0.00    -0.000 C 
ENDBRANCH  29  30
ENDBRANCH   6  29
TORSDOF 9
ENDMDL
MODEL 6
REMARK VINA RESULT:     -10.5      7.568     10.587
REMARK  Name = 46937134
REMARK  9 active torsions:
REMARK  status: ('A' for Active; 'I' for Inactive)
REMARK    1  A    between atoms: N_2  and  C_15
REMARK    2  A    between atoms: N_6  and  C_29
REMARK    3  A    between atoms: C_16  and  O_19
REMARK    4  A    between atoms: C_18  and  C_21
REMARK    5  A    between atoms: C_21  and  O_22
REMARK    6  A    between atoms: O_22  and  P_23
REMARK    7  A    between atoms: P_23  and  O_25
REMARK    8  A    between atoms: P_23  and  O_27
REMARK    9  A    between atoms: C_29  and  C_30
REMARK                            x       y       z     vdW  Elec       q    Type
REMARK                         _______ _______ _______ _____ _____    ______ ____
ROOT
ATOM      1  O   UNL     1      30.903 -23.174 -11.871  0.00  0.00    -0.208 OA
ATOM      2  N   UNL     1      31.670 -22.348 -16.248  0.00  0.00    -0.209 NA
ATOM      3  N   UNL     1      33.516 -23.293 -14.975  0.00  0.00    -0.279 N 
ATOM      4  N   UNL     1      30.176 -22.254 -14.576  0.00  0.00    -0.241 NA
ATOM      5  N   UNL     1      33.018 -23.696 -12.662  0.00  0.00    -0.301 NA
ATOM      6  N   UNL     1      35.106 -24.178 -13.588  0.00  0.00    -0.292 N 
ATOM      7  C   UNL     1      32.273 -22.830 -15.137  0.00  0.00    +0.191 C 
ATOM      8  C   UNL     1      30.395 -22.010 -15.857  0.00  0.00    +0.205 C 
ATOM      9  C   UNL     1      31.359 -22.770 -14.126  0.00  0.00    +0.183 C 
ATOM     10  C   UNL     1      33.844 -23.722 -13.692  0.00  0.00    +0.248 C 
ATOM     11  C   UNL     1      31.708 -23.218 -12.793  0.00  0.00    +0.224 C 
ATOM     12  H   UNL     1      34.161 -23.328 -15.719  0.00  0.00    +0.152 HD
ATOM     13  H   UNL     1      35.675 -24.172 -14.392  0.00  0.00    +0.151 HD
ENDROOT
BRANCH   2  15
ATOM     14  O   UNL     1      33.596 -22.710 -17.712  0.00  0.00    -0.338 OA
ATOM     15  C   UNL     1      32.250 -22.202 -17.632  0.00  0.00    +0.182 C 
ATOM     16  C   UNL     1      33.432 -20.798 -19.117  0.00  0.00    +0.144 C 
ATOM     17  C   UNL     1      32.310 -20.752 -18.105  0.00  0.00    +0.079 C 
ATOM     18  C   UNL     1      34.392 -21.819 -18.518  0.00  0.00    +0.174 C 
BRANCH  16  19
ATOM     19  O   UNL     1      32.911 -21.296 -20.347  0.00  0.00    -0.382 OA
ATOM     20  H   UNL     1      32.886 -22.266 -20.318  0.00  0.00    +0.210 HD
ENDBRANCH  16  19
BRANCH  18  21
ATOM     21  C   UNL     1      35.441 -21.181 -17.617  0.00  0.00    +0.186 C 
BRANCH  21  22
ATOM     22  O   UNL     1      35.895 -22.154 -16.691  0.00  0.00    -0.271 OA
BRANCH  22  23
ATOM     23  P   UNL     1      36.949 -21.701 -15.548  0.00  0.00    +0.473 P 
ATOM     24  O   UNL     1      36.389 -21.646 -14.157  0.00  0.00    -0.227 OA
BRANCH  23  25
ATOM     25  O   UNL     1      38.171 -22.738 -15.753  0.00  0.00    -0.303 OA
ATOM     26  H   UNL     1      38.774 -22.398 -16.433  0.00  0.00    +0.222 HD
ENDBRANCH  23  25
BRANCH  23  27
ATOM     27  O   UNL     1      37.545 -20.306 -16.109  0.00  0.00    -0.303 OA
ATOM     28  H   UNL     1      38.495 -20.406 -16.279  0.00  0.00    +0.222 HD
ENDBRANCH  23  27
ENDBRANCH  22  23
ENDBRANCH  21  22
ENDBRANCH  18  21
ENDBRANCH   2  15
BRANCH   6  29
ATOM     29  C   UNL     1      35.664 -24.675 -12.351  0.00  0.00    +0.117 C 
BRANCH  29  30
ATOM     30  C   UNL     1      37.020 -24.089 -12.108  0.00  0.00    -0.003 C 
ATOM     31  C   UNL     1      38.166 -24.562 -12.768  0.00  0.00    -0.002 C 
ATOM     32  C   UNL     1      39.420 -23.966 -12.493  0.00  0.00    -0.000 C 
ATOM     33  C   UNL     1      37.110 -23.041 -11.192  0.00  0.00    -0.003 C 
ATOM     34  C   UNL     1      38.096 -25.616 -13.694  0.00  0.00    -0.000 C 
ATOM     35  C   UNL     1      39.491 -22.913 -11.567  0.00  0.00    -0.000 C 
ATOM     36  C   UNL     1      38.342 -22.454 -10.921  0.00  0.00    -0.000 C 
ATOM     37  C   UNL     1      40.566 -24.440 -13.152  0.00  0.00    -0.000 C 
ATOM     38  C   UNL     1      39.244 -26.075 -14.340  0.00  0.00    -0.000 C 
ATOM     39  C   UNL     1      40.476 -25.487 -14.069  0.00  0.00    -0.000 C 
ENDBRANCH  29  30
ENDBRANCH   6  29
TORSDOF 9
ENDMDL
MODEL 7
REMARK VINA RESULT:     -10.4      3.520      9.634
REMARK  Name = 46937134
REMARK  9 active torsions:
REMARK  status: ('A' for Active; 'I' for Inactive)
REMARK    1  A    between atoms: N_2  and  C_15
REMARK    2  A    between atoms: N_6  and  C_29
REMARK    3  A    between atoms: C_16  and  O_19
REMARK    4  A    between atoms: C_18  and  C_21
REMARK    5  A    between atoms: C_21  and  O_22
REMARK    6  A    between atoms: O_22  and  P_23
REMARK    7  A    between atoms: P_23  and  O_25
REMARK    8  A    between atoms: P_23  and  O_27
REMARK    9  A    between atoms: C_29  and  C_30
REMARK                            x       y       z     vdW  Elec       q    Type
REMARK                         _______ _______ _______ _____ _____    ______ ____
ROOT
ATOM      1  O   UNL     1      31.187 -11.508 -20.149  0.00  0.00    -0.208 OA
ATOM      2  N   UNL     1      34.201 -14.875 -20.234  0.00  0.00    -0.209 NA
ATOM      3  N   UNL     1      34.224 -13.342 -22.122  0.00  0.00    -0.279 N 
ATOM      4  N   UNL     1      32.528 -13.912 -19.091  0.00  0.00    -0.241 NA
ATOM      5  N   UNL     1      32.590 -11.588 -21.992  0.00  0.00    -0.301 NA
ATOM      6  N   UNL     1      34.066 -11.784 -23.790  0.00  0.00    -0.292 N 
ATOM      7  C   UNL     1      33.783 -13.807 -20.950  0.00  0.00    +0.191 C 
ATOM      8  C   UNL     1      33.407 -14.899 -19.110  0.00  0.00    +0.205 C 
ATOM      9  C   UNL     1      32.767 -13.226 -20.249  0.00  0.00    +0.183 C 
ATOM     10  C   UNL     1      33.580 -12.207 -22.608  0.00  0.00    +0.248 C 
ATOM     11  C   UNL     1      32.101 -12.045 -20.762  0.00  0.00    +0.224 C 
ATOM     12  H   UNL     1      34.960 -13.776 -22.612  0.00  0.00    +0.152 HD
ATOM     13  H   UNL     1      34.805 -12.287 -24.202  0.00  0.00    +0.151 HD
ENDROOT
BRANCH   2  15
ATOM     14  O   UNL     1      35.730 -15.727 -21.942  0.00  0.00    -0.338 OA
ATOM     15  C   UNL     1      35.301 -15.850 -20.573  0.00  0.00    +0.182 C 
ATOM     16  C   UNL     1      35.819 -18.024 -21.332  0.00  0.00    +0.144 C 
ATOM     17  C   UNL     1      34.889 -17.306 -20.382  0.00  0.00    +0.079 C 
ATOM     18  C   UNL     1      35.949 -17.042 -22.491  0.00  0.00    +0.174 C 
BRANCH  16  19
ATOM     19  O   UNL     1      37.084 -18.181 -20.694  0.00  0.00    -0.382 OA
ATOM     20  H   UNL     1      37.025 -17.868 -19.777  0.00  0.00    +0.210 HD
ENDBRANCH  16  19
BRANCH  18  21
ATOM     21  C   UNL     1      34.909 -17.276 -23.579  0.00  0.00    +0.186 C 
BRANCH  21  22
ATOM     22  O   UNL     1      34.095 -16.121 -23.683  0.00  0.00    -0.271 OA
BRANCH  22  23
ATOM     23  P   UNL     1      33.861 -15.470 -25.147  0.00  0.00    +0.473 P 
ATOM     24  O   UNL     1      35.115 -15.084 -25.876  0.00  0.00    -0.227 OA
BRANCH  23  25
ATOM     25  O   UNL     1      32.950 -16.577 -25.894  0.00  0.00    -0.303 OA
ATOM     26  H   UNL     1      33.320 -17.460 -25.736  0.00  0.00    +0.222 HD
ENDBRANCH  23  25
BRANCH  23  27
ATOM     27  O   UNL     1      32.824 -14.261 -24.867  0.00  0.00    -0.303 OA
ATOM     28  H   UNL     1      32.031 -14.609 -24.431  0.00  0.00    +0.222 HD
ENDBRANCH  23  27
ENDBRANCH  22  23
ENDBRANCH  21  22
ENDBRANCH  18  21
ENDBRANCH   2  15
BRANCH   6  29
ATOM     29  C   UNL     1      33.551 -10.625 -24.483  0.00  0.00    +0.117 C 
BRANCH  29  30
ATOM     30  C   UNL     1      34.154  -9.368 -23.937  0.00  0.00    -0.003 C 
ATOM     31  C   UNL     1      33.402  -8.440 -23.199  0.00  0.00    -0.002 C 
ATOM     32  C   UNL     1      34.031  -7.270 -22.710  0.00  0.00    -0.000 C 
ATOM     33  C   UNL     1      35.509  -9.147 -24.187  0.00  0.00    -0.003 C 
ATOM     34  C   UNL     1      32.038  -8.645 -22.937  0.00  0.00    -0.000 C 
ATOM     35  C   UNL     1      35.395  -7.063 -22.973  0.00  0.00    -0.000 C 
ATOM     36  C   UNL     1      36.128  -7.997 -23.707  0.00  0.00    -0.000 C 
ATOM     37  C   UNL     1      33.278  -6.341 -21.974  0.00  0.00    -0.000 C 
ATOM     38  C   UNL     1      31.304  -7.712 -22.204  0.00  0.00    -0.000 C 
ATOM     39  C   UNL     1      31.924  -6.563 -21.722  0.00  0.00    -0.000 C 
ENDBRANCH  29  30
ENDBRANCH   6  29
TORSDOF 9
ENDMDL
MODEL 8
REMARK VINA RESULT:     -10.1      4.169      9.017
REMARK  Name = 46937134
REMARK  9 active torsions:
REMARK  status: ('A' for Active; 'I' for Inactive)
REMARK    1  A    between atoms: N_2  and  C_15
REMARK    2  A    between atoms: N_6  and  C_29
REMARK    3  A    between atoms: C_16  and  O_19
REMARK    4  A    between atoms: C_18  and  C_21
REMARK    5  A    between atoms: C_21  and  O_22
REMARK    6  A    between atoms: O_22  and  P_23
REMARK    7  A    between atoms: P_23  and  O_25
REMARK    8  A    between atoms: P_23  and  O_27
REMARK    9  A    between atoms: C_29  and  C_30
REMARK                            x       y       z     vdW  Elec       q    Type
REMARK                         _______ _______ _______ _____ _____    ______ ____
ROOT
ATOM      1  O   UNL     1      33.260 -15.519 -26.196  0.00  0.00    -0.208 OA
ATOM      2  N   UNL     1      35.106 -18.119 -22.993  0.00  0.00    -0.209 NA
ATOM      3  N   UNL     1      35.058 -15.725 -22.563  0.00  0.00    -0.279 N 
ATOM      4  N   UNL     1      34.117 -18.077 -25.007  0.00  0.00    -0.241 NA
ATOM      5  N   UNL     1      34.062 -14.425 -24.317  0.00  0.00    -0.301 NA
ATOM      6  N   UNL     1      34.907 -13.450 -22.371  0.00  0.00    -0.292 N 
ATOM      7  C   UNL     1      34.826 -16.827 -23.281  0.00  0.00    +0.191 C 
ATOM      8  C   UNL     1      34.656 -18.843 -24.074  0.00  0.00    +0.205 C 
ATOM      9  C   UNL     1      34.225 -16.810 -24.505  0.00  0.00    +0.183 C 
ATOM     10  C   UNL     1      34.648 -14.525 -23.139  0.00  0.00    +0.248 C 
ATOM     11  C   UNL     1      33.802 -15.558 -25.098  0.00  0.00    +0.224 C 
ATOM     12  H   UNL     1      35.493 -15.760 -21.679  0.00  0.00    +0.152 HD
ATOM     13  H   UNL     1      35.347 -13.588 -21.502  0.00  0.00    +0.151 HD
ENDROOT
BRANCH   2  15
ATOM     14  O   UNL     1      35.310 -20.004 -21.448  0.00  0.00    -0.338 OA
ATOM     15  C   UNL     1      35.770 -18.674 -21.758  0.00  0.00    +0.182 C 
ATOM     16  C   UNL     1      35.689 -18.846 -19.405  0.00  0.00    +0.144 C 
ATOM     17  C   UNL     1      35.516 -17.831 -20.512  0.00  0.00    +0.079 C 
ATOM     18  C   UNL     1      35.132 -20.124 -20.022  0.00  0.00    +0.174 C 
BRANCH  16  19
ATOM     19  O   UNL     1      37.082 -19.005 -19.151  0.00  0.00    -0.382 OA
ATOM     20  H   UNL     1      37.407 -18.246 -18.640  0.00  0.00    +0.210 HD
ENDBRANCH  16  19
BRANCH  18  21
ATOM     21  C   UNL     1      33.646 -20.310 -19.749  0.00  0.00    +0.186 C 
BRANCH  21  22
ATOM     22  O   UNL     1      33.477 -20.671 -18.389  0.00  0.00    -0.271 OA
BRANCH  22  23
ATOM     23  P   UNL     1      33.896 -22.165 -17.928  0.00  0.00    +0.473 P 
ATOM     24  O   UNL     1      33.995 -23.166 -19.042  0.00  0.00    -0.227 OA
BRANCH  23  25
ATOM     25  O   UNL     1      35.266 -21.919 -17.107  0.00  0.00    -0.303 OA
ATOM     26  H   UNL     1      35.632 -21.051 -17.341  0.00  0.00    +0.222 HD
ENDBRANCH  23  25
BRANCH  23  27
ATOM     27  O   UNL     1      32.826 -22.523 -16.769  0.00  0.00    -0.303 OA
ATOM     28  H   UNL     1      32.088 -23.022 -17.153  0.00  0.00    +0.222 HD
ENDBRANCH  23  27
ENDBRANCH  22  23
ENDBRANCH  21  22
ENDBRANCH  18  21
ENDBRANCH   2  15
BRANCH   6  29
ATOM     29  C   UNL     1      34.569 -12.102 -22.767  0.00  0.00    +0.117 C 
BRANCH  29  30
ATOM     30  C   UNL     1      33.416 -11.586 -21.963  0.00  0.00    -0.003 C 
ATOM     31  C   UNL     1      32.846 -10.325 -22.202  0.00  0.00    -0.002 C 
ATOM     32  C   UNL     1      31.757  -9.895 -21.406  0.00  0.00    -0.000 C 
ATOM     33  C   UNL     1      32.918 -12.412 -20.955  0.00  0.00    -0.003 C 
ATOM     34  C   UNL     1      33.333  -9.481 -23.212  0.00  0.00    -0.000 C 
ATOM     35  C   UNL     1      31.271 -10.739 -20.395  0.00  0.00    -0.000 C 
ATOM     36  C   UNL     1      31.848 -11.990 -20.172  0.00  0.00    -0.000 C 
ATOM     37  C   UNL     1      31.188  -8.633 -21.644  0.00  0.00    -0.000 C 
ATOM     38  C   UNL     1      32.755  -8.231 -23.436  0.00  0.00    -0.000 C 
ATOM     39  C   UNL     1      31.684  -7.809 -22.654  0.00  0.00    -0.000 C 
ENDBRANCH  29  30
ENDBRANCH   6  29
TORSDOF 9
ENDMDL
MODEL 9
REMARK VINA RESULT:      -9.8      4.245      7.286
REMARK  Name = 46937134
REMARK  9 active torsions:
REMARK  status: ('A' for Active; 'I' for Inactive)
REMARK    1  A    between atoms: N_2  and  C_15
REMARK    2  A    between atoms: N_6  and  C_29
REMARK    3  A    between atoms: C_16  and  O_19
REMARK    4  A    between atoms: C_18  and  C_21
REMARK    5  A    between atoms: C_21  and  O_22
REMARK    6  A    between atoms: O_22  and  P_23
REMARK    7  A    between atoms: P_23  and  O_25
REMARK    8  A    between atoms: P_23  and  O_27
REMARK    9  A    between atoms: C_29  and  C_30
REMARK                            x       y       z     vdW  Elec       q    Type
REMARK                         _______ _______ _______ _____ _____    ______ ____
ROOT
ATOM      1  O   UNL     1      31.708 -22.521 -17.355  0.00  0.00    -0.208 OA
ATOM      2  N   UNL     1      34.708 -19.854 -19.432  0.00  0.00    -0.209 NA
ATOM      3  N   UNL     1      35.529 -21.167 -17.556  0.00  0.00    -0.279 N 
ATOM      4  N   UNL     1      32.578 -20.560 -19.377  0.00  0.00    -0.241 NA
ATOM      5  N   UNL     1      33.867 -22.551 -16.515  0.00  0.00    -0.301 NA
ATOM      6  N   UNL     1      36.080 -22.488 -15.771  0.00  0.00    -0.292 N 
ATOM      7  C   UNL     1      34.599 -20.738 -18.414  0.00  0.00    +0.191 C 
ATOM      8  C   UNL     1      33.451 -19.778 -19.989  0.00  0.00    +0.205 C 
ATOM      9  C   UNL     1      33.303 -21.163 -18.388  0.00  0.00    +0.183 C 
ATOM     10  C   UNL     1      35.102 -22.092 -16.607  0.00  0.00    +0.248 C 
ATOM     11  C   UNL     1      32.866 -22.125 -17.396  0.00  0.00    +0.224 C 
ATOM     12  H   UNL     1      36.461 -20.847 -17.593  0.00  0.00    +0.152 HD
ATOM     13  H   UNL     1      36.980 -22.109 -15.889  0.00  0.00    +0.151 HD
ENDROOT
BRANCH   2  15
ATOM     14  O   UNL     1      35.729 -17.672 -19.851  0.00  0.00    -0.338 OA
ATOM     15  C   UNL     1      35.932 -19.098 -19.882  0.00  0.00    +0.182 C 
ATOM     16  C   UNL     1      37.106 -18.194 -21.720  0.00  0.00    +0.144 C 
ATOM     17  C   UNL     1      36.358 -19.441 -21.306  0.00  0.00    +0.079 C 
ATOM     18  C   UNL     1      36.331 -17.083 -21.022  0.00  0.00    +0.174 C 
BRANCH  16  19
ATOM     19  O   UNL     1      38.427 -18.262 -21.189  0.00  0.00    -0.382 OA
ATOM     20  H   UNL     1      39.026 -17.740 -21.745  0.00  0.00    +0.210 HD
ENDBRANCH  16  19
BRANCH  18  21
ATOM     21  C   UNL     1      35.215 -16.512 -21.886  0.00  0.00    +0.186 C 
BRANCH  21  22
ATOM     22  O   UNL     1      35.594 -16.622 -23.247  0.00  0.00    -0.271 OA
BRANCH  22  23
ATOM     23  P   UNL     1      34.545 -16.142 -24.383  0.00  0.00    +0.473 P 
ATOM     24  O   UNL     1      33.661 -17.225 -24.927  0.00  0.00    -0.227 OA
BRANCH  23  25
ATOM     25  O   UNL     1      33.765 -14.922 -23.662  0.00  0.00    -0.303 OA
ATOM     26  H   UNL     1      32.808 -15.057 -23.744  0.00  0.00    +0.222 HD
ENDBRANCH  23  25
BRANCH  23  27
ATOM     27  O   UNL     1      35.476 -15.396 -25.474  0.00  0.00    -0.303 OA
ATOM     28  H   UNL     1      35.921 -14.641 -25.057  0.00  0.00    +0.222 HD
ENDBRANCH  23  27
ENDBRANCH  22  23
ENDBRANCH  21  22
ENDBRANCH  18  21
ENDBRANCH   2  15
BRANCH   6  29
ATOM     29  C   UNL     1      35.866 -23.442 -14.707  0.00  0.00    +0.117 C 
BRANCH  29  30
ATOM     30  C   UNL     1      36.933 -23.321 -13.664  0.00  0.00    -0.003 C 
ATOM     31  C   UNL     1      38.168 -23.980 -13.781  0.00  0.00    -0.002 C 
ATOM     32  C   UNL     1      39.136 -23.826 -12.760  0.00  0.00    -0.000 C 
ATOM     33  C   UNL     1      36.657 -22.521 -12.555  0.00  0.00    -0.003 C 
ATOM     34  C   UNL     1      38.464 -24.789 -14.890  0.00  0.00    -0.000 C 
ATOM     35  C   UNL     1      38.839 -23.017 -11.651  0.00  0.00    -0.000 C 
ATOM     36  C   UNL     1      37.608 -22.369 -11.551  0.00  0.00    -0.000 C 
ATOM     37  C   UNL     1      40.370 -24.485 -12.877  0.00  0.00    -0.000 C 
ATOM     38  C   UNL     1      39.695 -25.437 -14.990  0.00  0.00    -0.000 C 
ATOM     39  C   UNL     1      40.647 -25.285 -13.986  0.00  0.00    -0.000 C 
ENDBRANCH  29  30
ENDBRANCH   6  29
TORSDOF 9
ENDMDL
