MODEL 1
REMARK VINA RESULT:     -12.1      0.000      0.000
REMARK  Name = 11538455
REMARK  6 active torsions:
REMARK  status: ('A' for Active; 'I' for Inactive)
REMARK    1  A    between atoms: C_4  and  C_19
REMARK    2  A    between atoms: C_12  and  C_15
REMARK    3  A    between atoms: N_14  and  O_17
REMARK    4  A    between atoms: C_19  and  N_20
REMARK    5  A    between atoms: N_20  and  C_23
REMARK    6  A    between atoms: C_23  and  C_25
REMARK                            x       y       z     vdW  Elec       q    Type
REMARK                         _______ _______ _______ _____ _____    ______ ____
ROOT
ATOM      1  N   UNL     1      35.447 -21.470 -17.357  0.00  0.00    -0.253 N 
ATOM      2  N   UNL     1      36.765 -22.429 -15.649  0.00  0.00    -0.203 NA
ATOM      3  N   UNL     1      34.361 -22.409 -15.483  0.00  0.00    -0.180 NA
ATOM      4  C   UNL     1      35.259 -20.245 -19.973  0.00  0.00    -0.018 C 
ATOM      5  C   UNL     1      36.445 -19.977 -19.042  0.00  0.00    +0.020 C 
ATOM      6  C   UNL     1      34.012 -20.554 -19.137  0.00  0.00    +0.020 C 
ATOM      7  C   UNL     1      36.680 -21.141 -18.080  0.00  0.00    +0.101 C 
ATOM      8  C   UNL     1      34.256 -21.719 -18.180  0.00  0.00    +0.101 C 
ATOM      9  C   UNL     1      35.526 -22.125 -16.121  0.00  0.00    +0.090 C 
ATOM     10  C   UNL     1      36.804 -23.057 -14.455  0.00  0.00    +0.170 C 
ATOM     11  C   UNL     1      34.474 -23.038 -14.295  0.00  0.00    +0.113 C 
ATOM     12  C   UNL     1      35.681 -23.390 -13.727  0.00  0.00    +0.078 C 
ENDROOT
BRANCH  12  15
ATOM     13  O   UNL     1      34.958 -23.805 -11.531  0.00  0.00    -0.268 OA
ATOM     14  N   UNL     1      36.776 -25.004 -12.285  0.00  0.00    -0.194 N 
ATOM     15  C   UNL     1      35.763 -24.067 -12.447  0.00  0.00    +0.267 C 
ATOM     16  H   UNL     1      37.409 -25.209 -13.012  0.00  0.00    +0.183 HD
BRANCH  14  17
ATOM     17  O   UNL     1      36.857 -25.645 -11.041  0.00  0.00    -0.295 OA
ATOM     18  H   UNL     1      37.483 -26.384 -11.098  0.00  0.00    +0.241 HD
ENDBRANCH  14  17
ENDBRANCH  12  15
BRANCH   4  19
ATOM     19  C   UNL     1      35.013 -19.055 -20.897  0.00  0.00    -0.081 C 
BRANCH  19  20
ATOM     20  N   UNL     1      35.585 -17.839 -20.341  0.00  0.00    +0.386 N 
ATOM     21  H   UNL     1      36.320 -18.089 -19.678  0.00  0.00    -0.084 HD
ATOM     22  H   UNL     1      34.846 -17.315 -19.873  0.00  0.00    -0.084 HD
BRANCH  20  23
ATOM     23  C   UNL     1      36.155 -17.002 -21.390  0.00  0.00    -0.053 C 
BRANCH  23  25
ATOM     24  N   UNL     1      34.160 -13.949 -21.222  0.00  0.00    -0.284 N 
ATOM     25  C   UNL     1      35.310 -15.778 -21.605  0.00  0.00    -0.028 C 
ATOM     26  C   UNL     1      34.818 -15.329 -22.845  0.00  0.00    +0.009 C 
ATOM     27  C   UNL     1      34.904 -14.929 -20.622  0.00  0.00    +0.059 C 
ATOM     28  C   UNL     1      34.090 -14.168 -22.579  0.00  0.00    +0.051 C 
ATOM     29  C   UNL     1      34.908 -15.783 -24.176  0.00  0.00    +0.001 C 
ATOM     30  C   UNL     1      33.446 -13.433 -23.581  0.00  0.00    +0.015 C 
ATOM     31  C   UNL     1      33.543 -12.846 -20.515  0.00  0.00    +0.117 C 
ATOM     32  C   UNL     1      34.269 -15.059 -25.190  0.00  0.00    +0.000 C 
ATOM     33  C   UNL     1      33.549 -13.902 -24.894  0.00  0.00    +0.001 C 
ENDBRANCH  23  25
ENDBRANCH  20  23
ENDBRANCH  19  20
ENDBRANCH   4  19
TORSDOF 6
ENDMDL
MODEL 2
REMARK VINA RESULT:     -12.0      1.023      2.084
REMARK  Name = 11538455
REMARK  6 active torsions:
REMARK  status: ('A' for Active; 'I' for Inactive)
REMARK    1  A    between atoms: C_4  and  C_19
REMARK    2  A    between atoms: C_12  and  C_15
REMARK    3  A    between atoms: N_14  and  O_17
REMARK    4  A    between atoms: C_19  and  N_20
REMARK    5  A    between atoms: N_20  and  C_23
REMARK    6  A    between atoms: C_23  and  C_25
REMARK                            x       y       z     vdW  Elec       q    Type
REMARK                         _______ _______ _______ _____ _____    ______ ____
ROOT
ATOM      1  N   UNL     1      35.456 -21.676 -17.055  0.00  0.00    -0.253 N 
ATOM      2  N   UNL     1      36.905 -22.585 -15.428  0.00  0.00    -0.203 NA
ATOM      3  N   UNL     1      34.515 -22.667 -15.130  0.00  0.00    -0.180 NA
ATOM      4  C   UNL     1      35.072 -20.451 -19.650  0.00  0.00    -0.018 C 
ATOM      5  C   UNL     1      36.296 -20.137 -18.784  0.00  0.00    +0.020 C 
ATOM      6  C   UNL     1      33.888 -20.814 -18.748  0.00  0.00    +0.020 C 
ATOM      7  C   UNL     1      36.633 -21.294 -17.843  0.00  0.00    +0.101 C 
ATOM      8  C   UNL     1      34.232 -21.972 -17.812  0.00  0.00    +0.101 C 
ATOM      9  C   UNL     1      35.631 -22.332 -15.830  0.00  0.00    +0.090 C 
ATOM     10  C   UNL     1      37.037 -23.215 -14.242  0.00  0.00    +0.170 C 
ATOM     11  C   UNL     1      34.720 -23.294 -13.954  0.00  0.00    +0.113 C 
ATOM     12  C   UNL     1      35.970 -23.598 -13.455  0.00  0.00    +0.078 C 
ENDROOT
BRANCH  12  15
ATOM     13  O   UNL     1      36.837 -25.313 -12.106  0.00  0.00    -0.268 OA
ATOM     14  N   UNL     1      35.519 -23.728 -11.075  0.00  0.00    -0.194 N 
ATOM     15  C   UNL     1      36.151 -24.275 -12.186  0.00  0.00    +0.267 C 
ATOM     16  H   UNL     1      34.979 -22.907 -11.143  0.00  0.00    +0.183 HD
BRANCH  14  17
ATOM     17  O   UNL     1      35.688 -24.395  -9.854  0.00  0.00    -0.295 OA
ATOM     18  H   UNL     1      35.042 -25.116  -9.787  0.00  0.00    +0.241 HD
ENDBRANCH  14  17
ENDBRANCH  12  15
BRANCH   4  19
ATOM     19  C   UNL     1      34.726 -19.269 -20.552  0.00  0.00    -0.081 C 
BRANCH  19  20
ATOM     20  N   UNL     1      35.452 -18.076 -20.145  0.00  0.00    +0.386 N 
ATOM     21  H   UNL     1      36.031 -18.298 -19.334  0.00  0.00    -0.084 HD
ATOM     22  H   UNL     1      34.776 -17.348 -19.912  0.00  0.00    -0.084 HD
BRANCH  20  23
ATOM     23  C   UNL     1      36.306 -17.590 -21.221  0.00  0.00    -0.053 C 
BRANCH  23  25
ATOM     24  N   UNL     1      34.612 -15.663 -23.820  0.00  0.00    -0.284 N 
ATOM     25  C   UNL     1      35.563 -16.605 -22.081  0.00  0.00    -0.028 C 
ATOM     26  C   UNL     1      35.029 -15.378 -21.647  0.00  0.00    +0.009 C 
ATOM     27  C   UNL     1      35.303 -16.770 -23.407  0.00  0.00    +0.059 C 
ATOM     28  C   UNL     1      34.430 -14.796 -22.767  0.00  0.00    +0.051 C 
ATOM     29  C   UNL     1      34.985 -14.689 -20.420  0.00  0.00    +0.001 C 
ATOM     30  C   UNL     1      33.788 -13.553 -22.719  0.00  0.00    +0.015 C 
ATOM     31  C   UNL     1      34.146 -15.451 -25.174  0.00  0.00    +0.117 C 
ATOM     32  C   UNL     1      34.346 -13.444 -20.356  0.00  0.00    +0.000 C 
ATOM     33  C   UNL     1      33.757 -12.887 -21.490  0.00  0.00    +0.001 C 
ENDBRANCH  23  25
ENDBRANCH  20  23
ENDBRANCH  19  20
ENDBRANCH   4  19
TORSDOF 6
ENDMDL
MODEL 3
REMARK VINA RESULT:     -11.5      2.426      3.303
REMARK  Name = 11538455
REMARK  6 active torsions:
REMARK  status: ('A' for Active; 'I' for Inactive)
REMARK    1  A    between atoms: C_4  and  C_19
REMARK    2  A    between atoms: C_12  and  C_15
REMARK    3  A    between atoms: N_14  and  O_17
REMARK    4  A    between atoms: C_19  and  N_20
REMARK    5  A    between atoms: N_20  and  C_23
REMARK    6  A    between atoms: C_23  and  C_25
REMARK                            x       y       z     vdW  Elec       q    Type
REMARK                         _______ _______ _______ _____ _____    ______ ____
ROOT
ATOM      1  N   UNL     1      34.007 -21.272 -18.138  0.00  0.00    -0.253 N 
ATOM      2  N   UNL     1      34.044 -22.797 -16.337  0.00  0.00    -0.203 NA
ATOM      3  N   UNL     1      31.983 -21.756 -17.025  0.00  0.00    -0.180 NA
ATOM      4  C   UNL     1      35.382 -19.940 -20.310  0.00  0.00    -0.018 C 
ATOM      5  C   UNL     1      36.086 -20.260 -18.987  0.00  0.00    +0.020 C 
ATOM      6  C   UNL     1      33.887 -19.730 -20.055  0.00  0.00    +0.020 C 
ATOM      7  C   UNL     1      35.453 -21.465 -18.290  0.00  0.00    +0.101 C 
ATOM      8  C   UNL     1      33.262 -20.938 -19.360  0.00  0.00    +0.101 C 
ATOM      9  C   UNL     1      33.321 -21.965 -17.133  0.00  0.00    +0.090 C 
ATOM     10  C   UNL     1      33.353 -23.447 -15.378  0.00  0.00    +0.170 C 
ATOM     11  C   UNL     1      31.354 -22.438 -16.045  0.00  0.00    +0.113 C 
ATOM     12  C   UNL     1      31.994 -23.306 -15.184  0.00  0.00    +0.078 C 
ENDROOT
BRANCH  12  15
ATOM     13  O   UNL     1      30.713 -25.105 -14.385  0.00  0.00    -0.268 OA
ATOM     14  N   UNL     1      31.258 -23.449 -12.877  0.00  0.00    -0.194 N 
ATOM     15  C   UNL     1      31.284 -24.023 -14.143  0.00  0.00    +0.267 C 
ATOM     16  H   UNL     1      31.712 -22.595 -12.691  0.00  0.00    +0.183 HD
BRANCH  14  17
ATOM     17  O   UNL     1      30.558 -24.141 -11.879  0.00  0.00    -0.295 OA
ATOM     18  H   UNL     1      31.108 -24.866 -11.542  0.00  0.00    +0.241 HD
ENDBRANCH  14  17
ENDBRANCH  12  15
BRANCH   4  19
ATOM     19  C   UNL     1      36.000 -18.710 -20.971  0.00  0.00    -0.081 C 
BRANCH  19  20
ATOM     20  N   UNL     1      35.161 -18.228 -22.056  0.00  0.00    +0.386 N 
ATOM     21  H   UNL     1      34.366 -17.721 -21.664  0.00  0.00    -0.084 HD
ATOM     22  H   UNL     1      34.840 -19.029 -22.600  0.00  0.00    -0.084 HD
BRANCH  20  23
ATOM     23  C   UNL     1      35.906 -17.337 -22.937  0.00  0.00    -0.053 C 
BRANCH  23  25
ATOM     24  N   UNL     1      34.106 -14.377 -24.091  0.00  0.00    -0.284 N 
ATOM     25  C   UNL     1      35.161 -16.046 -23.134  0.00  0.00    -0.028 C 
ATOM     26  C   UNL     1      34.797 -15.146 -22.115  0.00  0.00    +0.009 C 
ATOM     27  C   UNL     1      34.735 -15.568 -24.335  0.00  0.00    +0.059 C 
ATOM     28  C   UNL     1      34.129 -14.094 -22.745  0.00  0.00    +0.051 C 
ATOM     29  C   UNL     1      34.961 -15.105 -20.717  0.00  0.00    +0.001 C 
ATOM     30  C   UNL     1      33.614 -12.998 -22.042  0.00  0.00    +0.015 C 
ATOM     31  C   UNL     1      33.506 -13.548 -25.115  0.00  0.00    +0.117 C 
ATOM     32  C   UNL     1      34.452 -14.015 -20.000  0.00  0.00    +0.000 C 
ATOM     33  C   UNL     1      33.788 -12.979 -20.655  0.00  0.00    +0.001 C 
ENDBRANCH  23  25
ENDBRANCH  20  23
ENDBRANCH  19  20
ENDBRANCH   4  19
TORSDOF 6
ENDMDL
MODEL 4
REMARK VINA RESULT:     -11.4      2.214      2.927
REMARK  Name = 11538455
REMARK  6 active torsions:
REMARK  status: ('A' for Active; 'I' for Inactive)
REMARK    1  A    between atoms: C_4  and  C_19
REMARK    2  A    between atoms: C_12  and  C_15
REMARK    3  A    between atoms: N_14  and  O_17
REMARK    4  A    between atoms: C_19  and  N_20
REMARK    5  A    between atoms: N_20  and  C_23
REMARK    6  A    between atoms: C_23  and  C_25
REMARK                            x       y       z     vdW  Elec       q    Type
REMARK                         _______ _______ _______ _____ _____    ______ ____
ROOT
ATOM      1  N   UNL     1      34.378 -21.429 -17.736  0.00  0.00    -0.253 N 
ATOM      2  N   UNL     1      34.061 -22.895 -15.913  0.00  0.00    -0.203 NA
ATOM      3  N   UNL     1      32.177 -21.853 -16.995  0.00  0.00    -0.180 NA
ATOM      4  C   UNL     1      36.147 -20.186 -19.661  0.00  0.00    -0.018 C 
ATOM      5  C   UNL     1      36.593 -20.470 -18.224  0.00  0.00    +0.020 C 
ATOM      6  C   UNL     1      34.633 -19.949 -19.689  0.00  0.00    +0.020 C 
ATOM      7  C   UNL     1      35.824 -21.644 -17.617  0.00  0.00    +0.101 C 
ATOM      8  C   UNL     1      33.872 -21.127 -19.082  0.00  0.00    +0.101 C 
ATOM      9  C   UNL     1      33.509 -22.081 -16.852  0.00  0.00    +0.090 C 
ATOM     10  C   UNL     1      33.196 -23.505 -15.076  0.00  0.00    +0.170 C 
ATOM     11  C   UNL     1      31.369 -22.495 -16.126  0.00  0.00    +0.113 C 
ATOM     12  C   UNL     1      31.827 -23.342 -15.137  0.00  0.00    +0.078 C 
ENDROOT
BRANCH  12  15
ATOM     13  O   UNL     1      31.328 -24.416 -13.109  0.00  0.00    -0.268 OA
ATOM     14  N   UNL     1      29.616 -24.204 -14.639  0.00  0.00    -0.194 N 
ATOM     15  C   UNL     1      30.928 -24.016 -14.221  0.00  0.00    +0.267 C 
ATOM     16  H   UNL     1      29.305 -23.885 -15.517  0.00  0.00    +0.183 HD
BRANCH  14  17
ATOM     17  O   UNL     1      28.756 -24.868 -13.752  0.00  0.00    -0.295 OA
ATOM     18  H   UNL     1      28.424 -25.678 -14.170  0.00  0.00    +0.241 HD
ENDBRANCH  14  17
ENDBRANCH  12  15
BRANCH   4  19
ATOM     19  C   UNL     1      36.895 -18.985 -20.236  0.00  0.00    -0.081 C 
BRANCH  19  20
ATOM     20  N   UNL     1      36.003 -17.848 -20.401  0.00  0.00    +0.386 N 
ATOM     21  H   UNL     1      36.228 -17.143 -19.698  0.00  0.00    -0.084 HD
ATOM     22  H   UNL     1      35.041 -18.169 -20.288  0.00  0.00    -0.084 HD
BRANCH  20  23
ATOM     23  C   UNL     1      36.144 -17.261 -21.727  0.00  0.00    -0.053 C 
BRANCH  23  25
ATOM     24  N   UNL     1      34.330 -14.125 -21.274  0.00  0.00    -0.284 N 
ATOM     25  C   UNL     1      35.358 -15.983 -21.825  0.00  0.00    -0.028 C 
ATOM     26  C   UNL     1      34.835 -15.431 -23.009  0.00  0.00    +0.009 C 
ATOM     27  C   UNL     1      35.046 -15.179 -20.773  0.00  0.00    +0.059 C 
ATOM     28  C   UNL     1      34.186 -14.253 -22.636  0.00  0.00    +0.051 C 
ATOM     29  C   UNL     1      34.839 -15.803 -24.368  0.00  0.00    +0.001 C 
ATOM     30  C   UNL     1      33.537 -13.423 -23.559  0.00  0.00    +0.015 C 
ATOM     31  C   UNL     1      33.808 -13.039 -20.471  0.00  0.00    +0.117 C 
ATOM     32  C   UNL     1      34.194 -14.983 -25.303  0.00  0.00    +0.000 C 
ATOM     33  C   UNL     1      33.554 -13.812 -24.902  0.00  0.00    +0.001 C 
ENDBRANCH  23  25
ENDBRANCH  20  23
ENDBRANCH  19  20
ENDBRANCH   4  19
TORSDOF 6
ENDMDL
MODEL 5
REMARK VINA RESULT:     -10.9      0.867      1.608
REMARK  Name = 11538455
REMARK  6 active torsions:
REMARK  status: ('A' for Active; 'I' for Inactive)
REMARK    1  A    between atoms: C_4  and  C_19
REMARK    2  A    between atoms: C_12  and  C_15
REMARK    3  A    between atoms: N_14  and  O_17
REMARK    4  A    between atoms: C_19  and  N_20
REMARK    5  A    between atoms: N_20  and  C_23
REMARK    6  A    between atoms: C_23  and  C_25
REMARK                            x       y       z     vdW  Elec       q    Type
REMARK                         _______ _______ _______ _____ _____    ______ ____
ROOT
ATOM      1  N   UNL     1      35.741 -21.643 -17.089  0.00  0.00    -0.253 N 
ATOM      2  N   UNL     1      34.792 -22.624 -15.163  0.00  0.00    -0.203 NA
ATOM      3  N   UNL     1      37.182 -22.561 -15.460  0.00  0.00    -0.180 NA
ATOM      4  C   UNL     1      35.413 -20.162 -19.555  0.00  0.00    -0.018 C 
ATOM      5  C   UNL     1      34.372 -21.183 -19.084  0.00  0.00    +0.020 C 
ATOM      6  C   UNL     1      36.797 -20.568 -19.038  0.00  0.00    +0.020 C 
ATOM      7  C   UNL     1      34.386 -21.341 -17.563  0.00  0.00    +0.101 C 
ATOM      8  C   UNL     1      36.802 -20.722 -17.518  0.00  0.00    +0.101 C 
ATOM      9  C   UNL     1      35.911 -22.298 -15.863  0.00  0.00    +0.090 C 
ATOM     10  C   UNL     1      34.992 -23.256 -13.988  0.00  0.00    +0.170 C 
ATOM     11  C   UNL     1      37.310 -23.194 -14.276  0.00  0.00    +0.113 C 
ATOM     12  C   UNL     1      36.240 -23.570 -13.489  0.00  0.00    +0.078 C 
ENDROOT
BRANCH  12  15
ATOM     13  O   UNL     1      37.430 -24.942 -12.001  0.00  0.00    -0.268 OA
ATOM     14  N   UNL     1      35.409 -24.105 -11.275  0.00  0.00    -0.194 N 
ATOM     15  C   UNL     1      36.417 -24.249 -12.221  0.00  0.00    +0.267 C 
ATOM     16  H   UNL     1      34.611 -23.555 -11.453  0.00  0.00    +0.183 HD
BRANCH  14  17
ATOM     17  O   UNL     1      35.581 -24.775 -10.055  0.00  0.00    -0.295 OA
ATOM     18  H   UNL     1      35.199 -24.245  -9.338  0.00  0.00    +0.241 HD
ENDBRANCH  14  17
ENDBRANCH  12  15
BRANCH   4  19
ATOM     19  C   UNL     1      35.414 -20.050 -21.078  0.00  0.00    -0.081 C 
BRANCH  19  20
ATOM     20  N   UNL     1      34.899 -18.757 -21.503  0.00  0.00    +0.386 N 
ATOM     21  H   UNL     1      34.149 -18.473 -20.872  0.00  0.00    -0.084 HD
ATOM     22  H   UNL     1      34.550 -18.843 -22.457  0.00  0.00    -0.084 HD
BRANCH  20  23
ATOM     23  C   UNL     1      35.948 -17.745 -21.482  0.00  0.00    -0.053 C 
BRANCH  23  25
ATOM     24  N   UNL     1      34.663 -14.332 -21.294  0.00  0.00    -0.284 N 
ATOM     25  C   UNL     1      35.363 -16.374 -21.685  0.00  0.00    -0.028 C 
ATOM     26  C   UNL     1      34.864 -15.868 -22.899  0.00  0.00    +0.009 C 
ATOM     27  C   UNL     1      35.236 -15.431 -20.713  0.00  0.00    +0.059 C 
ATOM     28  C   UNL     1      34.425 -14.570 -22.628  0.00  0.00    +0.051 C 
ATOM     29  C   UNL     1      34.735 -16.368 -24.209  0.00  0.00    +0.001 C 
ATOM     30  C   UNL     1      33.859 -13.744 -23.608  0.00  0.00    +0.015 C 
ATOM     31  C   UNL     1      34.360 -13.103 -20.592  0.00  0.00    +0.117 C 
ATOM     32  C   UNL     1      34.171 -15.554 -25.200  0.00  0.00    +0.000 C 
ATOM     33  C   UNL     1      33.741 -14.262 -24.901  0.00  0.00    +0.001 C 
ENDBRANCH  23  25
ENDBRANCH  20  23
ENDBRANCH  19  20
ENDBRANCH   4  19
TORSDOF 6
ENDMDL
MODEL 6
REMARK VINA RESULT:     -10.8      5.423     11.536
REMARK  Name = 11538455
REMARK  6 active torsions:
REMARK  status: ('A' for Active; 'I' for Inactive)
REMARK    1  A    between atoms: C_4  and  C_19
REMARK    2  A    between atoms: C_12  and  C_15
REMARK    3  A    between atoms: N_14  and  O_17
REMARK    4  A    between atoms: C_19  and  N_20
REMARK    5  A    between atoms: N_20  and  C_23
REMARK    6  A    between atoms: C_23  and  C_25
REMARK                            x       y       z     vdW  Elec       q    Type
REMARK                         _______ _______ _______ _____ _____    ______ ____
ROOT
ATOM      1  N   UNL     1      34.587 -14.485 -21.718  0.00  0.00    -0.253 N 
ATOM      2  N   UNL     1      34.246 -12.555 -23.034  0.00  0.00    -0.203 NA
ATOM      3  N   UNL     1      33.295 -12.722 -20.826  0.00  0.00    -0.180 NA
ATOM      4  C   UNL     1      35.862 -17.057 -21.343  0.00  0.00    -0.018 C 
ATOM      5  C   UNL     1      35.403 -16.579 -22.725  0.00  0.00    +0.020 C 
ATOM      6  C   UNL     1      34.967 -16.438 -20.265  0.00  0.00    +0.020 C 
ATOM      7  C   UNL     1      35.380 -15.053 -22.813  0.00  0.00    +0.101 C 
ATOM      8  C   UNL     1      34.950 -14.913 -20.361  0.00  0.00    +0.101 C 
ATOM      9  C   UNL     1      34.024 -13.211 -21.864  0.00  0.00    +0.090 C 
ATOM     10  C   UNL     1      33.687 -11.332 -23.142  0.00  0.00    +0.170 C 
ATOM     11  C   UNL     1      32.765 -11.494 -21.002  0.00  0.00    +0.113 C 
ATOM     12  C   UNL     1      32.930 -10.745 -22.149  0.00  0.00    +0.078 C 
ENDROOT
BRANCH  12  15
ATOM     13  O   UNL     1      31.498  -9.005 -21.489  0.00  0.00    -0.268 OA
ATOM     14  N   UNL     1      32.760  -8.667 -23.388  0.00  0.00    -0.194 N 
ATOM     15  C   UNL     1      32.346  -9.427 -22.300  0.00  0.00    +0.267 C 
ATOM     16  H   UNL     1      33.431  -9.004 -24.025  0.00  0.00    +0.183 HD
BRANCH  14  17
ATOM     17  O   UNL     1      32.181  -7.398 -23.535  0.00  0.00    -0.295 OA
ATOM     18  H   UNL     1      32.094  -7.190 -24.478  0.00  0.00    +0.241 HD
ENDBRANCH  14  17
ENDBRANCH  12  15
BRANCH   4  19
ATOM     19  C   UNL     1      35.838 -18.582 -21.260  0.00  0.00    -0.081 C 
BRANCH  19  20
ATOM     20  N   UNL     1      35.763 -19.024 -19.876  0.00  0.00    +0.386 N 
ATOM     21  H   UNL     1      35.091 -18.442 -19.376  0.00  0.00    -0.084 HD
ATOM     22  H   UNL     1      36.689 -18.942 -19.457  0.00  0.00    -0.084 HD
BRANCH  20  23
ATOM     23  C   UNL     1      35.339 -20.417 -19.795  0.00  0.00    -0.053 C 
BRANCH  23  25
ATOM     24  N   UNL     1      36.640 -21.547 -16.576  0.00  0.00    -0.284 N 
ATOM     25  C   UNL     1      35.605 -20.970 -18.423  0.00  0.00    -0.028 C 
ATOM     26  C   UNL     1      34.653 -21.585 -17.588  0.00  0.00    +0.009 C 
ATOM     27  C   UNL     1      36.813 -20.951 -17.797  0.00  0.00    +0.059 C 
ATOM     28  C   UNL     1      35.332 -21.943 -16.422  0.00  0.00    +0.051 C 
ATOM     29  C   UNL     1      33.280 -21.880 -17.693  0.00  0.00    +0.001 C 
ATOM     30  C   UNL     1      34.702 -22.586 -15.349  0.00  0.00    +0.015 C 
ATOM     31  C   UNL     1      37.694 -21.723 -15.599  0.00  0.00    +0.117 C 
ATOM     32  C   UNL     1      32.636 -22.523 -16.628  0.00  0.00    +0.000 C 
ATOM     33  C   UNL     1      33.339 -22.869 -15.474  0.00  0.00    +0.001 C 
ENDBRANCH  23  25
ENDBRANCH  20  23
ENDBRANCH  19  20
ENDBRANCH   4  19
TORSDOF 6
ENDMDL
MODEL 7
REMARK VINA RESULT:     -10.7      1.800      3.407
REMARK  Name = 11538455
REMARK  6 active torsions:
REMARK  status: ('A' for Active; 'I' for Inactive)
REMARK    1  A    between atoms: C_4  and  C_19
REMARK    2  A    between atoms: C_12  and  C_15
REMARK    3  A    between atoms: N_14  and  O_17
REMARK    4  A    between atoms: C_19  and  N_20
REMARK    5  A    between atoms: N_20  and  C_23
REMARK    6  A    between atoms: C_23  and  C_25
REMARK                            x       y       z     vdW  Elec       q    Type
REMARK                         _______ _______ _______ _____ _____    ______ ____
ROOT
ATOM      1  N   UNL     1      35.741 -19.755 -19.628  0.00  0.00    -0.253 N 
ATOM      2  N   UNL     1      36.891 -20.618 -17.756  0.00  0.00    -0.203 NA
ATOM      3  N   UNL     1      34.584 -21.189 -18.153  0.00  0.00    -0.180 NA
ATOM      4  C   UNL     1      35.770 -18.238 -22.094  0.00  0.00    -0.018 C 
ATOM      5  C   UNL     1      36.632 -17.838 -20.892  0.00  0.00    +0.020 C 
ATOM      6  C   UNL     1      34.506 -18.950 -21.602  0.00  0.00    +0.020 C 
ATOM      7  C   UNL     1      36.965 -19.043 -20.012  0.00  0.00    +0.101 C 
ATOM      8  C   UNL     1      34.848 -20.153 -20.725  0.00  0.00    +0.101 C 
ATOM      9  C   UNL     1      35.738 -20.548 -18.474  0.00  0.00    +0.090 C 
ATOM     10  C   UNL     1      36.853 -21.387 -16.649  0.00  0.00    +0.170 C 
ATOM     11  C   UNL     1      34.616 -21.941 -17.033  0.00  0.00    +0.113 C 
ATOM     12  C   UNL     1      35.733 -22.079 -16.235  0.00  0.00    +0.078 C 
ENDROOT
BRANCH  12  15
ATOM     13  O   UNL     1      36.097 -24.090 -15.077  0.00  0.00    -0.268 OA
ATOM     14  N   UNL     1      35.290 -22.306 -13.861  0.00  0.00    -0.194 N 
ATOM     15  C   UNL     1      35.729 -22.899 -15.039  0.00  0.00    +0.267 C 
ATOM     16  H   UNL     1      35.001 -21.364 -13.836  0.00  0.00    +0.183 HD
BRANCH  14  17
ATOM     17  O   UNL     1      35.277 -23.108 -12.711  0.00  0.00    -0.295 OA
ATOM     18  H   UNL     1      34.434 -22.993 -12.245  0.00  0.00    +0.241 HD
ENDBRANCH  14  17
ENDBRANCH  12  15
BRANCH   4  19
ATOM     19  C   UNL     1      35.413 -17.016 -22.937  0.00  0.00    -0.081 C 
BRANCH  19  20
ATOM     20  N   UNL     1      35.855 -15.791 -22.289  0.00  0.00    +0.386 N 
ATOM     21  H   UNL     1      36.021 -15.079 -23.001  0.00  0.00    -0.084 HD
ATOM     22  H   UNL     1      36.714 -15.987 -21.774  0.00  0.00    -0.084 HD
BRANCH  20  23
ATOM     23  C   UNL     1      34.852 -15.303 -21.351  0.00  0.00    -0.053 C 
BRANCH  23  25
ATOM     24  N   UNL     1      33.988 -12.147 -22.971  0.00  0.00    -0.284 N 
ATOM     25  C   UNL     1      34.325 -13.966 -21.791  0.00  0.00    -0.028 C 
ATOM     26  C   UNL     1      33.389 -13.183 -21.089  0.00  0.00    +0.009 C 
ATOM     27  C   UNL     1      34.683 -13.326 -22.937  0.00  0.00    +0.059 C 
ATOM     28  C   UNL     1      33.190 -12.033 -21.856  0.00  0.00    +0.051 C 
ATOM     29  C   UNL     1      32.682 -13.322 -19.879  0.00  0.00    +0.001 C 
ATOM     30  C   UNL     1      32.315 -11.011 -21.471  0.00  0.00    +0.015 C 
ATOM     31  C   UNL     1      34.088 -11.172 -24.037  0.00  0.00    +0.117 C 
ATOM     32  C   UNL     1      31.803 -12.307 -19.480  0.00  0.00    +0.000 C 
ATOM     33  C   UNL     1      31.624 -11.170 -20.266  0.00  0.00    +0.001 C 
ENDBRANCH  23  25
ENDBRANCH  20  23
ENDBRANCH  19  20
ENDBRANCH   4  19
TORSDOF 6
ENDMDL
MODEL 8
REMARK VINA RESULT:     -10.6      4.593     11.301
REMARK  Name = 11538455
REMARK  6 active torsions:
REMARK  status: ('A' for Active; 'I' for Inactive)
REMARK    1  A    between atoms: C_4  and  C_19
REMARK    2  A    between atoms: C_12  and  C_15
REMARK    3  A    between atoms: N_14  and  O_17
REMARK    4  A    between atoms: C_19  and  N_20
REMARK    5  A    between atoms: N_20  and  C_23
REMARK    6  A    between atoms: C_23  and  C_25
REMARK                            x       y       z     vdW  Elec       q    Type
REMARK                         _______ _______ _______ _____ _____    ______ ____
ROOT
ATOM      1  N   UNL     1      35.497 -19.859 -19.575  0.00  0.00    -0.253 N 
ATOM      2  N   UNL     1      34.298 -19.179 -21.491  0.00  0.00    -0.203 NA
ATOM      3  N   UNL     1      36.268 -17.984 -20.784  0.00  0.00    -0.180 NA
ATOM      4  C   UNL     1      35.900 -21.756 -17.425  0.00  0.00    -0.018 C 
ATOM      5  C   UNL     1      34.499 -21.400 -17.934  0.00  0.00    +0.020 C 
ATOM      6  C   UNL     1      36.836 -20.561 -17.630  0.00  0.00    +0.020 C 
ATOM      7  C   UNL     1      34.529 -20.945 -19.393  0.00  0.00    +0.101 C 
ATOM      8  C   UNL     1      36.861 -20.114 -19.091  0.00  0.00    +0.101 C 
ATOM      9  C   UNL     1      35.351 -18.977 -20.653  0.00  0.00    +0.090 C 
ATOM     10  C   UNL     1      34.185 -18.310 -22.517  0.00  0.00    +0.170 C 
ATOM     11  C   UNL     1      36.095 -17.152 -21.832  0.00  0.00    +0.113 C 
ATOM     12  C   UNL     1      35.062 -17.268 -22.740  0.00  0.00    +0.078 C 
ENDROOT
BRANCH  12  15
ATOM     13  O   UNL     1      35.620 -15.334 -23.949  0.00  0.00    -0.268 OA
ATOM     14  N   UNL     1      33.934 -16.658 -24.798  0.00  0.00    -0.194 N 
ATOM     15  C   UNL     1      34.909 -16.355 -23.855  0.00  0.00    +0.267 C 
ATOM     16  H   UNL     1      33.376 -17.466 -24.720  0.00  0.00    +0.183 HD
BRANCH  14  17
ATOM     17  O   UNL     1      33.783 -15.763 -25.867  0.00  0.00    -0.295 OA
ATOM     18  H   UNL     1      33.620 -16.259 -26.684  0.00  0.00    +0.241 HD
ENDBRANCH  14  17
ENDBRANCH  12  15
BRANCH   4  19
ATOM     19  C   UNL     1      35.856 -22.167 -15.955  0.00  0.00    -0.081 C 
BRANCH  19  20
ATOM     20  N   UNL     1      34.539 -22.670 -15.596  0.00  0.00    +0.386 N 
ATOM     21  H   UNL     1      33.975 -22.761 -16.441  0.00  0.00    -0.084 HD
ATOM     22  H   UNL     1      34.106 -22.014 -14.947  0.00  0.00    -0.084 HD
BRANCH  20  23
ATOM     23  C   UNL     1      34.636 -23.971 -14.946  0.00  0.00    -0.053 C 
BRANCH  23  25
ATOM     24  N   UNL     1      36.373 -23.502 -11.768  0.00  0.00    -0.284 N 
ATOM     25  C   UNL     1      35.572 -23.906 -13.771  0.00  0.00    -0.028 C 
ATOM     26  C   UNL     1      36.894 -24.386 -13.748  0.00  0.00    +0.009 C 
ATOM     27  C   UNL     1      35.263 -23.369 -12.559  0.00  0.00    +0.059 C 
ATOM     28  C   UNL     1      37.384 -24.120 -12.468  0.00  0.00    +0.051 C 
ATOM     29  C   UNL     1      37.739 -25.023 -14.679  0.00  0.00    +0.001 C 
ATOM     30  C   UNL     1      38.683 -24.459 -12.070  0.00  0.00    +0.015 C 
ATOM     31  C   UNL     1      36.453 -23.053 -10.394  0.00  0.00    +0.117 C 
ATOM     32  C   UNL     1      39.041 -25.369 -14.295  0.00  0.00    +0.000 C 
ATOM     33  C   UNL     1      39.503 -25.091 -13.010  0.00  0.00    +0.001 C 
ENDBRANCH  23  25
ENDBRANCH  20  23
ENDBRANCH  19  20
ENDBRANCH   4  19
TORSDOF 6
ENDMDL
MODEL 9
REMARK VINA RESULT:     -10.6      5.408     11.558
REMARK  Name = 11538455
REMARK  6 active torsions:
REMARK  status: ('A' for Active; 'I' for Inactive)
REMARK    1  A    between atoms: C_4  and  C_19
REMARK    2  A    between atoms: C_12  and  C_15
REMARK    3  A    between atoms: N_14  and  O_17
REMARK    4  A    between atoms: C_19  and  N_20
REMARK    5  A    between atoms: N_20  and  C_23
REMARK    6  A    between atoms: C_23  and  C_25
REMARK                            x       y       z     vdW  Elec       q    Type
REMARK                         _______ _______ _______ _____ _____    ______ ____
ROOT
ATOM      1  N   UNL     1      34.623 -14.530 -21.690  0.00  0.00    -0.253 N 
ATOM      2  N   UNL     1      34.281 -12.600 -23.005  0.00  0.00    -0.203 NA
ATOM      3  N   UNL     1      33.335 -12.766 -20.796  0.00  0.00    -0.180 NA
ATOM      4  C   UNL     1      35.895 -17.104 -21.318  0.00  0.00    -0.018 C 
ATOM      5  C   UNL     1      35.434 -16.625 -22.698  0.00  0.00    +0.020 C 
ATOM      6  C   UNL     1      35.003 -16.483 -20.238  0.00  0.00    +0.020 C 
ATOM      7  C   UNL     1      35.413 -15.099 -22.787  0.00  0.00    +0.101 C 
ATOM      8  C   UNL     1      34.989 -14.958 -20.333  0.00  0.00    +0.101 C 
ATOM      9  C   UNL     1      34.061 -13.255 -21.834  0.00  0.00    +0.090 C 
ATOM     10  C   UNL     1      33.723 -11.376 -23.112  0.00  0.00    +0.170 C 
ATOM     11  C   UNL     1      32.806 -11.537 -20.970  0.00  0.00    +0.113 C 
ATOM     12  C   UNL     1      32.969 -10.788 -22.117  0.00  0.00    +0.078 C 
ENDROOT
BRANCH  12  15
ATOM     13  O   UNL     1      31.539  -9.047 -21.455  0.00  0.00    -0.268 OA
ATOM     14  N   UNL     1      32.800  -8.709 -23.355  0.00  0.00    -0.194 N 
ATOM     15  C   UNL     1      32.386  -9.469 -22.267  0.00  0.00    +0.267 C 
ATOM     16  H   UNL     1      33.470  -9.047 -23.993  0.00  0.00    +0.183 HD
BRANCH  14  17
ATOM     17  O   UNL     1      32.222  -7.440 -23.500  0.00  0.00    -0.295 OA
ATOM     18  H   UNL     1      32.720  -6.931 -24.159  0.00  0.00    +0.241 HD
ENDBRANCH  14  17
ENDBRANCH  12  15
BRANCH   4  19
ATOM     19  C   UNL     1      35.870 -18.628 -21.234  0.00  0.00    -0.081 C 
BRANCH  19  20
ATOM     20  N   UNL     1      35.540 -19.068 -19.888  0.00  0.00    +0.386 N 
ATOM     21  H   UNL     1      34.530 -19.200 -19.818  0.00  0.00    -0.084 HD
ATOM     22  H   UNL     1      35.853 -18.358 -19.227  0.00  0.00    -0.084 HD
BRANCH  20  23
ATOM     23  C   UNL     1      36.206 -20.325 -19.570  0.00  0.00    -0.053 C 
BRANCH  23  25
ATOM     24  N   UNL     1      33.951 -21.999 -17.237  0.00  0.00    -0.284 N 
ATOM     25  C   UNL     1      35.507 -21.022 -18.436  0.00  0.00    -0.028 C 
ATOM     26  C   UNL     1      36.094 -21.383 -17.209  0.00  0.00    +0.009 C 
ATOM     27  C   UNL     1      34.201 -21.402 -18.443  0.00  0.00    +0.059 C 
ATOM     28  C   UNL     1      35.089 -22.001 -16.463  0.00  0.00    +0.051 C 
ATOM     29  C   UNL     1      37.378 -21.254 -16.643  0.00  0.00    +0.001 C 
ATOM     30  C   UNL     1      35.304 -22.499 -15.172  0.00  0.00    +0.015 C 
ATOM     31  C   UNL     1      32.668 -22.545 -16.847  0.00  0.00    +0.117 C 
ATOM     32  C   UNL     1      37.608 -21.746 -15.352  0.00  0.00    +0.000 C 
ATOM     33  C   UNL     1      36.585 -22.359 -14.631  0.00  0.00    +0.001 C 
ENDBRANCH  23  25
ENDBRANCH  20  23
ENDBRANCH  19  20
ENDBRANCH   4  19
TORSDOF 6
ENDMDL
