MODEL 1
REMARK VINA RESULT:      -9.8      0.000      0.000
REMARK  Name = 447622
REMARK  7 active torsions:
REMARK  status: ('A' for Active; 'I' for Inactive)
REMARK    1  A    between atoms: N_2  and  C_13
REMARK    2  A    between atoms: C_5  and  C_28
REMARK    3  A    between atoms: C_10  and  C_16
REMARK    4  A    between atoms: C_16  and  C_17
REMARK    5  A    between atoms: C_17  and  N_19
REMARK    6  A    between atoms: C_25  and  C_31
REMARK    7  A    between atoms: C_31  and  N_34
REMARK                            x       y       z     vdW  Elec       q    Type
REMARK                         _______ _______ _______ _____ _____    ______ ____
ROOT
ATOM      1 CL   UNL     1      33.208 -11.699 -25.150  0.00  0.00    -0.078 Cl
ATOM      2  N   UNL     1      35.362 -16.945 -23.875  0.00  0.00    -0.247 N 
ATOM      3  N   UNL     1      34.335 -14.967 -23.136  0.00  0.00    -0.337 NA
ATOM      4  N   UNL     1      34.887 -15.282 -25.461  0.00  0.00    -0.169 NA
ATOM      5  C   UNL     1      33.841 -13.754 -23.456  0.00  0.00    +0.156 C 
ATOM      6  C   UNL     1      34.836 -15.672 -24.172  0.00  0.00    +0.149 C 
ATOM      7  C   UNL     1      33.835 -13.242 -24.737  0.00  0.00    +0.108 C 
ATOM      8  C   UNL     1      34.376 -14.058 -25.710  0.00  0.00    +0.126 C 
ATOM      9  H   UNL     1      35.717 -17.420 -24.660  0.00  0.00    +0.165 HD
ENDROOT
BRANCH   2  13
ATOM     10  C   UNL     1      35.708 -19.107 -20.310  0.00  0.00    -0.024 C 
ATOM     11  C   UNL     1      34.604 -19.307 -21.123  0.00  0.00    -0.003 C 
ATOM     12  C   UNL     1      36.700 -18.202 -20.656  0.00  0.00    -0.003 C 
ATOM     13  C   UNL     1      35.478 -17.672 -22.672  0.00  0.00    +0.058 C 
ATOM     14  C   UNL     1      34.488 -18.586 -22.311  0.00  0.00    +0.015 C 
ATOM     15  C   UNL     1      36.584 -17.481 -21.844  0.00  0.00    +0.015 C 
BRANCH  10  16
ATOM     16  C   UNL     1      35.833 -19.886 -19.024  0.00  0.00    +0.004 C 
BRANCH  16  17
ATOM     17  C   UNL     1      34.988 -21.160 -19.057  0.00  0.00    -0.072 C 
BRANCH  17  19
ATOM     18  O   UNL     1      35.024 -22.228 -14.998  0.00  0.00    -0.358 OA
ATOM     19  N   UNL     1      35.155 -21.930 -17.826  0.00  0.00    +0.391 N 
ATOM     20  C   UNL     1      36.137 -21.291 -16.939  0.00  0.00    -0.045 C 
ATOM     21  C   UNL     1      33.871 -22.082 -17.127  0.00  0.00    -0.045 C 
ATOM     22  C   UNL     1      36.285 -22.105 -15.657  0.00  0.00    +0.119 C 
ATOM     23  C   UNL     1      34.072 -22.878 -15.841  0.00  0.00    +0.119 C 
ATOM     24  H   UNL     1      35.500 -22.855 -18.080  0.00  0.00    -0.079 HD
ENDBRANCH  17  19
ENDBRANCH  16  17
ENDBRANCH  10  16
ENDBRANCH   2  13
BRANCH   5  28
ATOM     25  C   UNL     1      32.289 -11.628 -20.136  0.00  0.00    -0.041 C 
ATOM     26  C   UNL     1      32.654 -12.967 -19.998  0.00  0.00    -0.006 C 
ATOM     27  C   UNL     1      32.435 -10.988 -21.367  0.00  0.00    -0.006 C 
ATOM     28  C   UNL     1      33.312 -13.028 -22.322  0.00  0.00    +0.031 C 
ATOM     29  C   UNL     1      33.165 -13.667 -21.091  0.00  0.00    +0.002 C 
ATOM     30  C   UNL     1      32.947 -11.688 -22.460  0.00  0.00    +0.002 C 
BRANCH  25  31
ATOM     31  C   UNL     1      31.743 -10.880 -18.967  0.00  0.00    -0.029 C 
ATOM     32  C   UNL     1      30.274 -10.439 -19.228  0.00  0.00    -0.018 C 
ATOM     33  C   UNL     1      32.523  -9.591 -18.560  0.00  0.00    -0.018 C 
BRANCH  31  34
ATOM     34  N   UNL     1      31.721 -11.723 -17.738  0.00  0.00    +0.385 N 
ATOM     35  H   UNL     1      30.764 -11.796 -17.393  0.00  0.00    -0.089 HD
ATOM     36  H   UNL     1      32.308 -11.295 -17.022  0.00  0.00    -0.089 HD
ATOM     37  H   UNL     1      32.075 -12.654 -17.958  0.00  0.00    -0.089 HD
ENDBRANCH  31  34
ENDBRANCH  25  31
ENDBRANCH   5  28
TORSDOF 7
ENDMDL
MODEL 2
REMARK VINA RESULT:      -9.6      0.831      1.559
REMARK  Name = 447622
REMARK  7 active torsions:
REMARK  status: ('A' for Active; 'I' for Inactive)
REMARK    1  A    between atoms: N_2  and  C_13
REMARK    2  A    between atoms: C_5  and  C_28
REMARK    3  A    between atoms: C_10  and  C_16
REMARK    4  A    between atoms: C_16  and  C_17
REMARK    5  A    between atoms: C_17  and  N_19
REMARK    6  A    between atoms: C_25  and  C_31
REMARK    7  A    between atoms: C_31  and  N_34
REMARK                            x       y       z     vdW  Elec       q    Type
REMARK                         _______ _______ _______ _____ _____    ______ ____
ROOT
ATOM      1 CL   UNL     1      33.426 -11.291 -25.055  0.00  0.00    -0.078 Cl
ATOM      2  N   UNL     1      35.176 -16.714 -23.910  0.00  0.00    -0.247 N 
ATOM      3  N   UNL     1      34.222 -14.713 -23.140  0.00  0.00    -0.337 NA
ATOM      4  N   UNL     1      34.906 -14.954 -25.438  0.00  0.00    -0.169 NA
ATOM      5  C   UNL     1      33.823 -13.458 -23.429  0.00  0.00    +0.156 C 
ATOM      6  C   UNL     1      34.748 -15.399 -24.176  0.00  0.00    +0.149 C 
ATOM      7  C   UNL     1      33.932 -12.887 -24.681  0.00  0.00    +0.108 C 
ATOM      8  C   UNL     1      34.487 -13.690 -25.657  0.00  0.00    +0.126 C 
ATOM      9  H   UNL     1      35.553 -17.174 -24.694  0.00  0.00    +0.165 HD
ENDROOT
BRANCH   2  13
ATOM     10  C   UNL     1      35.155 -19.049 -20.439  0.00  0.00    -0.024 C 
ATOM     11  C   UNL     1      36.007 -17.958 -20.521  0.00  0.00    -0.003 C 
ATOM     12  C   UNL     1      34.310 -19.381 -21.487  0.00  0.00    -0.003 C 
ATOM     13  C   UNL     1      35.170 -17.502 -22.740  0.00  0.00    +0.058 C 
ATOM     14  C   UNL     1      36.014 -17.181 -21.678  0.00  0.00    +0.015 C 
ATOM     15  C   UNL     1      34.318 -18.602 -22.644  0.00  0.00    +0.015 C 
BRANCH  10  16
ATOM     16  C   UNL     1      35.148 -19.891 -19.188  0.00  0.00    +0.004 C 
BRANCH  16  17
ATOM     17  C   UNL     1      36.510 -20.540 -18.940  0.00  0.00    -0.072 C 
BRANCH  17  19
ATOM     18  O   UNL     1      35.862 -21.841 -15.002  0.00  0.00    -0.358 OA
ATOM     19  N   UNL     1      36.481 -21.377 -17.742  0.00  0.00    +0.391 N 
ATOM     20  C   UNL     1      37.271 -20.769 -16.662  0.00  0.00    -0.045 C 
ATOM     21  C   UNL     1      35.099 -21.596 -17.292  0.00  0.00    -0.045 C 
ATOM     22  C   UNL     1      37.215 -21.654 -15.420  0.00  0.00    +0.119 C 
ATOM     23  C   UNL     1      35.094 -22.461 -16.035  0.00  0.00    +0.119 C 
ATOM     24  H   UNL     1      36.893 -22.278 -17.980  0.00  0.00    -0.079 HD
ENDBRANCH  17  19
ENDBRANCH  16  17
ENDBRANCH  10  16
ENDBRANCH   2  13
BRANCH   5  28
ATOM     25  C   UNL     1      32.188 -11.393 -20.110  0.00  0.00    -0.041 C 
ATOM     26  C   UNL     1      32.390 -10.724 -21.317  0.00  0.00    -0.006 C 
ATOM     27  C   UNL     1      32.525 -12.742 -19.995  0.00  0.00    -0.006 C 
ATOM     28  C   UNL     1      33.264 -12.753 -22.296  0.00  0.00    +0.031 C 
ATOM     29  C   UNL     1      32.928 -11.404 -22.410  0.00  0.00    +0.002 C 
ATOM     30  C   UNL     1      33.063 -13.422 -21.088  0.00  0.00    +0.002 C 
BRANCH  25  31
ATOM     31  C   UNL     1      31.613 -10.666 -18.942  0.00  0.00    -0.029 C 
ATOM     32  C   UNL     1      32.324  -9.298 -18.735  0.00  0.00    -0.018 C 
ATOM     33  C   UNL     1      31.687 -11.412 -17.574  0.00  0.00    -0.018 C 
BRANCH  31  34
ATOM     34  N   UNL     1      30.167 -10.366 -19.141  0.00  0.00    +0.385 N 
ATOM     35  H   UNL     1      29.992 -10.175 -20.127  0.00  0.00    -0.089 HD
ATOM     36  H   UNL     1      29.909  -9.550 -18.585  0.00  0.00    -0.089 HD
ATOM     37  H   UNL     1      29.610 -11.168 -18.846  0.00  0.00    -0.089 HD
ENDBRANCH  31  34
ENDBRANCH  25  31
ENDBRANCH   5  28
TORSDOF 7
ENDMDL
MODEL 3
REMARK VINA RESULT:      -8.2      6.883     10.490
REMARK  Name = 447622
REMARK  7 active torsions:
REMARK  status: ('A' for Active; 'I' for Inactive)
REMARK    1  A    between atoms: N_2  and  C_13
REMARK    2  A    between atoms: C_5  and  C_28
REMARK    3  A    between atoms: C_10  and  C_16
REMARK    4  A    between atoms: C_16  and  C_17
REMARK    5  A    between atoms: C_17  and  N_19
REMARK    6  A    between atoms: C_25  and  C_31
REMARK    7  A    between atoms: C_31  and  N_34
REMARK                            x       y       z     vdW  Elec       q    Type
REMARK                         _______ _______ _______ _____ _____    ______ ____
ROOT
ATOM      1 CL   UNL     1      31.322  -1.786 -22.114  0.00  0.00    -0.078 Cl
ATOM      2  N   UNL     1      31.965  -7.420 -20.838  0.00  0.00    -0.247 N 
ATOM      3  N   UNL     1      32.226  -5.674 -22.384  0.00  0.00    -0.337 NA
ATOM      4  N   UNL     1      31.274  -5.267 -20.209  0.00  0.00    -0.169 NA
ATOM      5  C   UNL     1      32.068  -4.363 -22.659  0.00  0.00    +0.156 C 
ATOM      6  C   UNL     1      31.815  -6.056 -21.157  0.00  0.00    +0.149 C 
ATOM      7  C   UNL     1      31.527  -3.454 -21.771  0.00  0.00    +0.108 C 
ATOM      8  C   UNL     1      31.143  -3.968 -20.549  0.00  0.00    +0.126 C 
ATOM      9  H   UNL     1      31.651  -7.651 -19.935  0.00  0.00    +0.165 HD
ENDROOT
BRANCH   2  13
ATOM     10  C   UNL     1      33.488 -10.679 -22.974  0.00  0.00    -0.024 C 
ATOM     11  C   UNL     1      32.639 -10.904 -21.901  0.00  0.00    -0.003 C 
ATOM     12  C   UNL     1      33.841  -9.393 -23.352  0.00  0.00    -0.003 C 
ATOM     13  C   UNL     1      32.480  -8.518 -21.557  0.00  0.00    +0.058 C 
ATOM     14  C   UNL     1      32.133  -9.818 -21.189  0.00  0.00    +0.015 C 
ATOM     15  C   UNL     1      33.334  -8.306 -22.640  0.00  0.00    +0.015 C 
BRANCH  10  16
ATOM     16  C   UNL     1      34.037 -11.854 -23.743  0.00  0.00    +0.004 C 
BRANCH  16  17
ATOM     17  C   UNL     1      34.532 -12.956 -22.807  0.00  0.00    -0.072 C 
BRANCH  17  19
ATOM     18  O   UNL     1      34.562 -16.492 -25.069  0.00  0.00    -0.358 OA
ATOM     19  N   UNL     1      34.178 -14.278 -23.321  0.00  0.00    +0.391 N 
ATOM     20  C   UNL     1      33.817 -14.206 -24.744  0.00  0.00    -0.045 C 
ATOM     21  C   UNL     1      35.285 -15.225 -23.131  0.00  0.00    -0.045 C 
ATOM     22  C   UNL     1      33.464 -15.597 -25.260  0.00  0.00    +0.119 C 
ATOM     23  C   UNL     1      34.898 -16.594 -23.685  0.00  0.00    +0.119 C 
ATOM     24  H   UNL     1      33.370 -14.612 -22.797  0.00  0.00    -0.079 HD
ENDBRANCH  17  19
ENDBRANCH  16  17
ENDBRANCH  10  16
ENDBRANCH   2  13
BRANCH   5  28
ATOM     25  C   UNL     1      33.391  -3.267 -26.531  0.00  0.00    -0.041 C 
ATOM     26  C   UNL     1      33.510  -2.367 -25.473  0.00  0.00    -0.006 C 
ATOM     27  C   UNL     1      32.836  -4.529 -26.315  0.00  0.00    -0.006 C 
ATOM     28  C   UNL     1      32.520  -3.989 -23.980  0.00  0.00    +0.031 C 
ATOM     29  C   UNL     1      33.074  -2.728 -24.198  0.00  0.00    +0.002 C 
ATOM     30  C   UNL     1      32.401  -4.890 -25.040  0.00  0.00    +0.002 C 
BRANCH  25  31
ATOM     31  C   UNL     1      33.857  -2.881 -27.894  0.00  0.00    -0.029 C 
ATOM     32  C   UNL     1      32.879  -1.863 -28.547  0.00  0.00    -0.018 C 
ATOM     33  C   UNL     1      34.018  -4.051 -28.914  0.00  0.00    -0.018 C 
BRANCH  31  34
ATOM     34  N   UNL     1      35.191  -2.220 -27.851  0.00  0.00    +0.385 N 
ATOM     35  H   UNL     1      35.845  -2.736 -28.440  0.00  0.00    -0.089 HD
ATOM     36  H   UNL     1      35.535  -2.209 -26.891  0.00  0.00    -0.089 HD
ATOM     37  H   UNL     1      35.107  -1.262 -28.194  0.00  0.00    -0.089 HD
ENDBRANCH  31  34
ENDBRANCH  25  31
ENDBRANCH   5  28
TORSDOF 7
ENDMDL
MODEL 4
REMARK VINA RESULT:      -8.0      5.953      9.016
REMARK  Name = 447622
REMARK  7 active torsions:
REMARK  status: ('A' for Active; 'I' for Inactive)
REMARK    1  A    between atoms: N_2  and  C_13
REMARK    2  A    between atoms: C_5  and  C_28
REMARK    3  A    between atoms: C_10  and  C_16
REMARK    4  A    between atoms: C_16  and  C_17
REMARK    5  A    between atoms: C_17  and  N_19
REMARK    6  A    between atoms: C_25  and  C_31
REMARK    7  A    between atoms: C_31  and  N_34
REMARK                            x       y       z     vdW  Elec       q    Type
REMARK                         _______ _______ _______ _____ _____    ______ ____
ROOT
ATOM      1 CL   UNL     1      32.355  -3.395 -23.536  0.00  0.00    -0.078 Cl
ATOM      2  N   UNL     1      32.047  -8.967 -21.908  0.00  0.00    -0.247 N 
ATOM      3  N   UNL     1      33.016  -7.334 -23.287  0.00  0.00    -0.337 NA
ATOM      4  N   UNL     1      31.318  -6.748 -21.681  0.00  0.00    -0.169 NA
ATOM      5  C   UNL     1      33.071  -6.036 -23.648  0.00  0.00    +0.156 C 
ATOM      6  C   UNL     1      32.131  -7.619 -22.309  0.00  0.00    +0.149 C 
ATOM      7  C   UNL     1      32.291  -5.048 -23.080  0.00  0.00    +0.108 C 
ATOM      8  C   UNL     1      31.423  -5.467 -22.092  0.00  0.00    +0.126 C 
ATOM      9  H   UNL     1      31.388  -9.126 -21.195  0.00  0.00    +0.165 HD
ENDROOT
BRANCH   2  13
ATOM     10  C   UNL     1      34.051 -12.424 -23.148  0.00  0.00    -0.024 C 
ATOM     11  C   UNL     1      33.194 -12.486 -22.059  0.00  0.00    -0.003 C 
ATOM     12  C   UNL     1      34.256 -11.236 -23.832  0.00  0.00    -0.003 C 
ATOM     13  C   UNL     1      32.724 -10.132 -22.325  0.00  0.00    +0.058 C 
ATOM     14  C   UNL     1      32.527 -11.334 -21.646  0.00  0.00    +0.015 C 
ATOM     15  C   UNL     1      33.588 -10.083 -23.419  0.00  0.00    +0.015 C 
BRANCH  10  16
ATOM     16  C   UNL     1      34.774 -13.670 -23.594  0.00  0.00    +0.004 C 
BRANCH  16  17
ATOM     17  C   UNL     1      35.185 -14.537 -22.404  0.00  0.00    -0.072 C 
BRANCH  17  19
ATOM     18  O   UNL     1      35.144 -18.594 -23.478  0.00  0.00    -0.358 OA
ATOM     19  N   UNL     1      34.748 -15.919 -22.587  0.00  0.00    +0.391 N 
ATOM     20  C   UNL     1      34.706 -16.269 -24.014  0.00  0.00    -0.045 C 
ATOM     21  C   UNL     1      35.634 -16.846 -21.869  0.00  0.00    -0.045 C 
ATOM     22  C   UNL     1      34.260 -17.718 -24.179  0.00  0.00    +0.119 C 
ATOM     23  C   UNL     1      35.167 -18.282 -22.084  0.00  0.00    +0.119 C 
ATOM     24  H   UNL     1      33.808 -16.004 -22.203  0.00  0.00    -0.079 HD
ENDBRANCH  17  19
ENDBRANCH  16  17
ENDBRANCH  10  16
ENDBRANCH   2  13
BRANCH   5  28
ATOM     25  C   UNL     1      35.884  -5.245 -26.716  0.00  0.00    -0.041 C 
ATOM     26  C   UNL     1      36.073  -6.329 -25.859  0.00  0.00    -0.006 C 
ATOM     27  C   UNL     1      34.769  -4.421 -26.563  0.00  0.00    -0.006 C 
ATOM     28  C   UNL     1      34.031  -5.766 -24.696  0.00  0.00    +0.031 C 
ATOM     29  C   UNL     1      35.146  -6.589 -24.849  0.00  0.00    +0.002 C 
ATOM     30  C   UNL     1      33.842  -4.681 -25.554  0.00  0.00    +0.002 C 
BRANCH  25  31
ATOM     31  C   UNL     1      36.874  -4.967 -27.796  0.00  0.00    -0.029 C 
ATOM     32  C   UNL     1      38.000  -4.023 -27.286  0.00  0.00    -0.018 C 
ATOM     33  C   UNL     1      36.301  -4.310 -29.090  0.00  0.00    -0.018 C 
BRANCH  31  34
ATOM     34  N   UNL     1      37.544  -6.214 -28.260  0.00  0.00    +0.385 N 
ATOM     35  H   UNL     1      37.099  -6.539 -29.118  0.00  0.00    -0.089 HD
ATOM     36  H   UNL     1      37.461  -6.933 -27.541  0.00  0.00    -0.089 HD
ATOM     37  H   UNL     1      38.530  -6.024 -28.439  0.00  0.00    -0.089 HD
ENDBRANCH  31  34
ENDBRANCH  25  31
ENDBRANCH   5  28
TORSDOF 7
ENDMDL
MODEL 5
REMARK VINA RESULT:      -8.0      5.113      8.492
REMARK  Name = 447622
REMARK  7 active torsions:
REMARK  status: ('A' for Active; 'I' for Inactive)
REMARK    1  A    between atoms: N_2  and  C_13
REMARK    2  A    between atoms: C_5  and  C_28
REMARK    3  A    between atoms: C_10  and  C_16
REMARK    4  A    between atoms: C_16  and  C_17
REMARK    5  A    between atoms: C_17  and  N_19
REMARK    6  A    between atoms: C_25  and  C_31
REMARK    7  A    between atoms: C_31  and  N_34
REMARK                            x       y       z     vdW  Elec       q    Type
REMARK                         _______ _______ _______ _____ _____    ______ ____
ROOT
ATOM      1 CL   UNL     1      31.997  -4.404 -19.841  0.00  0.00    -0.078 Cl
ATOM      2  N   UNL     1      32.397 -10.202 -19.936  0.00  0.00    -0.247 N 
ATOM      3  N   UNL     1      32.588  -8.163 -21.081  0.00  0.00    -0.337 NA
ATOM      4  N   UNL     1      31.939  -8.223 -18.761  0.00  0.00    -0.169 NA
ATOM      5  C   UNL     1      32.489  -6.818 -21.035  0.00  0.00    +0.156 C 
ATOM      6  C   UNL     1      32.304  -8.797 -19.924  0.00  0.00    +0.149 C 
ATOM      7  C   UNL     1      32.125  -6.114 -19.905  0.00  0.00    +0.108 C 
ATOM      8  C   UNL     1      31.859  -6.877 -18.786  0.00  0.00    +0.126 C 
ATOM      9  H   UNL     1      32.179 -10.620 -19.072  0.00  0.00    +0.165 HD
ENDROOT
BRANCH   2  13
ATOM     10  C   UNL     1      33.423 -12.948 -22.921  0.00  0.00    -0.024 C 
ATOM     11  C   UNL     1      33.417 -11.593 -23.215  0.00  0.00    -0.003 C 
ATOM     12  C   UNL     1      33.094 -13.409 -21.656  0.00  0.00    -0.003 C 
ATOM     13  C   UNL     1      32.741 -11.128 -20.943  0.00  0.00    +0.058 C 
ATOM     14  C   UNL     1      33.074 -10.678 -22.220  0.00  0.00    +0.015 C 
ATOM     15  C   UNL     1      32.752 -12.494 -20.661  0.00  0.00    +0.015 C 
BRANCH  10  16
ATOM     16  C   UNL     1      33.792 -13.938 -23.997  0.00  0.00    +0.004 C 
BRANCH  16  17
ATOM     17  C   UNL     1      35.224 -14.445 -23.825  0.00  0.00    -0.072 C 
BRANCH  17  19
ATOM     18  O   UNL     1      34.206 -18.477 -23.255  0.00  0.00    -0.358 OA
ATOM     19  N   UNL     1      35.269 -15.906 -23.857  0.00  0.00    +0.391 N 
ATOM     20  C   UNL     1      35.313 -16.457 -22.495  0.00  0.00    -0.045 C 
ATOM     21  C   UNL     1      34.111 -16.448 -24.581  0.00  0.00    -0.045 C 
ATOM     22  C   UNL     1      35.347 -17.981 -22.554  0.00  0.00    +0.119 C 
ATOM     23  C   UNL     1      34.173 -17.973 -24.591  0.00  0.00    +0.119 C 
ATOM     24  H   UNL     1      36.119 -16.182 -24.347  0.00  0.00    -0.079 HD
ENDBRANCH  17  19
ENDBRANCH  16  17
ENDBRANCH  10  16
ENDBRANCH   2  13
BRANCH   5  28
ATOM     25  C   UNL     1      33.405  -4.925 -24.712  0.00  0.00    -0.041 C 
ATOM     26  C   UNL     1      33.996  -6.146 -24.391  0.00  0.00    -0.006 C 
ATOM     27  C   UNL     1      32.512  -4.326 -23.824  0.00  0.00    -0.006 C 
ATOM     28  C   UNL     1      32.801  -6.172 -22.291  0.00  0.00    +0.031 C 
ATOM     29  C   UNL     1      33.695  -6.769 -23.180  0.00  0.00    +0.002 C 
ATOM     30  C   UNL     1      32.209  -4.950 -22.613  0.00  0.00    +0.002 C 
BRANCH  25  31
ATOM     31  C   UNL     1      33.728  -4.258 -26.007  0.00  0.00    -0.029 C 
ATOM     32  C   UNL     1      35.064  -4.799 -26.592  0.00  0.00    -0.018 C 
ATOM     33  C   UNL     1      33.868  -2.705 -25.955  0.00  0.00    -0.018 C 
BRANCH  31  34
ATOM     34  N   UNL     1      32.680  -4.517 -27.034  0.00  0.00    +0.385 N 
ATOM     35  H   UNL     1      31.865  -3.935 -26.841  0.00  0.00    -0.089 HD
ATOM     36  H   UNL     1      32.410  -5.500 -27.004  0.00  0.00    -0.089 HD
ATOM     37  H   UNL     1      33.047  -4.293 -27.959  0.00  0.00    -0.089 HD
ENDBRANCH  31  34
ENDBRANCH  25  31
ENDBRANCH   5  28
TORSDOF 7
ENDMDL
MODEL 6
REMARK VINA RESULT:      -7.9      1.522      2.450
REMARK  Name = 447622
REMARK  7 active torsions:
REMARK  status: ('A' for Active; 'I' for Inactive)
REMARK    1  A    between atoms: N_2  and  C_13
REMARK    2  A    between atoms: C_5  and  C_28
REMARK    3  A    between atoms: C_10  and  C_16
REMARK    4  A    between atoms: C_16  and  C_17
REMARK    5  A    between atoms: C_17  and  N_19
REMARK    6  A    between atoms: C_25  and  C_31
REMARK    7  A    between atoms: C_31  and  N_34
REMARK                            x       y       z     vdW  Elec       q    Type
REMARK                         _______ _______ _______ _____ _____    ______ ____
ROOT
ATOM      1 CL   UNL     1      33.217  -9.633 -25.024  0.00  0.00    -0.078 Cl
ATOM      2  N   UNL     1      34.826 -15.215 -25.228  0.00  0.00    -0.247 N 
ATOM      3  N   UNL     1      33.975 -13.420 -23.978  0.00  0.00    -0.337 NA
ATOM      4  N   UNL     1      34.553 -13.146 -26.301  0.00  0.00    -0.169 NA
ATOM      5  C   UNL     1      33.608 -12.123 -23.954  0.00  0.00    +0.156 C 
ATOM      6  C   UNL     1      34.432 -13.864 -25.167  0.00  0.00    +0.149 C 
ATOM      7  C   UNL     1      33.683 -11.284 -25.048  0.00  0.00    +0.108 C 
ATOM      8  C   UNL     1      34.168 -11.856 -26.206  0.00  0.00    +0.126 C 
ATOM      9  H   UNL     1      35.154 -15.492 -26.113  0.00  0.00    +0.165 HD
ENDROOT
BRANCH   2  13
ATOM     10  C   UNL     1      34.875 -18.284 -22.385  0.00  0.00    -0.024 C 
ATOM     11  C   UNL     1      34.183 -18.466 -23.573  0.00  0.00    -0.003 C 
ATOM     12  C   UNL     1      35.551 -17.103 -22.123  0.00  0.00    -0.003 C 
ATOM     13  C   UNL     1      34.842 -16.249 -24.269  0.00  0.00    +0.058 C 
ATOM     14  C   UNL     1      34.166 -17.443 -24.519  0.00  0.00    +0.015 C 
ATOM     15  C   UNL     1      35.535 -16.080 -23.070  0.00  0.00    +0.015 C 
BRANCH  10  16
ATOM     16  C   UNL     1      34.892 -19.391 -21.361  0.00  0.00    +0.004 C 
BRANCH  16  17
ATOM     17  C   UNL     1      34.712 -18.845 -19.943  0.00  0.00    -0.072 C 
BRANCH  17  19
ATOM     18  O   UNL     1      34.505 -22.690 -18.273  0.00  0.00    -0.358 OA
ATOM     19  N   UNL     1      34.555 -19.933 -18.980  0.00  0.00    +0.391 N 
ATOM     20  C   UNL     1      33.430 -20.802 -19.353  0.00  0.00    -0.045 C 
ATOM     21  C   UNL     1      35.789 -20.725 -18.881  0.00  0.00    -0.045 C 
ATOM     22  C   UNL     1      33.294 -21.936 -18.341  0.00  0.00    +0.119 C 
ATOM     23  C   UNL     1      35.598 -21.861 -17.880  0.00  0.00    +0.119 C 
ATOM     24  H   UNL     1      34.359 -19.519 -18.070  0.00  0.00    -0.079 HD
ENDBRANCH  17  19
ENDBRANCH  16  17
ENDBRANCH  10  16
ENDBRANCH   2  13
BRANCH   5  28
ATOM     25  C   UNL     1      32.187 -10.832 -20.177  0.00  0.00    -0.041 C 
ATOM     26  C   UNL     1      32.321  -9.918 -21.221  0.00  0.00    -0.006 C 
ATOM     27  C   UNL     1      32.520 -12.172 -20.376  0.00  0.00    -0.006 C 
ATOM     28  C   UNL     1      33.122 -11.682 -22.665  0.00  0.00    +0.031 C 
ATOM     29  C   UNL     1      32.789 -10.342 -22.465  0.00  0.00    +0.002 C 
ATOM     30  C   UNL     1      32.987 -12.598 -21.620  0.00  0.00    +0.002 C 
BRANCH  25  31
ATOM     31  C   UNL     1      31.686 -10.377 -18.848  0.00  0.00    -0.029 C 
ATOM     32  C   UNL     1      32.455  -9.113 -18.369  0.00  0.00    -0.018 C 
ATOM     33  C   UNL     1      31.790 -11.419 -17.690  0.00  0.00    -0.018 C 
BRANCH  31  34
ATOM     34  N   UNL     1      30.245 -10.003 -18.903  0.00  0.00    +0.385 N 
ATOM     35  H   UNL     1      30.149  -9.000 -18.746  0.00  0.00    -0.089 HD
ATOM     36  H   UNL     1      29.734 -10.510 -18.180  0.00  0.00    -0.089 HD
ATOM     37  H   UNL     1      29.867 -10.242 -19.819  0.00  0.00    -0.089 HD
ENDBRANCH  31  34
ENDBRANCH  25  31
ENDBRANCH   5  28
TORSDOF 7
ENDMDL
MODEL 7
REMARK VINA RESULT:      -7.8      6.808     12.799
REMARK  Name = 447622
REMARK  7 active torsions:
REMARK  status: ('A' for Active; 'I' for Inactive)
REMARK    1  A    between atoms: N_2  and  C_13
REMARK    2  A    between atoms: C_5  and  C_28
REMARK    3  A    between atoms: C_10  and  C_16
REMARK    4  A    between atoms: C_16  and  C_17
REMARK    5  A    between atoms: C_17  and  N_19
REMARK    6  A    between atoms: C_25  and  C_31
REMARK    7  A    between atoms: C_31  and  N_34
REMARK                            x       y       z     vdW  Elec       q    Type
REMARK                         _______ _______ _______ _____ _____    ______ ____
ROOT
ATOM      1 CL   UNL     1      31.969 -13.563 -18.530  0.00  0.00    -0.078 Cl
ATOM      2  N   UNL     1      31.976  -8.051 -20.376  0.00  0.00    -0.247 N 
ATOM      3  N   UNL     1      32.487 -10.303 -20.793  0.00  0.00    -0.337 NA
ATOM      4  N   UNL     1      31.475  -9.629 -18.712  0.00  0.00    -0.169 NA
ATOM      5  C   UNL     1      32.475 -11.575 -20.344  0.00  0.00    +0.156 C 
ATOM      6  C   UNL     1      31.978  -9.390 -19.939  0.00  0.00    +0.149 C 
ATOM      7  C   UNL     1      31.987 -11.947 -19.107  0.00  0.00    +0.108 C 
ATOM      8  C   UNL     1      31.495 -10.921 -18.326  0.00  0.00    +0.126 C 
ATOM      9  H   UNL     1      31.598  -7.422 -19.720  0.00  0.00    +0.165 HD
ENDROOT
BRANCH   2  13
ATOM     10  C   UNL     1      33.257  -6.226 -23.916  0.00  0.00    -0.024 C 
ATOM     11  C   UNL     1      34.148  -6.998 -23.187  0.00  0.00    -0.003 C 
ATOM     12  C   UNL     1      31.949  -6.046 -23.492  0.00  0.00    -0.003 C 
ATOM     13  C   UNL     1      32.408  -7.434 -21.569  0.00  0.00    +0.058 C 
ATOM     14  C   UNL     1      33.721  -7.606 -22.007  0.00  0.00    +0.015 C 
ATOM     15  C   UNL     1      31.522  -6.655 -22.312  0.00  0.00    +0.015 C 
BRANCH  10  16
ATOM     16  C   UNL     1      33.718  -5.567 -25.192  0.00  0.00    +0.004 C 
BRANCH  16  17
ATOM     17  C   UNL     1      33.005  -4.235 -25.425  0.00  0.00    -0.072 C 
BRANCH  17  19
ATOM     18  O   UNL     1      34.667  -2.681 -28.952  0.00  0.00    -0.358 OA
ATOM     19  N   UNL     1      33.762  -3.391 -26.348  0.00  0.00    +0.391 N 
ATOM     20  C   UNL     1      34.794  -4.173 -27.044  0.00  0.00    -0.045 C 
ATOM     21  C   UNL     1      32.867  -2.757 -27.328  0.00  0.00    -0.045 C 
ATOM     22  C   UNL     1      35.561  -3.274 -28.009  0.00  0.00    +0.119 C 
ATOM     23  C   UNL     1      33.679  -1.892 -28.288  0.00  0.00    +0.119 C 
ATOM     24  H   UNL     1      34.218  -2.661 -25.803  0.00  0.00    -0.079 HD
ENDBRANCH  17  19
ENDBRANCH  16  17
ENDBRANCH  10  16
ENDBRANCH   2  13
BRANCH   5  28
ATOM     25  C   UNL     1      34.091 -14.359 -23.099  0.00  0.00    -0.041 C 
ATOM     26  C   UNL     1      34.525 -14.357 -21.774  0.00  0.00    -0.006 C 
ATOM     27  C   UNL     1      33.124 -13.444 -23.518  0.00  0.00    -0.006 C 
ATOM     28  C   UNL     1      33.026 -12.526 -21.284  0.00  0.00    +0.031 C 
ATOM     29  C   UNL     1      33.993 -13.440 -20.867  0.00  0.00    +0.002 C 
ATOM     30  C   UNL     1      32.591 -12.528 -22.610  0.00  0.00    +0.002 C 
BRANCH  25  31
ATOM     31  C   UNL     1      34.659 -15.339 -24.068  0.00  0.00    -0.029 C 
ATOM     32  C   UNL     1      33.631 -15.673 -25.186  0.00  0.00    -0.018 C 
ATOM     33  C   UNL     1      35.114 -16.705 -23.466  0.00  0.00    -0.018 C 
BRANCH  31  34
ATOM     34  N   UNL     1      35.868 -14.797 -24.751  0.00  0.00    +0.385 N 
ATOM     35  H   UNL     1      35.942 -15.204 -25.683  0.00  0.00    -0.089 HD
ATOM     36  H   UNL     1      36.699 -15.034 -24.209  0.00  0.00    -0.089 HD
ATOM     37  H   UNL     1      35.789 -13.783 -24.828  0.00  0.00    -0.089 HD
ENDBRANCH  31  34
ENDBRANCH  25  31
ENDBRANCH   5  28
TORSDOF 7
ENDMDL
MODEL 8
REMARK VINA RESULT:      -7.1      3.652      9.337
REMARK  Name = 447622
REMARK  7 active torsions:
REMARK  status: ('A' for Active; 'I' for Inactive)
REMARK    1  A    between atoms: N_2  and  C_13
REMARK    2  A    between atoms: C_5  and  C_28
REMARK    3  A    between atoms: C_10  and  C_16
REMARK    4  A    between atoms: C_16  and  C_17
REMARK    5  A    between atoms: C_17  and  N_19
REMARK    6  A    between atoms: C_25  and  C_31
REMARK    7  A    between atoms: C_31  and  N_34
REMARK                            x       y       z     vdW  Elec       q    Type
REMARK                         _______ _______ _______ _____ _____    ______ ____
ROOT
ATOM      1 CL   UNL     1      35.490 -20.044 -24.538  0.00  0.00    -0.078 Cl
ATOM      2  N   UNL     1      34.129 -14.478 -23.563  0.00  0.00    -0.247 N 
ATOM      3  N   UNL     1      34.340 -16.663 -22.733  0.00  0.00    -0.337 NA
ATOM      4  N   UNL     1      34.854 -16.158 -25.033  0.00  0.00    -0.169 NA
ATOM      5  C   UNL     1      34.661 -17.949 -22.982  0.00  0.00    +0.156 C 
ATOM      6  C   UNL     1      34.458 -15.829 -23.788  0.00  0.00    +0.149 C 
ATOM      7  C   UNL     1      35.081 -18.410 -24.214  0.00  0.00    +0.108 C 
ATOM      8  C   UNL     1      35.159 -17.460 -25.212  0.00  0.00    +0.126 C 
ATOM      9  H   UNL     1      34.228 -13.909 -24.360  0.00  0.00    +0.165 HD
ENDROOT
BRANCH   2  13
ATOM     10  C   UNL     1      32.818 -12.408 -20.172  0.00  0.00    -0.024 C 
ATOM     11  C   UNL     1      32.144 -12.245 -21.373  0.00  0.00    -0.003 C 
ATOM     12  C   UNL     1      33.919 -13.245 -20.075  0.00  0.00    -0.003 C 
ATOM     13  C   UNL     1      33.688 -13.779 -22.420  0.00  0.00    +0.058 C 
ATOM     14  C   UNL     1      32.582 -12.934 -22.503  0.00  0.00    +0.015 C 
ATOM     15  C   UNL     1      34.356 -13.935 -21.205  0.00  0.00    +0.015 C 
BRANCH  10  16
ATOM     16  C   UNL     1      32.346 -11.662 -18.950  0.00  0.00    +0.004 C 
BRANCH  16  17
ATOM     17  C   UNL     1      31.491 -10.452 -19.327  0.00  0.00    -0.072 C 
BRANCH  17  19
ATOM     18  O   UNL     1      32.702  -6.674 -20.696  0.00  0.00    -0.358 OA
ATOM     19  N   UNL     1      32.323  -9.355 -19.816  0.00  0.00    +0.391 N 
ATOM     20  C   UNL     1      31.872  -8.909 -21.143  0.00  0.00    -0.045 C 
ATOM     21  C   UNL     1      32.305  -8.226 -18.875  0.00  0.00    -0.045 C 
ATOM     22  C   UNL     1      32.747  -7.757 -21.626  0.00  0.00    +0.119 C 
ATOM     23  C   UNL     1      33.169  -7.089 -19.412  0.00  0.00    +0.119 C 
ATOM     24  H   UNL     1      33.279  -9.698 -19.895  0.00  0.00    -0.079 HD
ENDBRANCH  17  19
ENDBRANCH  16  17
ENDBRANCH  10  16
ENDBRANCH   2  13
BRANCH   5  28
ATOM     25  C   UNL     1      34.264 -20.482 -19.610  0.00  0.00    -0.041 C 
ATOM     26  C   UNL     1      35.532 -20.141 -20.080  0.00  0.00    -0.006 C 
ATOM     27  C   UNL     1      33.126 -19.989 -20.249  0.00  0.00    -0.006 C 
ATOM     28  C   UNL     1      34.526 -18.813 -21.830  0.00  0.00    +0.031 C 
ATOM     29  C   UNL     1      35.663 -19.307 -21.191  0.00  0.00    +0.002 C 
ATOM     30  C   UNL     1      33.257 -19.154 -21.359  0.00  0.00    +0.002 C 
BRANCH  25  31
ATOM     31  C   UNL     1      34.125 -21.373 -18.422  0.00  0.00    -0.029 C 
ATOM     32  C   UNL     1      32.808 -21.069 -17.651  0.00  0.00    -0.018 C 
ATOM     33  C   UNL     1      35.277 -21.293 -17.373  0.00  0.00    -0.018 C 
BRANCH  31  34
ATOM     34  N   UNL     1      34.062 -22.808 -18.818  0.00  0.00    +0.385 N 
ATOM     35  H   UNL     1      34.746 -22.988 -19.553  0.00  0.00    -0.089 HD
ATOM     36  H   UNL     1      33.127 -23.026 -19.163  0.00  0.00    -0.089 HD
ATOM     37  H   UNL     1      34.271 -23.394 -18.008  0.00  0.00    -0.089 HD
ENDBRANCH  31  34
ENDBRANCH  25  31
ENDBRANCH   5  28
TORSDOF 7
ENDMDL
