MODEL 1
REMARK VINA RESULT:     -11.9      0.000      0.000
REMARK  Name = 24958200
REMARK  3 active torsions:
REMARK  status: ('A' for Active; 'I' for Inactive)
REMARK    1  A    between atoms: N_1  and  C_13
REMARK    2  A    between atoms: C_6  and  C_26
REMARK    3  A    between atoms: C_10  and  C_17
REMARK                            x       y       z     vdW  Elec       q    Type
REMARK                         _______ _______ _______ _____ _____    ______ ____
ROOT
ATOM      1  N   UNL     1      32.696 -22.228 -16.641  0.00  0.00    -0.189 N 
ATOM      2  N   UNL     1      31.351 -22.299 -16.674  0.00  0.00    -0.174 NA
ATOM      3  C   UNL     1      32.222 -23.337 -14.851  0.00  0.00    +0.036 C 
ATOM      4  C   UNL     1      33.274 -22.836 -15.565  0.00  0.00    +0.091 C 
ATOM      5  C   UNL     1      31.019 -22.987 -15.567  0.00  0.00    +0.105 C 
ATOM      6  C   UNL     1      29.757 -23.369 -15.075  0.00  0.00    +0.072 C 
ATOM      7  C   UNL     1      32.316 -24.045 -13.660  0.00  0.00    +0.003 C 
ATOM      8  C   UNL     1      29.819 -24.092 -13.864  0.00  0.00    +0.006 C 
ATOM      9  C   UNL     1      31.040 -24.414 -13.191  0.00  0.00    +0.000 C 
ENDROOT
BRANCH   1  13
ATOM     10  C   UNL     1      34.760 -20.260 -19.687  0.00  0.00    -0.024 C 
ATOM     11  C   UNL     1      33.370 -20.166 -19.613  0.00  0.00    -0.003 C 
ATOM     12  C   UNL     1      35.460 -21.012 -18.742  0.00  0.00    -0.003 C 
ATOM     13  C   UNL     1      33.380 -21.576 -17.651  0.00  0.00    +0.074 C 
ATOM     14  C   UNL     1      32.680 -20.824 -18.595  0.00  0.00    +0.016 C 
ATOM     15  C   UNL     1      34.770 -21.670 -17.725  0.00  0.00    +0.016 C 
BRANCH  10  17
ATOM     16  N   UNL     1      35.302 -18.125 -22.820  0.00  0.00    +0.384 N 
ATOM     17  C   UNL     1      35.511 -19.546 -20.796  0.00  0.00    +0.001 C 
ATOM     18  C   UNL     1      36.591 -18.604 -20.239  0.00  0.00    +0.000 C 
ATOM     19  C   UNL     1      34.562 -18.784 -21.740  0.00  0.00    -0.077 C 
ATOM     20  C   UNL     1      37.291 -17.866 -21.377  0.00  0.00    -0.023 C 
ATOM     21  C   UNL     1      36.284 -17.177 -22.295  0.00  0.00    -0.082 C 
ATOM     22  H   UNL     1      34.643 -17.624 -23.415  0.00  0.00    -0.085 HD
ATOM     23  H   UNL     1      35.799 -18.841 -23.351  0.00  0.00    -0.085 HD
ENDBRANCH  10  17
ENDBRANCH   1  13
BRANCH   6  26
ATOM     24  O   UNL     1      28.081 -23.741 -16.687  0.00  0.00    -0.270 OA
ATOM     25  N   UNL     1      27.785 -21.954 -15.281  0.00  0.00    -0.325 N 
ATOM     26  C   UNL     1      28.512 -23.052 -15.740  0.00  0.00    +0.244 C 
ATOM     27  H   UNL     1      26.932 -21.712 -15.712  0.00  0.00    +0.145 HD
ATOM     28  H   UNL     1      28.122 -21.421 -14.525  0.00  0.00    +0.145 HD
ENDBRANCH   6  26
TORSDOF 3
ENDMDL
MODEL 2
REMARK VINA RESULT:     -11.6      4.305      5.602
REMARK  Name = 24958200
REMARK  3 active torsions:
REMARK  status: ('A' for Active; 'I' for Inactive)
REMARK    1  A    between atoms: N_1  and  C_13
REMARK    2  A    between atoms: C_6  and  C_26
REMARK    3  A    between atoms: C_10  and  C_17
REMARK                            x       y       z     vdW  Elec       q    Type
REMARK                         _______ _______ _______ _____ _____    ______ ____
ROOT
ATOM      1  N   UNL     1      36.220 -22.543 -15.154  0.00  0.00    -0.189 N 
ATOM      2  N   UNL     1      37.230 -23.407 -14.934  0.00  0.00    -0.174 NA
ATOM      3  C   UNL     1      35.857 -23.214 -13.135  0.00  0.00    +0.036 C 
ATOM      4  C   UNL     1      35.362 -22.387 -14.104  0.00  0.00    +0.091 C 
ATOM      5  C   UNL     1      37.035 -23.847 -13.678  0.00  0.00    +0.105 C 
ATOM      6  C   UNL     1      37.774 -24.764 -12.908  0.00  0.00    +0.072 C 
ATOM      7  C   UNL     1      35.312 -23.395 -11.870  0.00  0.00    +0.003 C 
ATOM      8  C   UNL     1      37.245 -24.970 -11.615  0.00  0.00    +0.006 C 
ATOM      9  C   UNL     1      36.072 -24.316 -11.122  0.00  0.00    +0.000 C 
ENDROOT
BRANCH   1  13
ATOM     10  C   UNL     1      35.908 -20.584 -18.825  0.00  0.00    -0.024 C 
ATOM     11  C   UNL     1      34.840 -21.343 -18.346  0.00  0.00    -0.003 C 
ATOM     12  C   UNL     1      37.080 -20.479 -18.076  0.00  0.00    -0.003 C 
ATOM     13  C   UNL     1      36.117 -21.895 -16.370  0.00  0.00    +0.074 C 
ATOM     14  C   UNL     1      34.944 -21.998 -17.119  0.00  0.00    +0.016 C 
ATOM     15  C   UNL     1      37.185 -21.134 -16.849  0.00  0.00    +0.016 C 
BRANCH  10  17
ATOM     16  N   UNL     1      34.259 -18.753 -21.756  0.00  0.00    +0.384 N 
ATOM     17  C   UNL     1      35.795 -19.872 -20.160  0.00  0.00    +0.001 C 
ATOM     18  C   UNL     1      36.772 -18.689 -20.261  0.00  0.00    +0.000 C 
ATOM     19  C   UNL     1      34.354 -19.412 -20.451  0.00  0.00    -0.077 C 
ATOM     20  C   UNL     1      36.596 -17.968 -21.595  0.00  0.00    -0.023 C 
ATOM     21  C   UNL     1      35.137 -17.586 -21.832  0.00  0.00    -0.082 C 
ATOM     22  H   UNL     1      33.296 -18.454 -21.907  0.00  0.00    -0.085 HD
ATOM     23  H   UNL     1      34.548 -19.419 -22.473  0.00  0.00    -0.085 HD
ENDBRANCH  10  17
ENDBRANCH   1  13
BRANCH   6  26
ATOM     24  O   UNL     1      38.911 -26.569 -13.906  0.00  0.00    -0.270 OA
ATOM     25  N   UNL     1      40.182 -24.768 -13.275  0.00  0.00    -0.325 N 
ATOM     26  C   UNL     1      38.962 -25.435 -13.388  0.00  0.00    +0.244 C 
ATOM     27  H   UNL     1      41.010 -25.197 -13.592  0.00  0.00    +0.145 HD
ATOM     28  H   UNL     1      40.217 -23.868 -12.877  0.00  0.00    +0.145 HD
ENDBRANCH   6  26
TORSDOF 3
ENDMDL
MODEL 3
REMARK VINA RESULT:     -11.3      3.390      4.739
REMARK  Name = 24958200
REMARK  3 active torsions:
REMARK  status: ('A' for Active; 'I' for Inactive)
REMARK    1  A    between atoms: N_1  and  C_13
REMARK    2  A    between atoms: C_6  and  C_26
REMARK    3  A    between atoms: C_10  and  C_17
REMARK                            x       y       z     vdW  Elec       q    Type
REMARK                         _______ _______ _______ _____ _____    ______ ____
ROOT
ATOM      1  N   UNL     1      34.905 -21.413 -17.638  0.00  0.00    -0.189 N 
ATOM      2  N   UNL     1      35.976 -21.620 -16.847  0.00  0.00    -0.174 NA
ATOM      3  C   UNL     1      34.117 -22.666 -16.067  0.00  0.00    +0.036 C 
ATOM      4  C   UNL     1      33.758 -22.019 -17.216  0.00  0.00    +0.091 C 
ATOM      5  C   UNL     1      35.519 -22.402 -15.853  0.00  0.00    +0.105 C 
ATOM      6  C   UNL     1      36.186 -22.939 -14.736  0.00  0.00    +0.072 C 
ATOM      7  C   UNL     1      33.274 -23.430 -15.271  0.00  0.00    +0.003 C 
ATOM      8  C   UNL     1      35.354 -23.721 -13.905  0.00  0.00    +0.006 C 
ATOM      9  C   UNL     1      33.966 -23.954 -14.162  0.00  0.00    +0.000 C 
ENDROOT
BRANCH   1  13
ATOM     10  C   UNL     1      35.263 -19.065 -21.069  0.00  0.00    -0.024 C 
ATOM     11  C   UNL     1      36.404 -19.444 -20.360  0.00  0.00    -0.003 C 
ATOM     12  C   UNL     1      34.003 -19.472 -20.630  0.00  0.00    -0.003 C 
ATOM     13  C   UNL     1      35.024 -20.634 -18.774  0.00  0.00    +0.074 C 
ATOM     14  C   UNL     1      36.284 -20.228 -19.214  0.00  0.00    +0.016 C 
ATOM     15  C   UNL     1      33.883 -20.256 -19.483  0.00  0.00    +0.016 C 
BRANCH  10  17
ATOM     16  N   UNL     1      34.440 -17.695 -24.548  0.00  0.00    +0.384 N 
ATOM     17  C   UNL     1      35.393 -18.210 -22.316  0.00  0.00    +0.001 C 
ATOM     18  C   UNL     1      35.431 -16.710 -21.979  0.00  0.00    +0.000 C 
ATOM     19  C   UNL     1      34.282 -18.508 -23.340  0.00  0.00    -0.077 C 
ATOM     20  C   UNL     1      35.511 -15.880 -23.258  0.00  0.00    -0.023 C 
ATOM     21  C   UNL     1      34.407 -16.265 -24.240  0.00  0.00    -0.082 C 
ATOM     22  H   UNL     1      33.682 -17.912 -25.195  0.00  0.00    -0.085 HD
ATOM     23  H   UNL     1      35.345 -17.913 -24.965  0.00  0.00    -0.085 HD
ENDBRANCH  10  17
ENDBRANCH   1  13
BRANCH   6  26
ATOM     24  O   UNL     1      37.998 -22.471 -13.307  0.00  0.00    -0.270 OA
ATOM     25  N   UNL     1      38.487 -22.799 -15.523  0.00  0.00    -0.325 N 
ATOM     26  C   UNL     1      37.588 -22.715 -14.460  0.00  0.00    +0.244 C 
ATOM     27  H   UNL     1      39.449 -22.653 -15.369  0.00  0.00    +0.145 HD
ATOM     28  H   UNL     1      38.160 -23.005 -16.429  0.00  0.00    +0.145 HD
ENDBRANCH   6  26
TORSDOF 3
ENDMDL
MODEL 4
REMARK VINA RESULT:     -11.3      2.150      3.200
REMARK  Name = 24958200
REMARK  3 active torsions:
REMARK  status: ('A' for Active; 'I' for Inactive)
REMARK    1  A    between atoms: N_1  and  C_13
REMARK    2  A    between atoms: C_6  and  C_26
REMARK    3  A    between atoms: C_10  and  C_17
REMARK                            x       y       z     vdW  Elec       q    Type
REMARK                         _______ _______ _______ _____ _____    ______ ____
ROOT
ATOM      1  N   UNL     1      33.029 -22.172 -16.601  0.00  0.00    -0.189 N 
ATOM      2  N   UNL     1      33.785 -22.569 -15.559  0.00  0.00    -0.174 NA
ATOM      3  C   UNL     1      31.600 -23.132 -15.300  0.00  0.00    +0.036 C 
ATOM      4  C   UNL     1      31.705 -22.485 -16.499  0.00  0.00    +0.091 C 
ATOM      5  C   UNL     1      32.922 -23.175 -14.724  0.00  0.00    +0.105 C 
ATOM      6  C   UNL     1      33.139 -23.784 -13.474  0.00  0.00    +0.072 C 
ATOM      7  C   UNL     1      30.429 -23.646 -14.757  0.00  0.00    +0.003 C 
ATOM      8  C   UNL     1      31.966 -24.317 -12.895  0.00  0.00    +0.006 C 
ATOM      9  C   UNL     1      30.675 -24.249 -13.509  0.00  0.00    +0.000 C 
ENDROOT
BRANCH   1  13
ATOM     10  C   UNL     1      34.782 -20.153 -19.805  0.00  0.00    -0.024 C 
ATOM     11  C   UNL     1      35.578 -20.870 -18.912  0.00  0.00    -0.003 C 
ATOM     12  C   UNL     1      33.398 -20.111 -19.626  0.00  0.00    -0.003 C 
ATOM     13  C   UNL     1      33.610 -21.503 -17.662  0.00  0.00    +0.074 C 
ATOM     14  C   UNL     1      34.993 -21.545 -17.841  0.00  0.00    +0.016 C 
ATOM     15  C   UNL     1      32.813 -20.786 -18.555  0.00  0.00    +0.016 C 
BRANCH  10  17
ATOM     16  N   UNL     1      34.999 -18.125 -23.046  0.00  0.00    +0.384 N 
ATOM     17  C   UNL     1      35.419 -19.417 -20.969  0.00  0.00    +0.001 C 
ATOM     18  C   UNL     1      36.408 -18.341 -20.492  0.00  0.00    +0.000 C 
ATOM     19  C   UNL     1      34.366 -18.807 -21.914  0.00  0.00    -0.077 C 
ATOM     20  C   UNL     1      36.990 -17.588 -21.686  0.00  0.00    -0.023 C 
ATOM     21  C   UNL     1      35.888 -17.055 -22.598  0.00  0.00    -0.082 C 
ATOM     22  H   UNL     1      34.272 -17.727 -23.640  0.00  0.00    -0.085 HD
ATOM     23  H   UNL     1      35.554 -18.809 -23.561  0.00  0.00    -0.085 HD
ENDBRANCH  10  17
ENDBRANCH   1  13
BRANCH   6  26
ATOM     24  O   UNL     1      34.611 -23.497 -11.659  0.00  0.00    -0.270 OA
ATOM     25  N   UNL     1      35.498 -24.382 -13.579  0.00  0.00    -0.325 N 
ATOM     26  C   UNL     1      34.436 -23.863 -12.838  0.00  0.00    +0.244 C 
ATOM     27  H   UNL     1      36.394 -24.450 -13.176  0.00  0.00    +0.145 HD
ATOM     28  H   UNL     1      35.352 -24.682 -14.506  0.00  0.00    +0.145 HD
ENDBRANCH   6  26
TORSDOF 3
ENDMDL
MODEL 5
REMARK VINA RESULT:     -11.0      5.506      8.021
REMARK  Name = 24958200
REMARK  3 active torsions:
REMARK  status: ('A' for Active; 'I' for Inactive)
REMARK    1  A    between atoms: N_1  and  C_13
REMARK    2  A    between atoms: C_6  and  C_26
REMARK    3  A    between atoms: C_10  and  C_17
REMARK                            x       y       z     vdW  Elec       q    Type
REMARK                         _______ _______ _______ _____ _____    ______ ____
ROOT
ATOM      1  N   UNL     1      34.085 -23.846 -13.792  0.00  0.00    -0.189 N 
ATOM      2  N   UNL     1      34.457 -23.649 -12.513  0.00  0.00    -0.174 NA
ATOM      3  C   UNL     1      36.177 -24.376 -13.805  0.00  0.00    +0.036 C 
ATOM      4  C   UNL     1      35.081 -24.285 -14.616  0.00  0.00    +0.091 C 
ATOM      5  C   UNL     1      35.763 -23.971 -12.484  0.00  0.00    +0.105 C 
ATOM      6  C   UNL     1      36.680 -23.960 -11.417  0.00  0.00    +0.072 C 
ATOM      7  C   UNL     1      37.444 -24.785 -14.200  0.00  0.00    +0.003 C 
ATOM      8  C   UNL     1      37.980 -24.372 -11.787  0.00  0.00    +0.006 C 
ATOM      9  C   UNL     1      38.342 -24.765 -13.114  0.00  0.00    +0.000 C 
ENDROOT
BRANCH   1  13
ATOM     10  C   UNL     1      30.145 -23.125 -14.960  0.00  0.00    -0.024 C 
ATOM     11  C   UNL     1      31.194 -22.471 -15.606  0.00  0.00    -0.003 C 
ATOM     12  C   UNL     1      30.412 -24.020 -13.924  0.00  0.00    -0.003 C 
ATOM     13  C   UNL     1      32.780 -23.606 -14.179  0.00  0.00    +0.074 C 
ATOM     14  C   UNL     1      32.511 -22.712 -15.215  0.00  0.00    +0.016 C 
ATOM     15  C   UNL     1      31.729 -24.261 -13.533  0.00  0.00    +0.016 C 
BRANCH  10  17
ATOM     16  N   UNL     1      26.666 -21.524 -14.952  0.00  0.00    +0.384 N 
ATOM     17  C   UNL     1      28.711 -22.862 -15.383  0.00  0.00    +0.001 C 
ATOM     18  C   UNL     1      28.608 -22.547 -16.885  0.00  0.00    +0.000 C 
ATOM     19  C   UNL     1      28.057 -21.744 -14.548  0.00  0.00    -0.077 C 
ATOM     20  C   UNL     1      27.161 -22.239 -17.264  0.00  0.00    -0.023 C 
ATOM     21  C   UNL     1      26.569 -21.158 -16.364  0.00  0.00    -0.082 C 
ATOM     22  H   UNL     1      26.272 -20.773 -14.386  0.00  0.00    -0.085 HD
ATOM     23  H   UNL     1      26.150 -22.394 -14.810  0.00  0.00    -0.085 HD
ENDBRANCH  10  17
ENDBRANCH   1  13
BRANCH   6  26
ATOM     24  O   UNL     1      35.574 -24.254  -9.360  0.00  0.00    -0.270 OA
ATOM     25  N   UNL     1      36.891 -22.389  -9.567  0.00  0.00    -0.325 N 
ATOM     26  C   UNL     1      36.334 -23.565 -10.069  0.00  0.00    +0.244 C 
ATOM     27  H   UNL     1      36.676 -22.092  -8.653  0.00  0.00    +0.145 HD
ATOM     28  H   UNL     1      37.501 -21.855 -10.126  0.00  0.00    +0.145 HD
ENDBRANCH   6  26
TORSDOF 3
ENDMDL
MODEL 6
REMARK VINA RESULT:     -10.8      5.243      8.051
REMARK  Name = 24958200
REMARK  3 active torsions:
REMARK  status: ('A' for Active; 'I' for Inactive)
REMARK    1  A    between atoms: N_1  and  C_13
REMARK    2  A    between atoms: C_6  and  C_26
REMARK    3  A    between atoms: C_10  and  C_17
REMARK                            x       y       z     vdW  Elec       q    Type
REMARK                         _______ _______ _______ _____ _____    ______ ____
ROOT
ATOM      1  N   UNL     1      35.091 -23.782 -14.205  0.00  0.00    -0.189 N 
ATOM      2  N   UNL     1      35.747 -23.195 -13.186  0.00  0.00    -0.174 NA
ATOM      3  C   UNL     1      36.952 -24.872 -14.132  0.00  0.00    +0.036 C 
ATOM      4  C   UNL     1      35.769 -24.799 -14.812  0.00  0.00    +0.091 C 
ATOM      5  C   UNL     1      36.919 -23.853 -13.112  0.00  0.00    +0.105 C 
ATOM      6  C   UNL     1      38.008 -23.678 -12.238  0.00  0.00    +0.072 C 
ATOM      7  C   UNL     1      37.982 -25.767 -14.393  0.00  0.00    +0.003 C 
ATOM      8  C   UNL     1      39.072 -24.576 -12.477  0.00  0.00    +0.006 C 
ATOM      9  C   UNL     1      39.057 -25.571 -13.505  0.00  0.00    +0.000 C 
ENDROOT
BRANCH   1  13
ATOM     10  C   UNL     1      31.281 -22.457 -15.274  0.00  0.00    -0.024 C 
ATOM     11  C   UNL     1      31.534 -22.875 -13.968  0.00  0.00    -0.003 C 
ATOM     12  C   UNL     1      32.304 -22.481 -16.224  0.00  0.00    -0.003 C 
ATOM     13  C   UNL     1      33.828 -23.344 -14.559  0.00  0.00    +0.074 C 
ATOM     14  C   UNL     1      32.807 -23.319 -13.610  0.00  0.00    +0.016 C 
ATOM     15  C   UNL     1      33.577 -22.925 -15.867  0.00  0.00    +0.016 C 
BRANCH  10  17
ATOM     16  N   UNL     1      27.922 -22.387 -17.111  0.00  0.00    +0.384 N 
ATOM     17  C   UNL     1      29.896 -21.976 -15.664  0.00  0.00    +0.001 C 
ATOM     18  C   UNL     1      28.977 -21.832 -14.440  0.00  0.00    +0.000 C 
ATOM     19  C   UNL     1      29.247 -22.882 -16.727  0.00  0.00    -0.077 C 
ATOM     20  C   UNL     1      27.579 -21.395 -14.874  0.00  0.00    -0.023 C 
ATOM     21  C   UNL     1      27.023 -22.313 -15.960  0.00  0.00    -0.082 C 
ATOM     22  H   UNL     1      27.522 -23.017 -17.806  0.00  0.00    -0.085 HD
ATOM     23  H   UNL     1      28.031 -21.447 -17.494  0.00  0.00    -0.085 HD
ENDBRANCH  10  17
ENDBRANCH   1  13
BRANCH   6  26
ATOM     24  O   UNL     1      38.817 -21.702 -11.245  0.00  0.00    -0.270 OA
ATOM     25  N   UNL     1      37.162 -22.821 -10.120  0.00  0.00    -0.325 N 
ATOM     26  C   UNL     1      38.042 -22.678 -11.194  0.00  0.00    +0.244 C 
ATOM     27  H   UNL     1      37.160 -22.157  -9.393  0.00  0.00    +0.145 HD
ATOM     28  H   UNL     1      36.543 -23.586 -10.090  0.00  0.00    +0.145 HD
ENDBRANCH   6  26
TORSDOF 3
ENDMDL
MODEL 7
REMARK VINA RESULT:     -10.8      1.410      2.375
REMARK  Name = 24958200
REMARK  3 active torsions:
REMARK  status: ('A' for Active; 'I' for Inactive)
REMARK    1  A    between atoms: N_1  and  C_13
REMARK    2  A    between atoms: C_6  and  C_26
REMARK    3  A    between atoms: C_10  and  C_17
REMARK                            x       y       z     vdW  Elec       q    Type
REMARK                         _______ _______ _______ _____ _____    ______ ____
ROOT
ATOM      1  N   UNL     1      34.185 -21.611 -17.526  0.00  0.00    -0.189 N 
ATOM      2  N   UNL     1      32.915 -21.935 -17.214  0.00  0.00    -0.174 NA
ATOM      3  C   UNL     1      34.410 -22.799 -15.738  0.00  0.00    +0.036 C 
ATOM      4  C   UNL     1      35.127 -22.104 -16.671  0.00  0.00    +0.091 C 
ATOM      5  C   UNL     1      33.018 -22.679 -16.098  0.00  0.00    +0.105 C 
ATOM      6  C   UNL     1      32.021 -23.295 -15.318  0.00  0.00    +0.072 C 
ATOM      7  C   UNL     1      34.942 -23.483 -14.653  0.00  0.00    +0.003 C 
ATOM      8  C   UNL     1      32.531 -24.001 -14.206  0.00  0.00    +0.006 C 
ATOM      9  C   UNL     1      33.924 -24.089 -13.890  0.00  0.00    +0.000 C 
ENDROOT
BRANCH   1  13
ATOM     10  C   UNL     1      34.977 -19.276 -20.892  0.00  0.00    -0.024 C 
ATOM     11  C   UNL     1      36.030 -19.832 -20.165  0.00  0.00    -0.003 C 
ATOM     12  C   UNL     1      33.659 -19.500 -20.493  0.00  0.00    -0.003 C 
ATOM     13  C   UNL     1      34.448 -20.837 -18.640  0.00  0.00    +0.074 C 
ATOM     14  C   UNL     1      35.765 -20.613 -19.040  0.00  0.00    +0.016 C 
ATOM     15  C   UNL     1      33.394 -20.281 -19.368  0.00  0.00    +0.016 C 
BRANCH  10  17
ATOM     16  N   UNL     1      34.517 -17.814 -24.401  0.00  0.00    +0.384 N 
ATOM     17  C   UNL     1      35.265 -18.425 -22.115  0.00  0.00    +0.001 C 
ATOM     18  C   UNL     1      35.404 -16.937 -21.755  0.00  0.00    +0.000 C 
ATOM     19  C   UNL     1      34.207 -18.621 -23.218  0.00  0.00    -0.077 C 
ATOM     20  C   UNL     1      35.643 -16.106 -23.014  0.00  0.00    -0.023 C 
ATOM     21  C   UNL     1      34.583 -16.389 -24.076  0.00  0.00    -0.082 C 
ATOM     22  H   UNL     1      33.791 -17.962 -25.102  0.00  0.00    -0.085 HD
ATOM     23  H   UNL     1      35.429 -18.104 -24.756  0.00  0.00    -0.085 HD
ENDBRANCH  10  17
ENDBRANCH   1  13
BRANCH   6  26
ATOM     24  O   UNL     1      29.815 -24.118 -15.282  0.00  0.00    -0.270 OA
ATOM     25  N   UNL     1      30.144 -22.085 -16.291  0.00  0.00    -0.325 N 
ATOM     26  C   UNL     1      30.609 -23.217 -15.620  0.00  0.00    +0.244 C 
ATOM     27  H   UNL     1      29.188 -22.001 -16.512  0.00  0.00    +0.145 HD
ATOM     28  H   UNL     1      30.772 -21.370 -16.544  0.00  0.00    +0.145 HD
ENDBRANCH   6  26
TORSDOF 3
ENDMDL
MODEL 8
REMARK VINA RESULT:     -10.7      4.438      9.129
REMARK  Name = 24958200
REMARK  3 active torsions:
REMARK  status: ('A' for Active; 'I' for Inactive)
REMARK    1  A    between atoms: N_1  and  C_13
REMARK    2  A    between atoms: C_6  and  C_26
REMARK    3  A    between atoms: C_10  and  C_17
REMARK                            x       y       z     vdW  Elec       q    Type
REMARK                         _______ _______ _______ _____ _____    ______ ____
ROOT
ATOM      1  N   UNL     1      35.039 -18.517 -21.229  0.00  0.00    -0.189 N 
ATOM      2  N   UNL     1      35.054 -17.191 -20.992  0.00  0.00    -0.174 NA
ATOM      3  C   UNL     1      34.789 -17.666 -23.197  0.00  0.00    +0.036 C 
ATOM      4  C   UNL     1      34.883 -18.861 -22.541  0.00  0.00    +0.091 C 
ATOM      5  C   UNL     1      34.899 -16.626 -22.203  0.00  0.00    +0.105 C 
ATOM      6  C   UNL     1      34.839 -15.271 -22.575  0.00  0.00    +0.072 C 
ATOM      7  C   UNL     1      34.619 -17.506 -24.566  0.00  0.00    +0.003 C 
ATOM      8  C   UNL     1      34.667 -15.074 -23.963  0.00  0.00    +0.006 C 
ATOM      9  C   UNL     1      34.563 -16.141 -24.911  0.00  0.00    +0.000 C 
ENDROOT
BRANCH   1  13
ATOM     10  C   UNL     1      35.460 -21.212 -18.072  0.00  0.00    -0.024 C 
ATOM     11  C   UNL     1      34.197 -20.949 -18.601  0.00  0.00    -0.003 C 
ATOM     12  C   UNL     1      36.584 -20.574 -18.599  0.00  0.00    -0.003 C 
ATOM     13  C   UNL     1      35.178 -19.409 -20.183  0.00  0.00    +0.074 C 
ATOM     14  C   UNL     1      34.056 -20.048 -19.656  0.00  0.00    +0.016 C 
ATOM     15  C   UNL     1      36.443 -19.673 -19.654  0.00  0.00    +0.016 C 
BRANCH  10  17
ATOM     16  N   UNL     1      36.861 -22.723 -14.844  0.00  0.00    +0.384 N 
ATOM     17  C   UNL     1      35.614 -22.191 -16.922  0.00  0.00    +0.001 C 
ATOM     18  C   UNL     1      34.282 -22.426 -16.191  0.00  0.00    +0.000 C 
ATOM     19  C   UNL     1      36.708 -21.752 -15.931  0.00  0.00    -0.077 C 
ATOM     20  C   UNL     1      34.484 -23.375 -15.012  0.00  0.00    -0.023 C 
ATOM     21  C   UNL     1      35.613 -22.899 -14.102  0.00  0.00    -0.082 C 
ATOM     22  H   UNL     1      37.584 -22.393 -14.205  0.00  0.00    -0.085 HD
ATOM     23  H   UNL     1      37.121 -23.622 -15.252  0.00  0.00    -0.085 HD
ENDBRANCH  10  17
ENDBRANCH   1  13
BRANCH   6  26
ATOM     24  O   UNL     1      35.042 -12.994 -22.010  0.00  0.00    -0.270 OA
ATOM     25  N   UNL     1      34.908 -14.482 -20.271  0.00  0.00    -0.325 N 
ATOM     26  C   UNL     1      34.942 -14.178 -21.632  0.00  0.00    +0.244 C 
ATOM     27  H   UNL     1      34.975 -13.762 -19.603  0.00  0.00    +0.145 HD
ATOM     28  H   UNL     1      34.816 -15.417 -19.978  0.00  0.00    +0.145 HD
ENDBRANCH   6  26
TORSDOF 3
ENDMDL
MODEL 9
REMARK VINA RESULT:     -10.4      8.699     12.628
REMARK  Name = 24958200
REMARK  3 active torsions:
REMARK  status: ('A' for Active; 'I' for Inactive)
REMARK    1  A    between atoms: N_1  and  C_13
REMARK    2  A    between atoms: C_6  and  C_26
REMARK    3  A    between atoms: C_10  and  C_17
REMARK                            x       y       z     vdW  Elec       q    Type
REMARK                         _______ _______ _______ _____ _____    ______ ____
ROOT
ATOM      1  N   UNL     1      33.671 -12.186 -22.170  0.00  0.00    -0.189 N 
ATOM      2  N   UNL     1      33.708 -13.012 -23.233  0.00  0.00    -0.174 NA
ATOM      3  C   UNL     1      34.511 -13.997 -21.350  0.00  0.00    +0.036 C 
ATOM      4  C   UNL     1      34.143 -12.726 -21.009  0.00  0.00    +0.091 C 
ATOM      5  C   UNL     1      34.228 -14.157 -22.756  0.00  0.00    +0.105 C 
ATOM      6  C   UNL     1      34.503 -15.374 -23.407  0.00  0.00    +0.072 C 
ATOM      7  C   UNL     1      35.053 -14.942 -20.488  0.00  0.00    +0.003 C 
ATOM      8  C   UNL     1      35.056 -16.357 -22.557  0.00  0.00    +0.006 C 
ATOM      9  C   UNL     1      35.317 -16.149 -21.166  0.00  0.00    +0.000 C 
ENDROOT
BRANCH   1  13
ATOM     10  C   UNL     1      32.200  -8.303 -22.590  0.00  0.00    -0.024 C 
ATOM     11  C   UNL     1      31.706  -9.132 -21.582  0.00  0.00    -0.003 C 
ATOM     12  C   UNL     1      33.188  -8.773 -23.457  0.00  0.00    -0.003 C 
ATOM     13  C   UNL     1      33.183 -10.900 -22.309  0.00  0.00    +0.074 C 
ATOM     14  C   UNL     1      32.197 -10.429 -21.442  0.00  0.00    +0.016 C 
ATOM     15  C   UNL     1      33.679 -10.071 -23.317  0.00  0.00    +0.016 C 
BRANCH  10  17
ATOM     16  N   UNL     1      31.170  -4.756 -21.581  0.00  0.00    +0.384 N 
ATOM     17  C   UNL     1      31.665  -6.892 -22.744  0.00  0.00    +0.001 C 
ATOM     18  C   UNL     1      32.392  -6.124 -23.859  0.00  0.00    +0.000 C 
ATOM     19  C   UNL     1      31.717  -6.105 -21.420  0.00  0.00    -0.077 C 
ATOM     20  C   UNL     1      31.863  -4.695 -23.953  0.00  0.00    -0.023 C 
ATOM     21  C   UNL     1      31.904  -3.998 -22.595  0.00  0.00    -0.082 C 
ATOM     22  H   UNL     1      31.232  -4.265 -20.690  0.00  0.00    -0.085 HD
ATOM     23  H   UNL     1      30.199  -4.838 -21.883  0.00  0.00    -0.085 HD
ENDBRANCH  10  17
ENDBRANCH   1  13
BRANCH   6  26
ATOM     24  O   UNL     1      34.846 -16.489 -25.453  0.00  0.00    -0.270 OA
ATOM     25  N   UNL     1      33.281 -14.814 -25.439  0.00  0.00    -0.325 N 
ATOM     26  C   UNL     1      34.245 -15.604 -24.812  0.00  0.00    +0.244 C 
ATOM     27  H   UNL     1      33.081 -14.945 -26.395  0.00  0.00    +0.145 HD
ATOM     28  H   UNL     1      32.800 -14.125 -24.926  0.00  0.00    +0.145 HD
ENDBRANCH   6  26
TORSDOF 3
ENDMDL
