MODEL 1
REMARK VINA RESULT:     -12.3      0.000      0.000
REMARK  Name = 447656
REMARK  5 active torsions:
REMARK  status: ('A' for Active; 'I' for Inactive)
REMARK    1  A    between atoms: N_5  and  C_14
REMARK    2  A    between atoms: C_6  and  O_25
REMARK    3  A    between atoms: C_17  and  C_22
REMARK    4  A    between atoms: O_25  and  C_26
REMARK    5  A    between atoms: C_26  and  C_27
REMARK                            x       y       z     vdW  Elec       q    Type
REMARK                         _______ _______ _______ _____ _____    ______ ____
ROOT
ATOM      1  N   UNL     1      33.997 -23.202 -15.162  0.00  0.00    -0.293 NA
ATOM      2  N   UNL     1      30.615 -22.230 -16.230  0.00  0.00    -0.266 NA
ATOM      3  N   UNL     1      32.305 -23.393 -13.414  0.00  0.00    -0.316 NA
ATOM      4  N   UNL     1      30.074 -22.748 -14.131  0.00  0.00    -0.296 N 
ATOM      5  N   UNL     1      34.542 -23.947 -13.009  0.00  0.00    -0.238 N 
ATOM      6  C   UNL     1      33.086 -22.761 -16.055  0.00  0.00    +0.288 C 
ATOM      7  C   UNL     1      31.778 -22.631 -15.636  0.00  0.00    +0.215 C 
ATOM      8  C   UNL     1      31.415 -22.948 -14.334  0.00  0.00    +0.196 C 
ATOM      9  C   UNL     1      33.557 -23.488 -13.913  0.00  0.00    +0.207 C 
ATOM     10  C   UNL     1      29.624 -22.316 -15.290  0.00  0.00    +0.164 C 
ATOM     11  H   UNL     1      30.510 -21.932 -17.163  0.00  0.00    +0.126 HD
ATOM     12  H   UNL     1      29.562 -22.894 -13.303  0.00  0.00    +0.150 HD
ATOM     13  H   UNL     1      34.194 -24.147 -12.111  0.00  0.00    +0.166 HD
ENDROOT
BRANCH   5  14
ATOM     14  C   UNL     1      35.923 -24.174 -13.143  0.00  0.00    +0.058 C 
ATOM     15  C   UNL     1      36.820 -23.604 -12.236  0.00  0.00    +0.015 C 
ATOM     16  C   UNL     1      36.406 -24.970 -14.185  0.00  0.00    +0.015 C 
ATOM     17  C   UNL     1      38.668 -24.625 -13.409  0.00  0.00    +0.053 C 
ATOM     18  C   UNL     1      38.190 -23.829 -12.368  0.00  0.00    +0.006 C 
ATOM     19  C   UNL     1      37.776 -25.196 -14.318  0.00  0.00    +0.006 C 
BRANCH  17  22
ATOM     20  O   UNL     1      40.926 -23.961 -13.326  0.00  0.00    -0.270 OA
ATOM     21  N   UNL     1      40.509 -26.137 -13.918  0.00  0.00    -0.325 N 
ATOM     22  C   UNL     1      40.096 -24.861 -13.547  0.00  0.00    +0.243 C 
ATOM     23  H   UNL     1      41.469 -26.333 -14.022  0.00  0.00    +0.145 HD
ATOM     24  H   UNL     1      39.842 -26.844 -14.078  0.00  0.00    +0.145 HD
ENDBRANCH  17  22
ENDBRANCH   5  14
BRANCH   6  25
ATOM     25  O   UNL     1      33.499 -22.461 -17.330  0.00  0.00    -0.453 OA
BRANCH  25  26
ATOM     26  C   UNL     1      34.842 -22.045 -17.490  0.00  0.00    +0.208 C 
BRANCH  26  27
ATOM     27  C   UNL     1      34.960 -21.286 -18.810  0.00  0.00    +0.044 C 
ATOM     28  C   UNL     1      33.704 -20.442 -19.065  0.00  0.00    +0.004 C 
ATOM     29  C   UNL     1      36.218 -20.407 -18.820  0.00  0.00    +0.004 C 
ATOM     30  C   UNL     1      33.820 -19.632 -20.354  0.00  0.00    +0.000 C 
ATOM     31  C   UNL     1      36.330 -19.597 -20.109  0.00  0.00    +0.000 C 
ATOM     32  C   UNL     1      35.076 -18.767 -20.364  0.00  0.00    +0.000 C 
ENDBRANCH  26  27
ENDBRANCH  25  26
ENDBRANCH   6  25
TORSDOF 5
ENDMDL
MODEL 2
REMARK VINA RESULT:     -12.1      2.026      6.675
REMARK  Name = 447656
REMARK  5 active torsions:
REMARK  status: ('A' for Active; 'I' for Inactive)
REMARK    1  A    between atoms: N_5  and  C_14
REMARK    2  A    between atoms: C_6  and  O_25
REMARK    3  A    between atoms: C_17  and  C_22
REMARK    4  A    between atoms: O_25  and  C_26
REMARK    5  A    between atoms: C_26  and  C_27
REMARK                            x       y       z     vdW  Elec       q    Type
REMARK                         _______ _______ _______ _____ _____    ______ ____
ROOT
ATOM      1  N   UNL     1      34.149 -22.934 -15.193  0.00  0.00    -0.293 NA
ATOM      2  N   UNL     1      37.812 -23.134 -14.930  0.00  0.00    -0.266 NA
ATOM      3  N   UNL     1      34.944 -24.071 -13.186  0.00  0.00    -0.316 NA
ATOM      4  N   UNL     1      37.366 -24.198 -13.023  0.00  0.00    -0.296 N 
ATOM      5  N   UNL     1      32.659 -23.802 -13.609  0.00  0.00    -0.238 N 
ATOM      6  C   UNL     1      35.411 -22.713 -15.620  0.00  0.00    +0.288 C 
ATOM      7  C   UNL     1      36.450 -23.168 -14.834  0.00  0.00    +0.215 C 
ATOM      8  C   UNL     1      36.198 -23.833 -13.641  0.00  0.00    +0.196 C 
ATOM      9  C   UNL     1      33.995 -23.591 -14.019  0.00  0.00    +0.207 C 
ATOM     10  C   UNL     1      38.316 -23.763 -13.823  0.00  0.00    +0.164 C 
ATOM     11  H   UNL     1      38.335 -22.732 -15.661  0.00  0.00    +0.126 HD
ATOM     12  H   UNL     1      37.471 -24.678 -12.169  0.00  0.00    +0.150 HD
ATOM     13  H   UNL     1      32.577 -24.280 -12.752  0.00  0.00    +0.166 HD
ENDROOT
BRANCH   5  14
ATOM     14  C   UNL     1      31.422 -23.461 -14.186  0.00  0.00    +0.058 C 
ATOM     15  C   UNL     1      30.651 -24.438 -14.821  0.00  0.00    +0.015 C 
ATOM     16  C   UNL     1      30.959 -22.145 -14.126  0.00  0.00    +0.015 C 
ATOM     17  C   UNL     1      28.965 -22.786 -15.332  0.00  0.00    +0.053 C 
ATOM     18  C   UNL     1      29.425 -24.101 -15.393  0.00  0.00    +0.006 C 
ATOM     19  C   UNL     1      29.732 -21.807 -14.698  0.00  0.00    +0.006 C 
BRANCH  17  22
ATOM     20  O   UNL     1      27.375 -22.819 -17.069  0.00  0.00    -0.270 OA
ATOM     21  N   UNL     1      26.808 -21.666 -15.169  0.00  0.00    -0.325 N 
ATOM     22  C   UNL     1      27.687 -22.434 -15.927  0.00  0.00    +0.243 C 
ATOM     23  H   UNL     1      25.933 -21.408 -15.540  0.00  0.00    +0.145 HD
ATOM     24  H   UNL     1      27.062 -21.379 -14.262  0.00  0.00    +0.145 HD
ENDBRANCH  17  22
ENDBRANCH   5  14
BRANCH   6  25
ATOM     25  O   UNL     1      35.603 -22.050 -16.808  0.00  0.00    -0.453 OA
BRANCH  25  26
ATOM     26  C   UNL     1      34.505 -22.000 -17.700  0.00  0.00    +0.208 C 
BRANCH  26  27
ATOM     27  C   UNL     1      34.930 -21.227 -18.947  0.00  0.00    +0.044 C 
ATOM     28  C   UNL     1      33.842 -20.228 -19.363  0.00  0.00    +0.004 C 
ATOM     29  C   UNL     1      36.267 -20.511 -18.712  0.00  0.00    +0.004 C 
ATOM     30  C   UNL     1      34.266 -19.405 -20.577  0.00  0.00    +0.000 C 
ATOM     31  C   UNL     1      36.686 -19.687 -19.927  0.00  0.00    +0.000 C 
ATOM     32  C   UNL     1      35.599 -18.702 -20.343  0.00  0.00    +0.000 C 
ENDBRANCH  26  27
ENDBRANCH  25  26
ENDBRANCH   6  25
TORSDOF 5
ENDMDL
MODEL 3
REMARK VINA RESULT:     -12.0      2.073      6.568
REMARK  Name = 447656
REMARK  5 active torsions:
REMARK  status: ('A' for Active; 'I' for Inactive)
REMARK    1  A    between atoms: N_5  and  C_14
REMARK    2  A    between atoms: C_6  and  O_25
REMARK    3  A    between atoms: C_17  and  C_22
REMARK    4  A    between atoms: O_25  and  C_26
REMARK    5  A    between atoms: C_26  and  C_27
REMARK                            x       y       z     vdW  Elec       q    Type
REMARK                         _______ _______ _______ _____ _____    ______ ____
ROOT
ATOM      1  N   UNL     1      34.717 -23.313 -14.020  0.00  0.00    -0.293 NA
ATOM      2  N   UNL     1      38.235 -23.375 -12.951  0.00  0.00    -0.266 NA
ATOM      3  N   UNL     1      35.025 -23.656 -11.624  0.00  0.00    -0.316 NA
ATOM      4  N   UNL     1      37.354 -23.696 -10.929  0.00  0.00    -0.296 N 
ATOM      5  N   UNL     1      32.890 -23.574 -12.578  0.00  0.00    -0.238 N 
ATOM      6  C   UNL     1      36.049 -23.246 -14.225  0.00  0.00    +0.288 C 
ATOM      7  C   UNL     1      36.881 -23.384 -13.133  0.00  0.00    +0.215 C 
ATOM      8  C   UNL     1      36.357 -23.585 -11.863  0.00  0.00    +0.196 C 
ATOM      9  C   UNL     1      34.292 -23.511 -12.749  0.00  0.00    +0.207 C 
ATOM     10  C   UNL     1      38.469 -23.565 -11.615  0.00  0.00    +0.164 C 
ATOM     11  H   UNL     1      38.916 -23.254 -13.651  0.00  0.00    +0.126 HD
ATOM     12  H   UNL     1      37.257 -23.841  -9.959  0.00  0.00    +0.150 HD
ATOM     13  H   UNL     1      32.610 -23.718 -11.645  0.00  0.00    +0.166 HD
ENDROOT
BRANCH   5  14
ATOM     14  C   UNL     1      31.816 -23.471 -13.480  0.00  0.00    +0.058 C 
ATOM     15  C   UNL     1      30.956 -24.555 -13.674  0.00  0.00    +0.015 C 
ATOM     16  C   UNL     1      31.604 -22.284 -14.186  0.00  0.00    +0.015 C 
ATOM     17  C   UNL     1      29.682 -23.267 -15.272  0.00  0.00    +0.053 C 
ATOM     18  C   UNL     1      29.891 -24.454 -14.569  0.00  0.00    +0.006 C 
ATOM     19  C   UNL     1      30.538 -22.182 -15.081  0.00  0.00    +0.006 C 
BRANCH  17  22
ATOM     20  O   UNL     1      28.110 -24.162 -16.781  0.00  0.00    -0.270 OA
ATOM     21  N   UNL     1      28.023 -21.899 -16.417  0.00  0.00    -0.325 N 
ATOM     22  C   UNL     1      28.572 -23.161 -16.204  0.00  0.00    +0.243 C 
ATOM     23  H   UNL     1      27.270 -21.788 -17.042  0.00  0.00    +0.145 HD
ATOM     24  H   UNL     1      28.389 -21.116 -15.944  0.00  0.00    +0.145 HD
ENDBRANCH  17  22
ENDBRANCH   5  14
BRANCH   6  25
ATOM     25  O   UNL     1      36.514 -23.047 -15.503  0.00  0.00    -0.453 OA
BRANCH  25  26
ATOM     26  C   UNL     1      36.552 -21.712 -15.972  0.00  0.00    +0.208 C 
BRANCH  26  27
ATOM     27  C   UNL     1      36.002 -21.684 -17.397  0.00  0.00    +0.044 C 
ATOM     28  C   UNL     1      34.469 -21.600 -17.385  0.00  0.00    +0.004 C 
ATOM     29  C   UNL     1      36.606 -20.518 -18.189  0.00  0.00    +0.004 C 
ATOM     30  C   UNL     1      33.898 -21.518 -18.799  0.00  0.00    +0.000 C 
ATOM     31  C   UNL     1      36.031 -20.436 -19.601  0.00  0.00    +0.000 C 
ATOM     32  C   UNL     1      34.508 -20.363 -19.585  0.00  0.00    +0.000 C 
ENDBRANCH  26  27
ENDBRANCH  25  26
ENDBRANCH   6  25
TORSDOF 5
ENDMDL
MODEL 4
REMARK VINA RESULT:     -11.8      2.526      7.050
REMARK  Name = 447656
REMARK  5 active torsions:
REMARK  status: ('A' for Active; 'I' for Inactive)
REMARK    1  A    between atoms: N_5  and  C_14
REMARK    2  A    between atoms: C_6  and  O_25
REMARK    3  A    between atoms: C_17  and  C_22
REMARK    4  A    between atoms: O_25  and  C_26
REMARK    5  A    between atoms: C_26  and  C_27
REMARK                            x       y       z     vdW  Elec       q    Type
REMARK                         _______ _______ _______ _____ _____    ______ ____
ROOT
ATOM      1  N   UNL     1      33.949 -22.174 -15.865  0.00  0.00    -0.293 NA
ATOM      2  N   UNL     1      32.839 -24.075 -12.920  0.00  0.00    -0.266 NA
ATOM      3  N   UNL     1      31.683 -23.060 -16.046  0.00  0.00    -0.316 NA
ATOM      4  N   UNL     1      30.960 -24.316 -14.094  0.00  0.00    -0.296 N 
ATOM      5  N   UNL     1      32.644 -21.811 -17.776  0.00  0.00    -0.238 N 
ATOM      6  C   UNL     1      34.104 -22.703 -14.633  0.00  0.00    +0.288 C 
ATOM      7  C   UNL     1      33.051 -23.415 -14.097  0.00  0.00    +0.215 C 
ATOM      8  C   UNL     1      31.870 -23.579 -14.808  0.00  0.00    +0.196 C 
ATOM      9  C   UNL     1      32.764 -22.381 -16.488  0.00  0.00    +0.207 C 
ATOM     10  C   UNL     1      31.575 -24.598 -12.965  0.00  0.00    +0.164 C 
ATOM     11  H   UNL     1      33.480 -24.160 -12.176  0.00  0.00    +0.126 HD
ATOM     12  H   UNL     1      30.050 -24.575 -14.365  0.00  0.00    +0.150 HD
ATOM     13  H   UNL     1      31.773 -21.977 -18.203  0.00  0.00    +0.166 HD
ENDROOT
BRANCH   5  14
ATOM     14  C   UNL     1      33.525 -21.051 -18.565  0.00  0.00    +0.058 C 
ATOM     15  C   UNL     1      33.024 -20.117 -19.476  0.00  0.00    +0.015 C 
ATOM     16  C   UNL     1      34.905 -21.226 -18.443  0.00  0.00    +0.015 C 
ATOM     17  C   UNL     1      35.275 -19.540 -20.134  0.00  0.00    +0.053 C 
ATOM     18  C   UNL     1      33.897 -19.362 -20.259  0.00  0.00    +0.006 C 
ATOM     19  C   UNL     1      35.779 -20.471 -19.226  0.00  0.00    +0.006 C 
BRANCH  17  22
ATOM     20  O   UNL     1      37.370 -18.576 -20.612  0.00  0.00    -0.270 OA
ATOM     21  N   UNL     1      35.694 -18.218 -22.137  0.00  0.00    -0.325 N 
ATOM     22  C   UNL     1      36.186 -18.753 -20.949  0.00  0.00    +0.243 C 
ATOM     23  H   UNL     1      36.282 -17.679 -22.714  0.00  0.00    +0.145 HD
ATOM     24  H   UNL     1      34.758 -18.376 -22.398  0.00  0.00    +0.145 HD
ENDBRANCH  17  22
ENDBRANCH   5  14
BRANCH   6  25
ATOM     25  O   UNL     1      35.293 -22.511 -13.974  0.00  0.00    -0.453 OA
BRANCH  25  26
ATOM     26  C   UNL     1      36.480 -22.662 -14.731  0.00  0.00    +0.208 C 
BRANCH  26  27
ATOM     27  C   UNL     1      37.412 -23.615 -13.986  0.00  0.00    +0.044 C 
ATOM     28  C   UNL     1      37.447 -23.280 -12.489  0.00  0.00    +0.004 C 
ATOM     29  C   UNL     1      36.988 -25.073 -14.209  0.00  0.00    +0.004 C 
ATOM     30  C   UNL     1      38.332 -24.253 -11.714  0.00  0.00    +0.000 C 
ATOM     31  C   UNL     1      37.873 -26.043 -13.431  0.00  0.00    +0.000 C 
ATOM     32  C   UNL     1      37.913 -25.701 -11.945  0.00  0.00    +0.000 C 
ENDBRANCH  26  27
ENDBRANCH  25  26
ENDBRANCH   6  25
TORSDOF 5
ENDMDL
MODEL 5
REMARK VINA RESULT:     -11.7      2.604      7.335
REMARK  Name = 447656
REMARK  5 active torsions:
REMARK  status: ('A' for Active; 'I' for Inactive)
REMARK    1  A    between atoms: N_5  and  C_14
REMARK    2  A    between atoms: C_6  and  O_25
REMARK    3  A    between atoms: C_17  and  C_22
REMARK    4  A    between atoms: O_25  and  C_26
REMARK    5  A    between atoms: C_26  and  C_27
REMARK                            x       y       z     vdW  Elec       q    Type
REMARK                         _______ _______ _______ _____ _____    ______ ____
ROOT
ATOM      1  N   UNL     1      35.685 -23.133 -15.055  0.00  0.00    -0.293 NA
ATOM      2  N   UNL     1      36.600 -25.054 -12.056  0.00  0.00    -0.266 NA
ATOM      3  N   UNL     1      38.053 -23.018 -14.482  0.00  0.00    -0.316 NA
ATOM      4  N   UNL     1      38.647 -24.291 -12.498  0.00  0.00    -0.296 N 
ATOM      5  N   UNL     1      37.195 -21.890 -16.343  0.00  0.00    -0.238 N 
ATOM      6  C   UNL     1      35.425 -23.937 -14.002  0.00  0.00    +0.288 C 
ATOM      7  C   UNL     1      36.475 -24.287 -13.179  0.00  0.00    +0.215 C 
ATOM      8  C   UNL     1      37.760 -23.825 -13.433  0.00  0.00    +0.196 C 
ATOM      9  C   UNL     1      36.966 -22.729 -15.229  0.00  0.00    +0.207 C 
ATOM     10  C   UNL     1      37.918 -25.026 -11.685  0.00  0.00    +0.164 C 
ATOM     11  H   UNL     1      35.875 -25.538 -11.597  0.00  0.00    +0.126 HD
ATOM     12  H   UNL     1      39.615 -24.116 -12.445  0.00  0.00    +0.150 HD
ATOM     13  H   UNL     1      38.134 -21.612 -16.444  0.00  0.00    +0.166 HD
ENDROOT
BRANCH   5  14
ATOM     14  C   UNL     1      36.343 -21.374 -17.336  0.00  0.00    +0.058 C 
ATOM     15  C   UNL     1      36.856 -20.554 -18.344  0.00  0.00    +0.015 C 
ATOM     16  C   UNL     1      34.980 -21.679 -17.319  0.00  0.00    +0.015 C 
ATOM     17  C   UNL     1      34.651 -20.348 -19.309  0.00  0.00    +0.053 C 
ATOM     18  C   UNL     1      36.012 -20.042 -19.329  0.00  0.00    +0.006 C 
ATOM     19  C   UNL     1      34.135 -21.167 -18.304  0.00  0.00    +0.006 C 
BRANCH  17  22
ATOM     20  O   UNL     1      32.542 -20.001 -20.297  0.00  0.00    -0.270 OA
ATOM     21  N   UNL     1      34.348 -19.070 -21.360  0.00  0.00    -0.325 N 
ATOM     22  C   UNL     1      33.771 -19.816 -20.336  0.00  0.00    +0.243 C 
ATOM     23  H   UNL     1      33.782 -18.694 -22.074  0.00  0.00    +0.145 HD
ATOM     24  H   UNL     1      35.321 -18.920 -21.373  0.00  0.00    +0.145 HD
ENDBRANCH  17  22
ENDBRANCH   5  14
BRANCH   6  25
ATOM     25  O   UNL     1      34.136 -24.364 -13.796  0.00  0.00    -0.453 OA
BRANCH  25  26
ATOM     26  C   UNL     1      33.167 -23.372 -13.511  0.00  0.00    +0.208 C 
BRANCH  26  27
ATOM     27  C   UNL     1      31.931 -23.642 -14.367  0.00  0.00    +0.044 C 
ATOM     28  C   UNL     1      30.868 -24.401 -13.560  0.00  0.00    +0.004 C 
ATOM     29  C   UNL     1      31.360 -22.332 -14.925  0.00  0.00    +0.004 C 
ATOM     30  C   UNL     1      29.600 -24.636 -14.379  0.00  0.00    +0.000 C 
ATOM     31  C   UNL     1      30.092 -22.571 -15.740  0.00  0.00    +0.000 C 
ATOM     32  C   UNL     1      29.042 -23.333 -14.939  0.00  0.00    +0.000 C 
ENDBRANCH  26  27
ENDBRANCH  25  26
ENDBRANCH   6  25
TORSDOF 5
ENDMDL
MODEL 6
REMARK VINA RESULT:     -11.3      2.626      5.446
REMARK  Name = 447656
REMARK  5 active torsions:
REMARK  status: ('A' for Active; 'I' for Inactive)
REMARK    1  A    between atoms: N_5  and  C_14
REMARK    2  A    between atoms: C_6  and  O_25
REMARK    3  A    between atoms: C_17  and  C_22
REMARK    4  A    between atoms: O_25  and  C_26
REMARK    5  A    between atoms: C_26  and  C_27
REMARK                            x       y       z     vdW  Elec       q    Type
REMARK                         _______ _______ _______ _____ _____    ______ ____
ROOT
ATOM      1  N   UNL     1      34.876 -21.964 -16.973  0.00  0.00    -0.293 NA
ATOM      2  N   UNL     1      33.236 -20.510 -19.926  0.00  0.00    -0.266 NA
ATOM      3  N   UNL     1      36.298 -20.459 -18.263  0.00  0.00    -0.316 NA
ATOM      4  N   UNL     1      35.204 -19.504 -20.213  0.00  0.00    -0.296 N 
ATOM      5  N   UNL     1      37.086 -21.524 -16.335  0.00  0.00    -0.238 N 
ATOM      6  C   UNL     1      33.839 -21.778 -17.818  0.00  0.00    +0.288 C 
ATOM      7  C   UNL     1      34.022 -20.932 -18.892  0.00  0.00    +0.215 C 
ATOM      8  C   UNL     1      35.239 -20.293 -19.093  0.00  0.00    +0.196 C 
ATOM      9  C   UNL     1      36.026 -21.302 -17.244  0.00  0.00    +0.207 C 
ATOM     10  C   UNL     1      33.986 -19.657 -20.689  0.00  0.00    +0.164 C 
ATOM     11  H   UNL     1      32.301 -20.772 -20.091  0.00  0.00    +0.126 HD
ATOM     12  H   UNL     1      35.928 -18.946 -20.579  0.00  0.00    +0.150 HD
ATOM     13  H   UNL     1      37.908 -21.029 -16.556  0.00  0.00    +0.166 HD
ENDROOT
BRANCH   5  14
ATOM     14  C   UNL     1      37.195 -22.312 -15.176  0.00  0.00    +0.058 C 
ATOM     15  C   UNL     1      36.219 -22.234 -14.179  0.00  0.00    +0.015 C 
ATOM     16  C   UNL     1      38.280 -23.177 -15.016  0.00  0.00    +0.015 C 
ATOM     17  C   UNL     1      37.411 -23.879 -12.873  0.00  0.00    +0.053 C 
ATOM     18  C   UNL     1      36.327 -23.016 -13.030  0.00  0.00    +0.006 C 
ATOM     19  C   UNL     1      38.388 -23.960 -13.866  0.00  0.00    +0.006 C 
BRANCH  17  22
ATOM     20  O   UNL     1      37.338 -25.925 -11.708  0.00  0.00    -0.270 OA
ATOM     21  N   UNL     1      37.867 -24.057 -10.486  0.00  0.00    -0.325 N 
ATOM     22  C   UNL     1      37.524 -24.695 -11.675  0.00  0.00    +0.243 C 
ATOM     23  H   UNL     1      37.952 -24.578  -9.655  0.00  0.00    +0.145 HD
ATOM     24  H   UNL     1      38.024 -23.085 -10.476  0.00  0.00    +0.145 HD
ENDBRANCH  17  22
ENDBRANCH   5  14
BRANCH   6  25
ATOM     25  O   UNL     1      32.658 -22.435 -17.572  0.00  0.00    -0.453 OA
BRANCH  25  26
ATOM     26  C   UNL     1      31.902 -22.003 -16.456  0.00  0.00    +0.208 C 
BRANCH  26  27
ATOM     27  C   UNL     1      31.822 -23.151 -15.452  0.00  0.00    +0.044 C 
ATOM     28  C   UNL     1      32.575 -22.796 -14.162  0.00  0.00    +0.004 C 
ATOM     29  C   UNL     1      30.361 -23.508 -15.150  0.00  0.00    +0.004 C 
ATOM     30  C   UNL     1      32.465 -23.908 -13.121  0.00  0.00    +0.000 C 
ATOM     31  C   UNL     1      30.255 -24.617 -14.107  0.00  0.00    +0.000 C 
ATOM     32  C   UNL     1      31.011 -24.265 -12.831  0.00  0.00    +0.000 C 
ENDBRANCH  26  27
ENDBRANCH  25  26
ENDBRANCH   6  25
TORSDOF 5
ENDMDL
MODEL 7
REMARK VINA RESULT:     -11.1      7.058     10.376
REMARK  Name = 447656
REMARK  5 active torsions:
REMARK  status: ('A' for Active; 'I' for Inactive)
REMARK    1  A    between atoms: N_5  and  C_14
REMARK    2  A    between atoms: C_6  and  O_25
REMARK    3  A    between atoms: C_17  and  C_22
REMARK    4  A    between atoms: O_25  and  C_26
REMARK    5  A    between atoms: C_26  and  C_27
REMARK                            x       y       z     vdW  Elec       q    Type
REMARK                         _______ _______ _______ _____ _____    ______ ____
ROOT
ATOM      1  N   UNL     1      34.841 -15.754 -21.895  0.00  0.00    -0.293 NA
ATOM      2  N   UNL     1      33.951 -12.855 -23.975  0.00  0.00    -0.266 NA
ATOM      3  N   UNL     1      34.610 -16.264 -24.270  0.00  0.00    -0.316 NA
ATOM      4  N   UNL     1      34.021 -14.341 -25.635  0.00  0.00    -0.296 N 
ATOM      5  N   UNL     1      35.171 -17.922 -22.717  0.00  0.00    -0.238 N 
ATOM      6  C   UNL     1      34.545 -14.453 -22.102  0.00  0.00    +0.288 C 
ATOM      7  C   UNL     1      34.279 -14.046 -23.393  0.00  0.00    +0.215 C 
ATOM      8  C   UNL     1      34.316 -14.952 -24.444  0.00  0.00    +0.196 C 
ATOM      9  C   UNL     1      34.856 -16.568 -22.977  0.00  0.00    +0.207 C 
ATOM     10  C   UNL     1      33.807 -13.081 -25.318  0.00  0.00    +0.164 C 
ATOM     11  H   UNL     1      33.838 -11.992 -23.513  0.00  0.00    +0.126 HD
ATOM     12  H   UNL     1      33.979 -14.751 -26.529  0.00  0.00    +0.150 HD
ATOM     13  H   UNL     1      35.175 -18.490 -23.522  0.00  0.00    +0.166 HD
ENDROOT
BRANCH   5  14
ATOM     14  C   UNL     1      35.481 -18.616 -21.534  0.00  0.00    +0.058 C 
ATOM     15  C   UNL     1      34.501 -19.373 -20.888  0.00  0.00    +0.015 C 
ATOM     16  C   UNL     1      36.770 -18.551 -21.000  0.00  0.00    +0.015 C 
ATOM     17  C   UNL     1      36.096 -19.995 -19.183  0.00  0.00    +0.053 C 
ATOM     18  C   UNL     1      34.807 -20.062 -19.714  0.00  0.00    +0.006 C 
ATOM     19  C   UNL     1      37.077 -19.240 -19.826  0.00  0.00    +0.006 C 
BRANCH  17  22
ATOM     20  O   UNL     1      35.915 -21.824 -17.711  0.00  0.00    -0.270 OA
ATOM     21  N   UNL     1      37.322 -20.125 -17.082  0.00  0.00    -0.325 N 
ATOM     22  C   UNL     1      36.416 -20.713 -17.961  0.00  0.00    +0.243 C 
ATOM     23  H   UNL     1      37.562 -20.583 -16.244  0.00  0.00    +0.145 HD
ATOM     24  H   UNL     1      37.721 -19.251 -17.298  0.00  0.00    +0.145 HD
ENDBRANCH  17  22
ENDBRANCH   5  14
BRANCH   6  25
ATOM     25  O   UNL     1      34.521 -13.599 -21.025  0.00  0.00    -0.453 OA
BRANCH  25  26
ATOM     26  C   UNL     1      33.384 -13.657 -20.185  0.00  0.00    +0.208 C 
BRANCH  26  27
ATOM     27  C   UNL     1      32.810 -12.248 -20.048  0.00  0.00    +0.044 C 
ATOM     28  C   UNL     1      31.938 -11.899 -21.262  0.00  0.00    +0.004 C 
ATOM     29  C   UNL     1      32.012 -12.111 -18.745  0.00  0.00    +0.004 C 
ATOM     30  C   UNL     1      31.309 -10.513 -21.124  0.00  0.00    +0.000 C 
ATOM     31  C   UNL     1      31.383 -10.726 -18.612  0.00  0.00    +0.000 C 
ATOM     32  C   UNL     1      30.525 -10.378 -19.824  0.00  0.00    +0.000 C 
ENDBRANCH  26  27
ENDBRANCH  25  26
ENDBRANCH   6  25
TORSDOF 5
ENDMDL
MODEL 8
REMARK VINA RESULT:     -10.8      7.766     11.338
REMARK  Name = 447656
REMARK  5 active torsions:
REMARK  status: ('A' for Active; 'I' for Inactive)
REMARK    1  A    between atoms: N_5  and  C_14
REMARK    2  A    between atoms: C_6  and  O_25
REMARK    3  A    between atoms: C_17  and  C_22
REMARK    4  A    between atoms: O_25  and  C_26
REMARK    5  A    between atoms: C_26  and  C_27
REMARK                            x       y       z     vdW  Elec       q    Type
REMARK                         _______ _______ _______ _____ _____    ______ ____
ROOT
ATOM      1  N   UNL     1      34.544 -14.893 -22.567  0.00  0.00    -0.293 NA
ATOM      2  N   UNL     1      33.667 -11.825 -24.394  0.00  0.00    -0.266 NA
ATOM      3  N   UNL     1      34.644 -15.115 -24.995  0.00  0.00    -0.316 NA
ATOM      4  N   UNL     1      34.062 -13.081 -26.192  0.00  0.00    -0.296 N 
ATOM      5  N   UNL     1      35.153 -16.913 -23.586  0.00  0.00    -0.238 N 
ATOM      6  C   UNL     1      34.166 -13.601 -22.658  0.00  0.00    +0.288 C 
ATOM      7  C   UNL     1      34.023 -13.054 -23.916  0.00  0.00    +0.215 C 
ATOM      8  C   UNL     1      34.263 -13.816 -25.052  0.00  0.00    +0.196 C 
ATOM      9  C   UNL     1      34.758 -15.562 -23.725  0.00  0.00    +0.207 C 
ATOM     10  C   UNL     1      33.705 -11.890 -25.761  0.00  0.00    +0.164 C 
ATOM     11  H   UNL     1      33.427 -11.037 -23.854  0.00  0.00    +0.126 HD
ATOM     12  H   UNL     1      34.163 -13.378 -27.126  0.00  0.00    +0.150 HD
ATOM     13  H   UNL     1      35.301 -17.373 -24.443  0.00  0.00    +0.166 HD
ENDROOT
BRANCH   5  14
ATOM     14  C   UNL     1      35.376 -17.727 -22.461  0.00  0.00    +0.058 C 
ATOM     15  C   UNL     1      34.399 -18.636 -22.048  0.00  0.00    +0.015 C 
ATOM     16  C   UNL     1      36.576 -17.630 -21.752  0.00  0.00    +0.015 C 
ATOM     17  C   UNL     1      35.819 -19.345 -20.227  0.00  0.00    +0.053 C 
ATOM     18  C   UNL     1      34.620 -19.444 -20.933  0.00  0.00    +0.006 C 
ATOM     19  C   UNL     1      36.797 -18.438 -20.637  0.00  0.00    +0.006 C 
BRANCH  17  22
ATOM     20  O   UNL     1      36.951 -19.930 -18.246  0.00  0.00    -0.270 OA
ATOM     21  N   UNL     1      35.214 -21.285 -18.885  0.00  0.00    -0.325 N 
ATOM     22  C   UNL     1      36.050 -20.187 -19.065  0.00  0.00    +0.243 C 
ATOM     23  H   UNL     1      35.342 -21.879 -18.109  0.00  0.00    +0.145 HD
ATOM     24  H   UNL     1      34.497 -21.471 -19.533  0.00  0.00    +0.145 HD
ENDBRANCH  17  22
ENDBRANCH   5  14
BRANCH   6  25
ATOM     25  O   UNL     1      33.940 -12.893 -21.502  0.00  0.00    -0.453 OA
BRANCH  25  26
ATOM     26  C   UNL     1      32.857 -13.313 -20.693  0.00  0.00    +0.208 C 
BRANCH  26  27
ATOM     27  C   UNL     1      31.993 -12.094 -20.371  0.00  0.00    +0.044 C 
ATOM     28  C   UNL     1      32.023 -11.791 -18.867  0.00  0.00    +0.004 C 
ATOM     29  C   UNL     1      32.451 -10.876 -21.182  0.00  0.00    +0.004 C 
ATOM     30  C   UNL     1      31.208 -10.545 -18.527  0.00  0.00    +0.000 C 
ATOM     31  C   UNL     1      31.637  -9.631 -20.838  0.00  0.00    +0.000 C 
ATOM     32  C   UNL     1      31.660  -9.338 -19.342  0.00  0.00    +0.000 C 
ENDBRANCH  26  27
ENDBRANCH  25  26
ENDBRANCH   6  25
TORSDOF 5
ENDMDL
MODEL 9
REMARK VINA RESULT:     -10.0      5.894      8.871
REMARK  Name = 447656
REMARK  5 active torsions:
REMARK  status: ('A' for Active; 'I' for Inactive)
REMARK    1  A    between atoms: N_5  and  C_14
REMARK    2  A    between atoms: C_6  and  O_25
REMARK    3  A    between atoms: C_17  and  C_22
REMARK    4  A    between atoms: O_25  and  C_26
REMARK    5  A    between atoms: C_26  and  C_27
REMARK                            x       y       z     vdW  Elec       q    Type
REMARK                         _______ _______ _______ _____ _____    ______ ____
ROOT
ATOM      1  N   UNL     1      35.292 -17.389 -21.237  0.00  0.00    -0.293 NA
ATOM      2  N   UNL     1      34.701 -14.895 -23.874  0.00  0.00    -0.266 NA
ATOM      3  N   UNL     1      34.595 -18.342 -23.372  0.00  0.00    -0.316 NA
ATOM      4  N   UNL     1      34.208 -16.684 -25.108  0.00  0.00    -0.296 N 
ATOM      5  N   UNL     1      35.039 -19.700 -21.520  0.00  0.00    -0.238 N 
ATOM      6  C   UNL     1      35.239 -16.134 -21.731  0.00  0.00    +0.288 C 
ATOM      7  C   UNL     1      34.865 -15.971 -23.049  0.00  0.00    +0.215 C 
ATOM      8  C   UNL     1      34.553 -17.070 -23.838  0.00  0.00    +0.196 C 
ATOM      9  C   UNL     1      34.971 -18.402 -22.076  0.00  0.00    +0.207 C 
ATOM     10  C   UNL     1      34.308 -15.372 -25.096  0.00  0.00    +0.164 C 
ATOM     11  H   UNL     1      34.841 -13.950 -23.634  0.00  0.00    +0.126 HD
ATOM     12  H   UNL     1      33.945 -17.261 -25.862  0.00  0.00    +0.150 HD
ATOM     13  H   UNL     1      34.802 -20.416 -22.152  0.00  0.00    +0.166 HD
ENDROOT
BRANCH   5  14
ATOM     14  C   UNL     1      35.380 -20.169 -20.238  0.00  0.00    +0.058 C 
ATOM     15  C   UNL     1      34.416 -20.786 -19.437  0.00  0.00    +0.015 C 
ATOM     16  C   UNL     1      36.684 -20.019 -19.760  0.00  0.00    +0.015 C 
ATOM     17  C   UNL     1      36.056 -21.100 -17.692  0.00  0.00    +0.053 C 
ATOM     18  C   UNL     1      34.753 -21.251 -18.166  0.00  0.00    +0.006 C 
ATOM     19  C   UNL     1      37.022 -20.484 -18.489  0.00  0.00    +0.006 C 
BRANCH  17  22
ATOM     20  O   UNL     1      35.817 -22.549 -15.851  0.00  0.00    -0.270 OA
ATOM     21  N   UNL     1      37.449 -20.946 -15.699  0.00  0.00    -0.325 N 
ATOM     22  C   UNL     1      36.409 -21.585 -16.368  0.00  0.00    +0.243 C 
ATOM     23  H   UNL     1      37.715 -21.246 -14.800  0.00  0.00    +0.145 HD
ATOM     24  H   UNL     1      37.918 -20.191 -16.124  0.00  0.00    +0.145 HD
ENDBRANCH  17  22
ENDBRANCH   5  14
BRANCH   6  25
ATOM     25  O   UNL     1      35.558 -15.083 -20.906  0.00  0.00    -0.453 OA
BRANCH  25  26
ATOM     26  C   UNL     1      34.592 -14.707 -19.941  0.00  0.00    +0.208 C 
BRANCH  26  27
ATOM     27  C   UNL     1      33.578 -13.779 -20.608  0.00  0.00    +0.044 C 
ATOM     28  C   UNL     1      32.656 -13.141 -19.560  0.00  0.00    +0.004 C 
ATOM     29  C   UNL     1      34.292 -12.701 -21.434  0.00  0.00    +0.004 C 
ATOM     30  C   UNL     1      31.667 -12.167 -20.196  0.00  0.00    +0.000 C 
ATOM     31  C   UNL     1      33.301 -11.727 -22.067  0.00  0.00    +0.000 C 
ATOM     32  C   UNL     1      32.380 -11.103 -21.024  0.00  0.00    +0.000 C 
ENDBRANCH  26  27
ENDBRANCH  25  26
ENDBRANCH   6  25
TORSDOF 5
ENDMDL
