MODEL 1
REMARK VINA RESULT:     -12.2      0.000      0.000
REMARK  Name = 52913524
REMARK  9 active torsions:
REMARK  status: ('A' for Active; 'I' for Inactive)
REMARK    1  A    between atoms: C_1  and  C_10
REMARK    2  A    between atoms: C_4  and  C_24
REMARK    3  A    between atoms: C_5  and  C_22
REMARK    4  A    between atoms: C_8  and  O_13
REMARK    5  A    between atoms: C_9  and  O_15
REMARK    6  A    between atoms: C_11  and  O_17
REMARK    7  A    between atoms: C_12  and  C_19
REMARK    8  A    between atoms: C_19  and  O_20
REMARK    9  A    between atoms: C_24  and  C_27
REMARK                            x       y       z     vdW  Elec       q    Type
REMARK                         _______ _______ _______ _____ _____    ______ ____
ROOT
ATOM      1  C   UNL     1      34.445 -23.498 -14.030  0.00  0.00    +0.007 C 
ATOM      2  C   UNL     1      34.288 -23.328 -15.405  0.00  0.00    -0.006 C 
ATOM      3  C   UNL     1      33.394 -23.196 -13.165  0.00  0.00    -0.002 C 
ATOM      4  C   UNL     1      33.079 -22.854 -15.915  0.00  0.00    -0.022 C 
ATOM      5  C   UNL     1      32.028 -22.551 -15.049  0.00  0.00    -0.026 C 
ATOM      6  C   UNL     1      32.185 -22.722 -13.675  0.00  0.00    -0.005 C 
ENDROOT
BRANCH   1  10
ATOM      7  O   UNL     1      36.454 -22.904 -12.900  0.00  0.00    -0.347 OA
ATOM      8  C   UNL     1      36.613 -24.693 -14.558  0.00  0.00    +0.171 C 
ATOM      9  C   UNL     1      37.996 -25.061 -14.014  0.00  0.00    +0.169 C 
ATOM     10  C   UNL     1      35.759 -24.014 -13.476  0.00  0.00    +0.167 C 
ATOM     11  C   UNL     1      38.639 -23.882 -13.285  0.00  0.00    +0.169 C 
ATOM     12  C   UNL     1      37.673 -23.285 -12.260  0.00  0.00    +0.174 C 
BRANCH   8  13
ATOM     13  O   UNL     1      35.950 -25.882 -14.985  0.00  0.00    -0.379 OA
ATOM     14  H   UNL     1      35.217 -25.650 -15.577  0.00  0.00    +0.211 HD
ENDBRANCH   8  13
BRANCH   9  15
ATOM     15  O   UNL     1      38.850 -25.427 -15.099  0.00  0.00    -0.379 OA
ATOM     16  H   UNL     1      38.639 -26.329 -15.387  0.00  0.00    +0.211 HD
ENDBRANCH   9  15
BRANCH  11  17
ATOM     17  O   UNL     1      39.816 -24.327 -12.616  0.00  0.00    -0.379 OA
ATOM     18  H   UNL     1      40.415 -23.575 -12.482  0.00  0.00    +0.211 HD
ENDBRANCH  11  17
BRANCH  12  19
ATOM     19  C   UNL     1      38.250 -22.037 -11.597  0.00  0.00    +0.169 C 
BRANCH  19  20
ATOM     20  O   UNL     1      37.487 -21.747 -10.442  0.00  0.00    -0.379 OA
ATOM     21  H   UNL     1      37.514 -20.792 -10.268  0.00  0.00    +0.211 HD
ENDBRANCH  19  20
ENDBRANCH  12  19
ENDBRANCH   1  10
BRANCH   5  22
ATOM     22  C   UNL     1      30.725 -22.042 -15.572  0.00  0.00    +0.026 C 
ATOM     23  C   UNL     1      29.550 -22.438 -14.684  0.00  0.00    +0.005 C 
ENDBRANCH   5  22
BRANCH   4  24
ATOM     24  C   UNL     1      32.934 -22.679 -17.391  0.00  0.00    +0.052 C 
BRANCH  24  27
ATOM     25  O   UNL     1      34.183 -19.294 -20.673  0.00  0.00    -0.468 OA
ATOM     26  O   UNL     1      36.867 -19.251 -19.620  0.00  0.00    -0.468 OA
ATOM     27  C   UNL     1      33.974 -21.765 -18.005  0.00  0.00    -0.015 C 
ATOM     28  C   UNL     1      33.623 -20.921 -19.059  0.00  0.00    +0.036 C 
ATOM     29  C   UNL     1      35.283 -21.772 -17.521  0.00  0.00    -0.001 C 
ATOM     30  C   UNL     1      34.584 -20.085 -19.628  0.00  0.00    +0.172 C 
ATOM     31  C   UNL     1      35.887 -20.072 -19.125  0.00  0.00    +0.172 C 
ATOM     32  C   UNL     1      36.241 -20.927 -18.081  0.00  0.00    +0.040 C 
ATOM     33  C   UNL     1      35.297 -18.754 -21.390  0.00  0.00    +0.253 C 
ATOM     34  C   UNL     1      36.324 -18.200 -20.423  0.00  0.00    +0.253 C 
ENDBRANCH  24  27
ENDBRANCH   4  24
TORSDOF 9
ENDMDL
MODEL 2
REMARK VINA RESULT:     -11.6      1.236      2.365
REMARK  Name = 52913524
REMARK  9 active torsions:
REMARK  status: ('A' for Active; 'I' for Inactive)
REMARK    1  A    between atoms: C_1  and  C_10
REMARK    2  A    between atoms: C_4  and  C_24
REMARK    3  A    between atoms: C_5  and  C_22
REMARK    4  A    between atoms: C_8  and  O_13
REMARK    5  A    between atoms: C_9  and  O_15
REMARK    6  A    between atoms: C_11  and  O_17
REMARK    7  A    between atoms: C_12  and  C_19
REMARK    8  A    between atoms: C_19  and  O_20
REMARK    9  A    between atoms: C_24  and  C_27
REMARK                            x       y       z     vdW  Elec       q    Type
REMARK                         _______ _______ _______ _____ _____    ______ ____
ROOT
ATOM      1  C   UNL     1      34.045 -23.024 -14.310  0.00  0.00    +0.007 C 
ATOM      2  C   UNL     1      34.001 -22.870 -15.696  0.00  0.00    -0.006 C 
ATOM      3  C   UNL     1      32.882 -22.881 -13.555  0.00  0.00    -0.002 C 
ATOM      4  C   UNL     1      32.793 -22.572 -16.326  0.00  0.00    -0.022 C 
ATOM      5  C   UNL     1      31.629 -22.428 -15.570  0.00  0.00    -0.026 C 
ATOM      6  C   UNL     1      31.673 -22.582 -14.185  0.00  0.00    -0.005 C 
ENDROOT
BRANCH   1  10
ATOM      7  O   UNL     1      36.005 -24.373 -14.389  0.00  0.00    -0.347 OA
ATOM      8  C   UNL     1      35.153 -23.799 -12.172  0.00  0.00    +0.171 C 
ATOM      9  C   UNL     1      36.471 -24.274 -11.553  0.00  0.00    +0.169 C 
ATOM     10  C   UNL     1      35.359 -23.349 -13.626  0.00  0.00    +0.167 C 
ATOM     11  C   UNL     1      37.193 -25.260 -12.471  0.00  0.00    +0.169 C 
ATOM     12  C   UNL     1      37.303 -24.699 -13.890  0.00  0.00    +0.174 C 
BRANCH   8  13
ATOM     13  O   UNL     1      34.657 -22.695 -11.416  0.00  0.00    -0.379 OA
ATOM     14  H   UNL     1      34.262 -23.018 -10.591  0.00  0.00    +0.211 HD
ENDBRANCH   8  13
BRANCH   9  15
ATOM     15  O   UNL     1      36.203 -24.938 -10.317  0.00  0.00    -0.379 OA
ATOM     16  H   UNL     1      37.010 -24.960  -9.780  0.00  0.00    +0.211 HD
ENDBRANCH   9  15
BRANCH  11  17
ATOM     17  O   UNL     1      38.500 -25.506 -11.961  0.00  0.00    -0.379 OA
ATOM     18  H   UNL     1      38.855 -26.318 -12.359  0.00  0.00    +0.211 HD
ENDBRANCH  11  17
BRANCH  12  19
ATOM     19  C   UNL     1      37.921 -25.711 -14.851  0.00  0.00    +0.169 C 
BRANCH  19  20
ATOM     20  O   UNL     1      36.876 -26.388 -15.525  0.00  0.00    -0.379 OA
ATOM     21  H   UNL     1      37.245 -26.899 -16.263  0.00  0.00    +0.211 HD
ENDBRANCH  19  20
ENDBRANCH  12  19
ENDBRANCH   1  10
BRANCH   5  22
ATOM     22  C   UNL     1      30.324 -22.108 -16.222  0.00  0.00    +0.026 C 
ATOM     23  C   UNL     1      29.165 -22.112 -15.231  0.00  0.00    +0.005 C 
ENDBRANCH   5  22
BRANCH   4  24
ATOM     24  C   UNL     1      32.770 -22.411 -17.811  0.00  0.00    +0.052 C 
BRANCH  24  27
ATOM     25  O   UNL     1      34.295 -18.956 -20.898  0.00  0.00    -0.468 OA
ATOM     26  O   UNL     1      36.936 -19.085 -19.750  0.00  0.00    -0.468 OA
ATOM     27  C   UNL     1      33.873 -21.523 -18.348  0.00  0.00    -0.015 C 
ATOM     28  C   UNL     1      33.600 -20.620 -19.376  0.00  0.00    +0.036 C 
ATOM     29  C   UNL     1      35.161 -21.613 -17.819  0.00  0.00    -0.001 C 
ATOM     30  C   UNL     1      34.619 -19.808 -19.874  0.00  0.00    +0.172 C 
ATOM     31  C   UNL     1      35.902 -19.879 -19.326  0.00  0.00    +0.172 C 
ATOM     32  C   UNL     1      36.177 -20.792 -18.308  0.00  0.00    +0.040 C 
ATOM     33  C   UNL     1      35.458 -18.440 -21.551  0.00  0.00    +0.253 C 
ATOM     34  C   UNL     1      36.474 -17.977 -20.526  0.00  0.00    +0.253 C 
ENDBRANCH  24  27
ENDBRANCH   4  24
TORSDOF 9
ENDMDL
MODEL 3
REMARK VINA RESULT:     -11.3      2.532      7.060
REMARK  Name = 52913524
REMARK  9 active torsions:
REMARK  status: ('A' for Active; 'I' for Inactive)
REMARK    1  A    between atoms: C_1  and  C_10
REMARK    2  A    between atoms: C_4  and  C_24
REMARK    3  A    between atoms: C_5  and  C_22
REMARK    4  A    between atoms: C_8  and  O_13
REMARK    5  A    between atoms: C_9  and  O_15
REMARK    6  A    between atoms: C_11  and  O_17
REMARK    7  A    between atoms: C_12  and  C_19
REMARK    8  A    between atoms: C_19  and  O_20
REMARK    9  A    between atoms: C_24  and  C_27
REMARK                            x       y       z     vdW  Elec       q    Type
REMARK                         _______ _______ _______ _____ _____    ______ ____
ROOT
ATOM      1  C   UNL     1      33.775 -22.437 -16.768  0.00  0.00    +0.007 C 
ATOM      2  C   UNL     1      35.058 -22.208 -16.270  0.00  0.00    -0.006 C 
ATOM      3  C   UNL     1      33.410 -21.931 -18.015  0.00  0.00    -0.002 C 
ATOM      4  C   UNL     1      35.975 -21.470 -17.020  0.00  0.00    -0.022 C 
ATOM      5  C   UNL     1      35.609 -20.963 -18.267  0.00  0.00    -0.026 C 
ATOM      6  C   UNL     1      34.327 -21.194 -18.765  0.00  0.00    -0.005 C 
ENDROOT
BRANCH   1  10
ATOM      7  O   UNL     1      31.574 -22.473 -15.864  0.00  0.00    -0.347 OA
ATOM      8  C   UNL     1      33.319 -23.577 -14.556  0.00  0.00    +0.171 C 
ATOM      9  C   UNL     1      32.240 -24.245 -13.698  0.00  0.00    +0.169 C 
ATOM     10  C   UNL     1      32.779 -23.240 -15.954  0.00  0.00    +0.167 C 
ATOM     11  C   UNL     1      30.928 -23.463 -13.747  0.00  0.00    +0.169 C 
ATOM     12  C   UNL     1      30.523 -23.170 -15.193  0.00  0.00    +0.174 C 
BRANCH   8  13
ATOM     13  O   UNL     1      34.422 -24.472 -14.694  0.00  0.00    -0.379 OA
ATOM     14  H   UNL     1      34.485 -24.768 -15.616  0.00  0.00    +0.211 HD
ENDBRANCH   8  13
BRANCH   9  15
ATOM     15  O   UNL     1      32.675 -24.291 -12.338  0.00  0.00    -0.379 OA
ATOM     16  H   UNL     1      31.941 -24.579 -11.774  0.00  0.00    +0.211 HD
ENDBRANCH   9  15
BRANCH  11  17
ATOM     17  O   UNL     1      29.901 -24.226 -13.118  0.00  0.00    -0.379 OA
ATOM     18  H   UNL     1      30.257 -25.089 -12.852  0.00  0.00    +0.211 HD
ENDBRANCH  11  17
BRANCH  12  19
ATOM     19  C   UNL     1      29.275 -22.295 -15.266  0.00  0.00    +0.169 C 
BRANCH  19  20
ATOM     20  O   UNL     1      29.165 -21.775 -16.577  0.00  0.00    -0.379 OA
ATOM     21  H   UNL     1      28.865 -20.854 -16.536  0.00  0.00    +0.211 HD
ENDBRANCH  19  20
ENDBRANCH  12  19
ENDBRANCH   1  10
BRANCH   5  22
ATOM     22  C   UNL     1      36.573 -20.171 -19.087  0.00  0.00    +0.026 C 
ATOM     23  C   UNL     1      35.877 -19.359 -20.175  0.00  0.00    +0.005 C 
ENDBRANCH   5  22
BRANCH   4  24
ATOM     24  C   UNL     1      37.342 -21.236 -16.466  0.00  0.00    +0.052 C 
BRANCH  24  27
ATOM     25  O   UNL     1      36.492 -22.761 -11.912  0.00  0.00    -0.468 OA
ATOM     26  O   UNL     1      38.671 -24.637 -12.124  0.00  0.00    -0.468 OA
ATOM     27  C   UNL     1      37.689 -22.129 -15.293  0.00  0.00    -0.015 C 
ATOM     28  C   UNL     1      36.933 -22.065 -14.123  0.00  0.00    +0.036 C 
ATOM     29  C   UNL     1      38.768 -23.010 -15.382  0.00  0.00    -0.001 C 
ATOM     30  C   UNL     1      37.259 -22.883 -13.041  0.00  0.00    +0.172 C 
ATOM     31  C   UNL     1      38.321 -23.784 -13.140  0.00  0.00    +0.172 C 
ATOM     32  C   UNL     1      39.086 -23.837 -14.305  0.00  0.00    +0.040 C 
ATOM     33  C   UNL     1      37.112 -23.371 -10.776  0.00  0.00    +0.253 C 
ATOM     34  C   UNL     1      37.638 -24.745 -11.141  0.00  0.00    +0.253 C 
ENDBRANCH  24  27
ENDBRANCH   4  24
TORSDOF 9
ENDMDL
MODEL 4
REMARK VINA RESULT:     -10.8      2.503      5.719
REMARK  Name = 52913524
REMARK  9 active torsions:
REMARK  status: ('A' for Active; 'I' for Inactive)
REMARK    1  A    between atoms: C_1  and  C_10
REMARK    2  A    between atoms: C_4  and  C_24
REMARK    3  A    between atoms: C_5  and  C_22
REMARK    4  A    between atoms: C_8  and  O_13
REMARK    5  A    between atoms: C_9  and  O_15
REMARK    6  A    between atoms: C_11  and  O_17
REMARK    7  A    between atoms: C_12  and  C_19
REMARK    8  A    between atoms: C_19  and  O_20
REMARK    9  A    between atoms: C_24  and  C_27
REMARK                            x       y       z     vdW  Elec       q    Type
REMARK                         _______ _______ _______ _____ _____    ______ ____
ROOT
ATOM      1  C   UNL     1      36.669 -22.099 -15.591  0.00  0.00    +0.007 C 
ATOM      2  C   UNL     1      35.377 -22.298 -16.078  0.00  0.00    -0.006 C 
ATOM      3  C   UNL     1      37.589 -21.362 -16.335  0.00  0.00    -0.002 C 
ATOM      4  C   UNL     1      35.006 -21.760 -17.311  0.00  0.00    -0.022 C 
ATOM      5  C   UNL     1      35.928 -21.023 -18.055  0.00  0.00    -0.026 C 
ATOM      6  C   UNL     1      37.219 -20.823 -17.568  0.00  0.00    -0.005 C 
ENDROOT
BRANCH   1  10
ATOM      7  O   UNL     1      38.000 -23.743 -14.500  0.00  0.00    -0.347 OA
ATOM      8  C   UNL     1      35.858 -23.195 -13.459  0.00  0.00    +0.171 C 
ATOM      9  C   UNL     1      36.301 -23.923 -12.187  0.00  0.00    +0.169 C 
ATOM     10  C   UNL     1      37.071 -22.683 -14.251  0.00  0.00    +0.167 C 
ATOM     11  C   UNL     1      37.396 -24.946 -12.484  0.00  0.00    +0.169 C 
ATOM     12  C   UNL     1      38.524 -24.313 -13.300  0.00  0.00    +0.174 C 
BRANCH   8  13
ATOM     13  O   UNL     1      35.044 -22.080 -13.097  0.00  0.00    -0.379 OA
ATOM     14  H   UNL     1      35.370 -21.696 -12.269  0.00  0.00    +0.211 HD
ENDBRANCH   8  13
BRANCH   9  15
ATOM     15  O   UNL     1      35.187 -24.619 -11.626  0.00  0.00    -0.379 OA
ATOM     16  H   UNL     1      34.482 -23.986 -11.416  0.00  0.00    +0.211 HD
ENDBRANCH   9  15
BRANCH  11  17
ATOM     17  O   UNL     1      37.925 -25.440 -11.256  0.00  0.00    -0.379 OA
ATOM     18  H   UNL     1      37.200 -25.582 -10.626  0.00  0.00    +0.211 HD
ENDBRANCH  11  17
BRANCH  12  19
ATOM     19  C   UNL     1      39.576 -25.342 -13.705  0.00  0.00    +0.169 C 
BRANCH  19  20
ATOM     20  O   UNL     1      38.936 -26.590 -13.894  0.00  0.00    -0.379 OA
ATOM     21  H   UNL     1      39.273 -27.007 -14.703  0.00  0.00    +0.211 HD
ENDBRANCH  19  20
ENDBRANCH  12  19
ENDBRANCH   1  10
BRANCH   5  22
ATOM     22  C   UNL     1      35.554 -20.438 -19.378  0.00  0.00    +0.026 C 
ATOM     23  C   UNL     1      36.596 -19.447 -19.888  0.00  0.00    +0.005 C 
ENDBRANCH   5  22
BRANCH   4  24
ATOM     24  C   UNL     1      33.618 -21.986 -17.813  0.00  0.00    +0.052 C 
BRANCH  24  27
ATOM     25  O   UNL     1      32.587 -24.085 -13.532  0.00  0.00    -0.468 OA
ATOM     26  O   UNL     1      29.846 -23.219 -13.758  0.00  0.00    -0.468 OA
ATOM     27  C   UNL     1      32.622 -22.333 -16.725  0.00  0.00    -0.015 C 
ATOM     28  C   UNL     1      33.040 -23.044 -15.600  0.00  0.00    +0.036 C 
ATOM     29  C   UNL     1      31.287 -21.948 -16.853  0.00  0.00    -0.001 C 
ATOM     30  C   UNL     1      32.120 -23.368 -14.604  0.00  0.00    +0.172 C 
ATOM     31  C   UNL     1      30.790 -22.959 -14.718  0.00  0.00    +0.172 C 
ATOM     32  C   UNL     1      30.370 -22.261 -15.851  0.00  0.00    +0.040 C 
ATOM     33  C   UNL     1      31.521 -24.652 -12.765  0.00  0.00    +0.253 C 
ATOM     34  C   UNL     1      30.441 -23.616 -12.521  0.00  0.00    +0.253 C 
ENDBRANCH  24  27
ENDBRANCH   4  24
TORSDOF 9
ENDMDL
MODEL 5
REMARK VINA RESULT:     -10.8      2.941      7.130
REMARK  Name = 52913524
REMARK  9 active torsions:
REMARK  status: ('A' for Active; 'I' for Inactive)
REMARK    1  A    between atoms: C_1  and  C_10
REMARK    2  A    between atoms: C_4  and  C_24
REMARK    3  A    between atoms: C_5  and  C_22
REMARK    4  A    between atoms: C_8  and  O_13
REMARK    5  A    between atoms: C_9  and  O_15
REMARK    6  A    between atoms: C_11  and  O_17
REMARK    7  A    between atoms: C_12  and  C_19
REMARK    8  A    between atoms: C_19  and  O_20
REMARK    9  A    between atoms: C_24  and  C_27
REMARK                            x       y       z     vdW  Elec       q    Type
REMARK                         _______ _______ _______ _____ _____    ______ ____
ROOT
ATOM      1  C   UNL     1      34.827 -22.363 -16.132  0.00  0.00    +0.007 C 
ATOM      2  C   UNL     1      33.672 -22.646 -15.402  0.00  0.00    -0.006 C 
ATOM      3  C   UNL     1      36.077 -22.446 -15.518  0.00  0.00    -0.002 C 
ATOM      4  C   UNL     1      33.767 -23.011 -14.059  0.00  0.00    -0.022 C 
ATOM      5  C   UNL     1      35.018 -23.093 -13.446  0.00  0.00    -0.026 C 
ATOM      6  C   UNL     1      36.172 -22.811 -14.175  0.00  0.00    -0.005 C 
ENDROOT
BRANCH   1  10
ATOM      7  O   UNL     1      35.856 -21.149 -17.902  0.00  0.00    -0.347 OA
ATOM      8  C   UNL     1      33.413 -21.225 -17.894  0.00  0.00    +0.171 C 
ATOM      9  C   UNL     1      33.402 -20.696 -19.331  0.00  0.00    +0.169 C 
ATOM     10  C   UNL     1      34.723 -21.968 -17.592  0.00  0.00    +0.167 C 
ATOM     11  C   UNL     1      34.694 -19.950 -19.659  0.00  0.00    +0.169 C 
ATOM     12  C   UNL     1      35.917 -20.789 -19.282  0.00  0.00    +0.174 C 
BRANCH   8  13
ATOM     13  O   UNL     1      32.324 -22.131 -17.724  0.00  0.00    -0.379 OA
ATOM     14  H   UNL     1      31.486 -21.659 -17.856  0.00  0.00    +0.211 HD
ENDBRANCH   8  13
BRANCH   9  15
ATOM     15  O   UNL     1      32.313 -19.785 -19.494  0.00  0.00    -0.379 OA
ATOM     16  H   UNL     1      32.593 -18.896 -19.228  0.00  0.00    +0.211 HD
ENDBRANCH   9  15
BRANCH  11  17
ATOM     17  O   UNL     1      34.732 -19.666 -21.055  0.00  0.00    -0.379 OA
ATOM     18  H   UNL     1      34.678 -18.706 -21.191  0.00  0.00    +0.211 HD
ENDBRANCH  11  17
BRANCH  12  19
ATOM     19  C   UNL     1      37.218 -20.021 -19.497  0.00  0.00    +0.169 C 
BRANCH  19  20
ATOM     20  O   UNL     1      36.915 -18.642 -19.599  0.00  0.00    -0.379 OA
ATOM     21  H   UNL     1      37.739 -18.135 -19.674  0.00  0.00    +0.211 HD
ENDBRANCH  19  20
ENDBRANCH  12  19
ENDBRANCH   1  10
BRANCH   5  22
ATOM     22  C   UNL     1      35.145 -23.481 -12.010  0.00  0.00    +0.026 C 
ATOM     23  C   UNL     1      36.427 -22.950 -11.378  0.00  0.00    +0.005 C 
ENDBRANCH   5  22
BRANCH   4  24
ATOM     24  C   UNL     1      32.517 -23.308 -13.299  0.00  0.00    +0.052 C 
BRANCH  24  27
ATOM     25  O   UNL     1      28.489 -21.264 -15.138  0.00  0.00    -0.468 OA
ATOM     26  O   UNL     1      27.914 -23.685 -16.593  0.00  0.00    -0.468 OA
ATOM     27  C   UNL     1      31.278 -23.395 -14.165  0.00  0.00    -0.015 C 
ATOM     28  C   UNL     1      30.434 -22.291 -14.284  0.00  0.00    +0.036 C 
ATOM     29  C   UNL     1      30.979 -24.580 -14.839  0.00  0.00    -0.001 C 
ATOM     30  C   UNL     1      29.289 -22.375 -15.077  0.00  0.00    +0.172 C 
ATOM     31  C   UNL     1      29.005 -23.551 -15.773  0.00  0.00    +0.172 C 
ATOM     32  C   UNL     1      29.842 -24.660 -15.642  0.00  0.00    +0.040 C 
ATOM     33  C   UNL     1      27.199 -21.565 -15.677  0.00  0.00    +0.253 C 
ATOM     34  C   UNL     1      27.337 -22.419 -16.921  0.00  0.00    +0.253 C 
ENDBRANCH  24  27
ENDBRANCH   4  24
TORSDOF 9
ENDMDL
MODEL 6
REMARK VINA RESULT:     -10.7      2.415      5.448
REMARK  Name = 52913524
REMARK  9 active torsions:
REMARK  status: ('A' for Active; 'I' for Inactive)
REMARK    1  A    between atoms: C_1  and  C_10
REMARK    2  A    between atoms: C_4  and  C_24
REMARK    3  A    between atoms: C_5  and  C_22
REMARK    4  A    between atoms: C_8  and  O_13
REMARK    5  A    between atoms: C_9  and  O_15
REMARK    6  A    between atoms: C_11  and  O_17
REMARK    7  A    between atoms: C_12  and  C_19
REMARK    8  A    between atoms: C_19  and  O_20
REMARK    9  A    between atoms: C_24  and  C_27
REMARK                            x       y       z     vdW  Elec       q    Type
REMARK                         _______ _______ _______ _____ _____    ______ ____
ROOT
ATOM      1  C   UNL     1      36.763 -22.079 -15.454  0.00  0.00    +0.007 C 
ATOM      2  C   UNL     1      35.524 -22.361 -16.030  0.00  0.00    -0.006 C 
ATOM      3  C   UNL     1      37.666 -21.245 -16.112  0.00  0.00    -0.002 C 
ATOM      4  C   UNL     1      35.189 -21.808 -17.266  0.00  0.00    -0.022 C 
ATOM      5  C   UNL     1      36.093 -20.973 -17.925  0.00  0.00    -0.026 C 
ATOM      6  C   UNL     1      37.331 -20.691 -17.348  0.00  0.00    -0.005 C 
ENDROOT
BRANCH   1  10
ATOM      7  O   UNL     1      38.060 -23.738 -14.345  0.00  0.00    -0.347 OA
ATOM      8  C   UNL     1      35.891 -23.198 -13.358  0.00  0.00    +0.171 C 
ATOM      9  C   UNL     1      36.296 -23.941 -12.082  0.00  0.00    +0.169 C 
ATOM     10  C   UNL     1      37.126 -22.680 -14.110  0.00  0.00    +0.167 C 
ATOM     11  C   UNL     1      37.398 -24.963 -12.361  0.00  0.00    +0.169 C 
ATOM     12  C   UNL     1      38.550 -24.324 -13.137  0.00  0.00    +0.174 C 
BRANCH   8  13
ATOM     13  O   UNL     1      35.069 -22.085 -13.006  0.00  0.00    -0.379 OA
ATOM     14  H   UNL     1      34.337 -22.011 -13.638  0.00  0.00    +0.211 HD
ENDBRANCH   8  13
BRANCH   9  15
ATOM     15  O   UNL     1      35.166 -24.642 -11.561  0.00  0.00    -0.379 OA
ATOM     16  H   UNL     1      35.469 -25.388 -11.020  0.00  0.00    +0.211 HD
ENDBRANCH   9  15
BRANCH  11  17
ATOM     17  O   UNL     1      37.891 -25.473 -11.124  0.00  0.00    -0.379 OA
ATOM     18  H   UNL     1      38.119 -24.733 -10.539  0.00  0.00    +0.211 HD
ENDBRANCH  11  17
BRANCH  12  19
ATOM     19  C   UNL     1      39.610 -25.350 -13.524  0.00  0.00    +0.169 C 
BRANCH  19  20
ATOM     20  O   UNL     1      38.963 -26.566 -13.848  0.00  0.00    -0.379 OA
ATOM     21  H   UNL     1      39.561 -27.120 -14.376  0.00  0.00    +0.211 HD
ENDBRANCH  19  20
ENDBRANCH  12  19
ENDBRANCH   1  10
BRANCH   5  22
ATOM     22  C   UNL     1      35.757 -20.370 -19.249  0.00  0.00    +0.026 C 
ATOM     23  C   UNL     1      36.839 -19.415 -19.742  0.00  0.00    +0.005 C 
ENDBRANCH   5  22
BRANCH   4  24
ATOM     24  C   UNL     1      33.858 -22.124 -17.865  0.00  0.00    +0.052 C 
BRANCH  24  27
ATOM     25  O   UNL     1      29.219 -21.782 -16.398  0.00  0.00    -0.468 OA
ATOM     26  O   UNL     1      29.855 -23.270 -14.012  0.00  0.00    -0.468 OA
ATOM     27  C   UNL     1      32.779 -22.412 -16.842  0.00  0.00    -0.015 C 
ATOM     28  C   UNL     1      31.471 -21.984 -17.072  0.00  0.00    +0.036 C 
ATOM     29  C   UNL     1      33.095 -23.098 -15.669  0.00  0.00    -0.001 C 
ATOM     30  C   UNL     1      30.480 -22.244 -16.125  0.00  0.00    +0.172 C 
ATOM     31  C   UNL     1      30.790 -22.956 -14.964  0.00  0.00    +0.172 C 
ATOM     32  C   UNL     1      32.102 -23.370 -14.728  0.00  0.00    +0.040 C 
ATOM     33  C   UNL     1      28.384 -21.793 -15.237  0.00  0.00    +0.253 C 
ATOM     34  C   UNL     1      28.522 -23.112 -14.504  0.00  0.00    +0.253 C 
ENDBRANCH  24  27
ENDBRANCH   4  24
TORSDOF 9
ENDMDL
MODEL 7
REMARK VINA RESULT:     -10.5      3.301      7.495
REMARK  Name = 52913524
REMARK  9 active torsions:
REMARK  status: ('A' for Active; 'I' for Inactive)
REMARK    1  A    between atoms: C_1  and  C_10
REMARK    2  A    between atoms: C_4  and  C_24
REMARK    3  A    between atoms: C_5  and  C_22
REMARK    4  A    between atoms: C_8  and  O_13
REMARK    5  A    between atoms: C_9  and  O_15
REMARK    6  A    between atoms: C_11  and  O_17
REMARK    7  A    between atoms: C_12  and  C_19
REMARK    8  A    between atoms: C_19  and  O_20
REMARK    9  A    between atoms: C_24  and  C_27
REMARK                            x       y       z     vdW  Elec       q    Type
REMARK                         _______ _______ _______ _____ _____    ______ ____
ROOT
ATOM      1  C   UNL     1      35.646 -21.531 -17.302  0.00  0.00    +0.007 C 
ATOM      2  C   UNL     1      34.731 -22.352 -16.643  0.00  0.00    -0.006 C 
ATOM      3  C   UNL     1      36.829 -21.153 -16.666  0.00  0.00    -0.002 C 
ATOM      4  C   UNL     1      34.998 -22.793 -15.347  0.00  0.00    -0.022 C 
ATOM      5  C   UNL     1      36.180 -22.414 -14.711  0.00  0.00    -0.026 C 
ATOM      6  C   UNL     1      37.095 -21.594 -15.370  0.00  0.00    -0.005 C 
ENDROOT
BRANCH   1  10
ATOM      7  O   UNL     1      36.164 -19.895 -18.952  0.00  0.00    -0.347 OA
ATOM      8  C   UNL     1      33.868 -20.732 -18.915  0.00  0.00    +0.171 C 
ATOM      9  C   UNL     1      33.626 -20.101 -20.289  0.00  0.00    +0.169 C 
ATOM     10  C   UNL     1      35.357 -21.052 -18.712  0.00  0.00    +0.167 C 
ATOM     11  C   UNL     1      34.607 -18.960 -20.557  0.00  0.00    +0.169 C 
ATOM     12  C   UNL     1      36.045 -19.406 -20.288  0.00  0.00    +0.174 C 
BRANCH   8  13
ATOM     13  O   UNL     1      33.122 -21.945 -18.824  0.00  0.00    -0.379 OA
ATOM     14  H   UNL     1      32.604 -22.069 -19.634  0.00  0.00    +0.211 HD
ENDBRANCH   8  13
BRANCH   9  15
ATOM     15  O   UNL     1      32.302 -19.566 -20.339  0.00  0.00    -0.379 OA
ATOM     16  H   UNL     1      32.142 -19.025 -19.550  0.00  0.00    +0.211 HD
ENDBRANCH   9  15
BRANCH  11  17
ATOM     17  O   UNL     1      34.489 -18.548 -21.917  0.00  0.00    -0.379 OA
ATOM     18  H   UNL     1      33.605 -18.774 -22.248  0.00  0.00    +0.211 HD
ENDBRANCH  11  17
BRANCH  12  19
ATOM     19  C   UNL     1      37.033 -18.252 -20.442  0.00  0.00    +0.169 C 
BRANCH  19  20
ATOM     20  O   UNL     1      37.109 -17.904 -21.811  0.00  0.00    -0.379 OA
ATOM     21  H   UNL     1      37.828 -18.400 -22.232  0.00  0.00    +0.211 HD
ENDBRANCH  19  20
ENDBRANCH  12  19
ENDBRANCH   1  10
BRANCH   5  22
ATOM     22  C   UNL     1      36.487 -22.873 -13.323  0.00  0.00    +0.026 C 
ATOM     23  C   UNL     1      37.575 -23.942 -13.294  0.00  0.00    +0.005 C 
ENDBRANCH   5  22
BRANCH   4  24
ATOM     24  C   UNL     1      34.003 -23.670 -14.660  0.00  0.00    +0.052 C 
BRANCH  24  27
ATOM     25  O   UNL     1      29.568 -23.050 -16.594  0.00  0.00    -0.468 OA
ATOM     26  O   UNL     1      28.789 -21.459 -14.319  0.00  0.00    -0.468 OA
ATOM     27  C   UNL     1      32.610 -23.079 -14.591  0.00  0.00    -0.015 C 
ATOM     28  C   UNL     1      31.695 -23.332 -15.613  0.00  0.00    +0.036 C 
ATOM     29  C   UNL     1      32.245 -22.277 -13.509  0.00  0.00    -0.001 C 
ATOM     30  C   UNL     1      30.415 -22.781 -15.550  0.00  0.00    +0.172 C 
ATOM     31  C   UNL     1      30.041 -22.002 -14.454  0.00  0.00    +0.172 C 
ATOM     32  C   UNL     1      30.961 -21.736 -13.440  0.00  0.00    +0.040 C 
ATOM     33  C   UNL     1      28.437 -22.174 -16.602  0.00  0.00    +0.253 C 
ATOM     34  C   UNL     1      27.848 -22.065 -15.209  0.00  0.00    +0.253 C 
ENDBRANCH  24  27
ENDBRANCH   4  24
TORSDOF 9
ENDMDL
MODEL 8
REMARK VINA RESULT:     -10.1      2.398      5.121
REMARK  Name = 52913524
REMARK  9 active torsions:
REMARK  status: ('A' for Active; 'I' for Inactive)
REMARK    1  A    between atoms: C_1  and  C_10
REMARK    2  A    between atoms: C_4  and  C_24
REMARK    3  A    between atoms: C_5  and  C_22
REMARK    4  A    between atoms: C_8  and  O_13
REMARK    5  A    between atoms: C_9  and  O_15
REMARK    6  A    between atoms: C_11  and  O_17
REMARK    7  A    between atoms: C_12  and  C_19
REMARK    8  A    between atoms: C_19  and  O_20
REMARK    9  A    between atoms: C_24  and  C_27
REMARK                            x       y       z     vdW  Elec       q    Type
REMARK                         _______ _______ _______ _____ _____    ______ ____
ROOT
ATOM      1  C   UNL     1      36.319 -22.849 -15.315  0.00  0.00    +0.007 C 
ATOM      2  C   UNL     1      35.081 -22.765 -15.953  0.00  0.00    -0.006 C 
ATOM      3  C   UNL     1      37.391 -22.079 -15.767  0.00  0.00    -0.002 C 
ATOM      4  C   UNL     1      34.916 -21.912 -17.045  0.00  0.00    -0.022 C 
ATOM      5  C   UNL     1      35.989 -21.142 -17.497  0.00  0.00    -0.026 C 
ATOM      6  C   UNL     1      37.225 -21.226 -16.858  0.00  0.00    -0.005 C 
ENDROOT
BRANCH   1  10
ATOM      7  O   UNL     1      36.616 -22.963 -12.957  0.00  0.00    -0.347 OA
ATOM      8  C   UNL     1      37.726 -24.685 -14.290  0.00  0.00    +0.171 C 
ATOM      9  C   UNL     1      37.979 -25.495 -13.015  0.00  0.00    +0.169 C 
ATOM     10  C   UNL     1      36.498 -23.776 -14.129  0.00  0.00    +0.167 C 
ATOM     11  C   UNL     1      37.955 -24.603 -11.775  0.00  0.00    +0.169 C 
ATOM     12  C   UNL     1      36.697 -23.732 -11.756  0.00  0.00    +0.174 C 
BRANCH   8  13
ATOM     13  O   UNL     1      37.491 -25.584 -15.372  0.00  0.00    -0.379 OA
ATOM     14  H   UNL     1      36.537 -25.735 -15.467  0.00  0.00    +0.211 HD
ENDBRANCH   8  13
BRANCH   9  15
ATOM     15  O   UNL     1      39.266 -26.111 -13.091  0.00  0.00    -0.379 OA
ATOM     16  H   UNL     1      39.953 -25.426 -13.084  0.00  0.00    +0.211 HD
ENDBRANCH   9  15
BRANCH  11  17
ATOM     17  O   UNL     1      37.979 -25.419 -10.607  0.00  0.00    -0.379 OA
ATOM     18  H   UNL     1      37.215 -26.018 -10.615  0.00  0.00    +0.211 HD
ENDBRANCH  11  17
BRANCH  12  19
ATOM     19  C   UNL     1      36.705 -22.753 -10.586  0.00  0.00    +0.169 C 
BRANCH  19  20
ATOM     20  O   UNL     1      36.490 -23.479  -9.390  0.00  0.00    -0.379 OA
ATOM     21  H   UNL     1      35.804 -23.039  -8.863  0.00  0.00    +0.211 HD
ENDBRANCH  19  20
ENDBRANCH  12  19
ENDBRANCH   1  10
BRANCH   5  22
ATOM     22  C   UNL     1      35.836 -20.222 -18.663  0.00  0.00    +0.026 C 
ATOM     23  C   UNL     1      36.852 -20.510 -19.764  0.00  0.00    +0.005 C 
ENDBRANCH   5  22
BRANCH   4  24
ATOM     24  C   UNL     1      33.583 -21.839 -17.713  0.00  0.00    +0.052 C 
BRANCH  24  27
ATOM     25  O   UNL     1      28.872 -21.548 -16.481  0.00  0.00    -0.468 OA
ATOM     26  O   UNL     1      29.296 -23.471 -14.375  0.00  0.00    -0.468 OA
ATOM     27  C   UNL     1      32.429 -22.256 -16.824  0.00  0.00    -0.015 C 
ATOM     28  C   UNL     1      31.155 -21.732 -17.048  0.00  0.00    +0.036 C 
ATOM     29  C   UNL     1      32.641 -23.157 -15.780  0.00  0.00    -0.001 C 
ATOM     30  C   UNL     1      30.095 -22.112 -16.224  0.00  0.00    +0.172 C 
ATOM     31  C   UNL     1      30.303 -23.035 -15.197  0.00  0.00    +0.172 C 
ATOM     32  C   UNL     1      31.579 -23.547 -14.965  0.00  0.00    +0.040 C 
ATOM     33  C   UNL     1      27.963 -21.729 -15.391  0.00  0.00    +0.253 C 
ATOM     34  C   UNL     1      28.004 -23.164 -14.906  0.00  0.00    +0.253 C 
ENDBRANCH  24  27
ENDBRANCH   4  24
TORSDOF 9
ENDMDL
MODEL 9
REMARK VINA RESULT:     -10.0      1.447      6.415
REMARK  Name = 52913524
REMARK  9 active torsions:
REMARK  status: ('A' for Active; 'I' for Inactive)
REMARK    1  A    between atoms: C_1  and  C_10
REMARK    2  A    between atoms: C_4  and  C_24
REMARK    3  A    between atoms: C_5  and  C_22
REMARK    4  A    between atoms: C_8  and  O_13
REMARK    5  A    between atoms: C_9  and  O_15
REMARK    6  A    between atoms: C_11  and  O_17
REMARK    7  A    between atoms: C_12  and  C_19
REMARK    8  A    between atoms: C_19  and  O_20
REMARK    9  A    between atoms: C_24  and  C_27
REMARK                            x       y       z     vdW  Elec       q    Type
REMARK                         _______ _______ _______ _____ _____    ______ ____
ROOT
ATOM      1  C   UNL     1      33.361 -22.365 -16.572  0.00  0.00    +0.007 C 
ATOM      2  C   UNL     1      33.779 -22.914 -15.360  0.00  0.00    -0.006 C 
ATOM      3  C   UNL     1      32.003 -22.155 -16.812  0.00  0.00    -0.002 C 
ATOM      4  C   UNL     1      32.838 -23.253 -14.387  0.00  0.00    -0.022 C 
ATOM      5  C   UNL     1      31.479 -23.043 -14.628  0.00  0.00    -0.026 C 
ATOM      6  C   UNL     1      31.062 -22.494 -15.840  0.00  0.00    -0.005 C 
ENDROOT
BRANCH   1  10
ATOM      7  O   UNL     1      35.543 -21.495 -16.955  0.00  0.00    -0.347 OA
ATOM      8  C   UNL     1      33.837 -20.957 -18.620  0.00  0.00    +0.171 C 
ATOM      9  C   UNL     1      34.934 -20.481 -19.577  0.00  0.00    +0.169 C 
ATOM     10  C   UNL     1      34.384 -21.996 -17.629  0.00  0.00    +0.167 C 
ATOM     11  C   UNL     1      36.202 -20.091 -18.818  0.00  0.00    +0.169 C 
ATOM     12  C   UNL     1      36.618 -21.199 -17.848  0.00  0.00    +0.174 C 
BRANCH   8  13
ATOM     13  O   UNL     1      32.788 -21.557 -19.379  0.00  0.00    -0.379 OA
ATOM     14  H   UNL     1      32.588 -22.435 -19.018  0.00  0.00    +0.211 HD
ENDBRANCH   8  13
BRANCH   9  15
ATOM     15  O   UNL     1      34.476 -19.332 -20.291  0.00  0.00    -0.379 OA
ATOM     16  H   UNL     1      34.394 -19.548 -21.233  0.00  0.00    +0.211 HD
ENDBRANCH   9  15
BRANCH  11  17
ATOM     17  O   UNL     1      37.257 -19.863 -19.750  0.00  0.00    -0.379 OA
ATOM     18  H   UNL     1      37.186 -20.499 -20.479  0.00  0.00    +0.211 HD
ENDBRANCH  11  17
BRANCH  12  19
ATOM     19  C   UNL     1      37.817 -20.787 -16.999  0.00  0.00    +0.169 C 
BRANCH  19  20
ATOM     20  O   UNL     1      37.818 -19.377 -16.875  0.00  0.00    -0.379 OA
ATOM     21  H   UNL     1      36.976 -19.023 -17.203  0.00  0.00    +0.211 HD
ENDBRANCH  19  20
ENDBRANCH  12  19
ENDBRANCH   1  10
BRANCH   5  22
ATOM     22  C   UNL     1      30.454 -23.399 -13.602  0.00  0.00    +0.026 C 
ATOM     23  C   UNL     1      29.470 -24.449 -14.108  0.00  0.00    +0.005 C 
ENDBRANCH   5  22
BRANCH   4  24
ATOM     24  C   UNL     1      33.308 -23.839 -13.097  0.00  0.00    +0.052 C 
BRANCH  24  27
ATOM     25  O   UNL     1      37.690 -25.507 -14.441  0.00  0.00    -0.468 OA
ATOM     26  O   UNL     1      38.949 -23.799 -12.489  0.00  0.00    -0.468 OA
ATOM     27  C   UNL     1      34.815 -23.849 -12.941  0.00  0.00    -0.015 C 
ATOM     28  C   UNL     1      35.594 -24.661 -13.766  0.00  0.00    +0.036 C 
ATOM     29  C   UNL     1      35.421 -23.052 -11.970  0.00  0.00    -0.001 C 
ATOM     30  C   UNL     1      36.981 -24.674 -13.616  0.00  0.00    +0.172 C 
ATOM     31  C   UNL     1      37.589 -23.855 -12.662  0.00  0.00    +0.172 C 
ATOM     32  C   UNL     1      36.809 -23.054 -11.828  0.00  0.00    +0.040 C 
ATOM     33  C   UNL     1      39.030 -25.701 -13.979  0.00  0.00    +0.253 C 
ATOM     34  C   UNL     1      39.650 -24.373 -13.595  0.00  0.00    +0.253 C 
ENDBRANCH  24  27
ENDBRANCH   4  24
TORSDOF 9
ENDMDL
