MODEL 1
REMARK VINA RESULT:     -12.2      0.000      0.000
REMARK  Name = 447994
REMARK  10 active torsions:
REMARK  status: ('A' for Active; 'I' for Inactive)
REMARK    1  A    between atoms: C_2  and  C_10
REMARK    2  A    between atoms: C_3  and  C_17
REMARK    3  A    between atoms: C_12  and  C_14
REMARK    4  A    between atoms: C_14  and  O_15
REMARK    5  A    between atoms: C_18  and  C_19
REMARK    6  A    between atoms: C_19  and  O_20
REMARK    7  A    between atoms: O_20  and  C_21
REMARK    8  A    between atoms: C_22  and  C_30
REMARK    9  A    between atoms: C_23  and  O_27
REMARK   10  A    between atoms: C_30  and  O_31
REMARK                            x       y       z     vdW  Elec       q    Type
REMARK                         _______ _______ _______ _____ _____    ______ ____
ROOT
ATOM      1  F   UNL     1      32.418 -19.804 -20.633  0.00  0.00    -0.204 F 
ATOM      2  C   UNL     1      34.726 -19.559 -20.113  0.00  0.00    +0.065 C 
ATOM      3  C   UNL     1      35.680 -20.913 -18.355  0.00  0.00    +0.000 C 
ATOM      4  C   UNL     1      35.824 -19.937 -19.340  0.00  0.00    +0.005 C 
ATOM      5  C   UNL     1      33.483 -20.156 -19.899  0.00  0.00    +0.143 C 
ATOM      6  C   UNL     1      34.438 -21.511 -18.141  0.00  0.00    +0.002 C 
ATOM      7  C   UNL     1      33.339 -21.132 -18.913  0.00  0.00    +0.030 C 
ENDROOT
BRANCH   2  10
ATOM      8  O   UNL     1      35.475 -17.403 -20.726  0.00  0.00    -0.353 OA
ATOM      9  N   UNL     1      35.554 -16.530 -21.805  0.00  0.00    -0.070 NA
ATOM     10  C   UNL     1      34.879 -18.549 -21.132  0.00  0.00    +0.179 C 
ATOM     11  C   UNL     1      34.556 -18.471 -22.454  0.00  0.00    +0.069 C 
ATOM     12  C   UNL     1      34.999 -17.190 -22.825  0.00  0.00    +0.198 C 
BRANCH  12  14
ATOM     13  O   UNL     1      34.344 -17.057 -25.106  0.00  0.00    -0.243 OA
ATOM     14  C   UNL     1      34.915 -16.571 -24.116  0.00  0.00    +0.359 C 
BRANCH  14  15
ATOM     15  O   UNL     1      35.530 -15.348 -24.216  0.00  0.00    -0.476 OA
ATOM     16  H   UNL     1      36.227 -15.222 -24.830  0.00  0.00    +0.295 HD
ENDBRANCH  14  15
ENDBRANCH  12  14
ENDBRANCH   2  10
BRANCH   3  17
ATOM     17  C   UNL     1      36.825 -21.309 -17.549  0.00  0.00    -0.001 C 
ATOM     18  C   UNL     1      36.862 -21.365 -16.199  0.00  0.00    +0.021 C 
BRANCH  18  19
ATOM     19  C   UNL     1      38.061 -21.793 -15.414  0.00  0.00    +0.232 C 
BRANCH  19  20
ATOM     20  O   UNL     1      37.920 -23.165 -15.078  0.00  0.00    -0.470 OA
BRANCH  20  21
ATOM     21  C   UNL     1      37.552 -23.453 -13.788  0.00  0.00    +0.148 C 
ATOM     22  C   UNL     1      37.577 -24.761 -13.318  0.00  0.00    +0.143 C 
ATOM     23  C   UNL     1      37.200 -25.030 -12.003  0.00  0.00    +0.143 C 
ATOM     24  C   UNL     1      37.155 -22.410 -12.958  0.00  0.00    +0.037 C 
ATOM     25  C   UNL     1      36.801 -23.990 -11.164  0.00  0.00    +0.037 C 
ATOM     26  C   UNL     1      36.779 -22.679 -11.642  0.00  0.00    +0.006 C 
BRANCH  23  27
ATOM     27  O   UNL     1      37.216 -26.303 -11.515  0.00  0.00    -0.505 OA
ATOM     28  H   UNL     1      37.982 -26.834 -11.615  0.00  0.00    +0.292 HD
ENDBRANCH  23  27
BRANCH  22  30
ATOM     29  O   UNL     1      37.339 -26.257 -15.160  0.00  0.00    -0.245 OA
ATOM     30  C   UNL     1      37.995 -25.850 -14.195  0.00  0.00    +0.347 C 
BRANCH  30  31
ATOM     31  O   UNL     1      39.203 -26.361 -13.813  0.00  0.00    -0.441 OA
ATOM     32  C   UNL     1      40.351 -25.539 -14.047  0.00  0.00    +0.256 C 
ENDBRANCH  30  31
ENDBRANCH  22  30
ENDBRANCH  20  21
ENDBRANCH  19  20
ENDBRANCH  18  19
ENDBRANCH   3  17
TORSDOF 10
ENDMDL
MODEL 2
REMARK VINA RESULT:     -12.2      5.786      6.721
REMARK  Name = 447994
REMARK  10 active torsions:
REMARK  status: ('A' for Active; 'I' for Inactive)
REMARK    1  A    between atoms: C_2  and  C_10
REMARK    2  A    between atoms: C_3  and  C_17
REMARK    3  A    between atoms: C_12  and  C_14
REMARK    4  A    between atoms: C_14  and  O_15
REMARK    5  A    between atoms: C_18  and  C_19
REMARK    6  A    between atoms: C_19  and  O_20
REMARK    7  A    between atoms: O_20  and  C_21
REMARK    8  A    between atoms: C_22  and  C_30
REMARK    9  A    between atoms: C_23  and  O_27
REMARK   10  A    between atoms: C_30  and  O_31
REMARK                            x       y       z     vdW  Elec       q    Type
REMARK                         _______ _______ _______ _____ _____    ______ ____
ROOT
ATOM      1  F   UNL     1      29.630 -24.269 -13.123  0.00  0.00    -0.204 F 
ATOM      2  C   UNL     1      30.818 -23.174 -14.868  0.00  0.00    +0.065 C 
ATOM      3  C   UNL     1      33.233 -23.188 -14.828  0.00  0.00    +0.000 C 
ATOM      4  C   UNL     1      32.038 -22.812 -15.439  0.00  0.00    +0.005 C 
ATOM      5  C   UNL     1      30.794 -23.913 -13.685  0.00  0.00    +0.143 C 
ATOM      6  C   UNL     1      33.209 -23.927 -13.645  0.00  0.00    +0.002 C 
ATOM      7  C   UNL     1      31.990 -24.289 -13.073  0.00  0.00    +0.030 C 
ENDROOT
BRANCH   2  10
ATOM      8  O   UNL     1      29.127 -23.633 -16.454  0.00  0.00    -0.353 OA
ATOM      9  N   UNL     1      27.939 -23.131 -16.973  0.00  0.00    -0.070 NA
ATOM     10  C   UNL     1      29.583 -22.783 -15.503  0.00  0.00    +0.179 C 
ATOM     11  C   UNL     1      28.734 -21.724 -15.369  0.00  0.00    +0.069 C 
ATOM     12  C   UNL     1      27.725 -21.992 -16.310  0.00  0.00    +0.198 C 
BRANCH  12  14
ATOM     13  O   UNL     1      26.414 -20.496 -17.611  0.00  0.00    -0.243 OA
ATOM     14  C   UNL     1      26.564 -21.202 -16.601  0.00  0.00    +0.359 C 
BRANCH  14  15
ATOM     15  O   UNL     1      25.569 -21.263 -15.657  0.00  0.00    -0.476 OA
ATOM     16  H   UNL     1      24.969 -21.983 -15.654  0.00  0.00    +0.295 HD
ENDBRANCH  14  15
ENDBRANCH  12  14
ENDBRANCH   2  10
BRANCH   3  17
ATOM     17  C   UNL     1      34.506 -22.811 -15.424  0.00  0.00    -0.001 C 
ATOM     18  C   UNL     1      35.633 -22.489 -14.749  0.00  0.00    +0.021 C 
BRANCH  18  19
ATOM     19  C   UNL     1      36.924 -22.121 -15.407  0.00  0.00    +0.232 C 
BRANCH  19  20
ATOM     20  O   UNL     1      37.988 -22.740 -14.700  0.00  0.00    -0.470 OA
BRANCH  20  21
ATOM     21  C   UNL     1      37.724 -23.157 -13.421  0.00  0.00    +0.148 C 
ATOM     22  C   UNL     1      37.598 -24.510 -13.126  0.00  0.00    +0.143 C 
ATOM     23  C   UNL     1      37.330 -24.911 -11.818  0.00  0.00    +0.143 C 
ATOM     24  C   UNL     1      37.584 -22.199 -12.421  0.00  0.00    +0.037 C 
ATOM     25  C   UNL     1      37.189 -23.957 -10.811  0.00  0.00    +0.037 C 
ATOM     26  C   UNL     1      37.316 -22.601 -11.113  0.00  0.00    +0.006 C 
BRANCH  23  27
ATOM     27  O   UNL     1      37.204 -26.231 -11.501  0.00  0.00    -0.505 OA
ATOM     28  H   UNL     1      36.472 -26.523 -10.992  0.00  0.00    +0.292 HD
ENDBRANCH  23  27
BRANCH  22  30
ATOM     29  O   UNL     1      36.925 -25.695 -15.083  0.00  0.00    -0.245 OA
ATOM     30  C   UNL     1      37.747 -25.509 -14.179  0.00  0.00    +0.347 C 
BRANCH  30  31
ATOM     31  O   UNL     1      38.910 -26.212 -14.039  0.00  0.00    -0.441 OA
ATOM     32  C   UNL     1      40.113 -25.445 -13.923  0.00  0.00    +0.256 C 
ENDBRANCH  30  31
ENDBRANCH  22  30
ENDBRANCH  20  21
ENDBRANCH  19  20
ENDBRANCH  18  19
ENDBRANCH   3  17
TORSDOF 10
ENDMDL
MODEL 3
REMARK VINA RESULT:     -11.9      1.477      2.553
REMARK  Name = 447994
REMARK  10 active torsions:
REMARK  status: ('A' for Active; 'I' for Inactive)
REMARK    1  A    between atoms: C_2  and  C_10
REMARK    2  A    between atoms: C_3  and  C_17
REMARK    3  A    between atoms: C_12  and  C_14
REMARK    4  A    between atoms: C_14  and  O_15
REMARK    5  A    between atoms: C_18  and  C_19
REMARK    6  A    between atoms: C_19  and  O_20
REMARK    7  A    between atoms: O_20  and  C_21
REMARK    8  A    between atoms: C_22  and  C_30
REMARK    9  A    between atoms: C_23  and  O_27
REMARK   10  A    between atoms: C_30  and  O_31
REMARK                            x       y       z     vdW  Elec       q    Type
REMARK                         _______ _______ _______ _____ _____    ______ ____
ROOT
ATOM      1  F   UNL     1      32.449 -19.785 -20.641  0.00  0.00    -0.204 F 
ATOM      2  C   UNL     1      34.762 -19.565 -20.133  0.00  0.00    +0.065 C 
ATOM      3  C   UNL     1      35.704 -20.903 -18.356  0.00  0.00    +0.000 C 
ATOM      4  C   UNL     1      35.857 -19.946 -19.358  0.00  0.00    +0.005 C 
ATOM      5  C   UNL     1      33.512 -20.141 -19.905  0.00  0.00    +0.143 C 
ATOM      6  C   UNL     1      34.454 -21.480 -18.128  0.00  0.00    +0.002 C 
ATOM      7  C   UNL     1      33.358 -21.098 -18.903  0.00  0.00    +0.030 C 
ENDROOT
BRANCH   2  10
ATOM      8  O   UNL     1      34.884 -19.050 -22.436  0.00  0.00    -0.353 OA
ATOM      9  N   UNL     1      35.053 -17.991 -23.321  0.00  0.00    -0.070 NA
ATOM     10  C   UNL     1      34.925 -18.574 -21.169  0.00  0.00    +0.179 C 
ATOM     11  C   UNL     1      35.117 -17.224 -21.178  0.00  0.00    +0.069 C 
ATOM     12  C   UNL     1      35.190 -16.912 -22.546  0.00  0.00    +0.198 C 
BRANCH  12  14
ATOM     13  O   UNL     1      35.579 -14.568 -22.518  0.00  0.00    -0.243 OA
ATOM     14  C   UNL     1      35.385 -15.623 -23.143  0.00  0.00    +0.359 C 
BRANCH  14  15
ATOM     15  O   UNL     1      35.342 -15.605 -24.515  0.00  0.00    -0.476 OA
ATOM     16  H   UNL     1      35.381 -14.789 -24.975  0.00  0.00    +0.295 HD
ENDBRANCH  14  15
ENDBRANCH  12  14
ENDBRANCH   2  10
BRANCH   3  17
ATOM     17  C   UNL     1      36.846 -21.302 -17.548  0.00  0.00    -0.001 C 
ATOM     18  C   UNL     1      36.873 -21.380 -16.198  0.00  0.00    +0.021 C 
BRANCH  18  19
ATOM     19  C   UNL     1      38.069 -21.809 -15.411  0.00  0.00    +0.232 C 
BRANCH  19  20
ATOM     20  O   UNL     1      37.656 -22.124 -14.089  0.00  0.00    -0.470 OA
BRANCH  20  21
ATOM     21  C   UNL     1      37.782 -23.431 -13.696  0.00  0.00    +0.148 C 
ATOM     22  C   UNL     1      37.313 -23.848 -12.455  0.00  0.00    +0.143 C 
ATOM     23  C   UNL     1      37.450 -25.182 -12.076  0.00  0.00    +0.143 C 
ATOM     24  C   UNL     1      38.387 -24.336 -14.562  0.00  0.00    +0.037 C 
ATOM     25  C   UNL     1      38.055 -26.094 -12.940  0.00  0.00    +0.037 C 
ATOM     26  C   UNL     1      38.524 -25.670 -14.183  0.00  0.00    +0.006 C 
BRANCH  23  27
ATOM     27  O   UNL     1      36.997 -25.618 -10.866  0.00  0.00    -0.505 OA
ATOM     28  H   UNL     1      37.192 -25.131 -10.089  0.00  0.00    +0.292 HD
ENDBRANCH  23  27
BRANCH  22  30
ATOM     29  O   UNL     1      37.269 -21.959 -10.999  0.00  0.00    -0.245 OA
ATOM     30  C   UNL     1      36.678 -22.894 -11.551  0.00  0.00    +0.347 C 
BRANCH  30  31
ATOM     31  O   UNL     1      35.348 -23.165 -11.394  0.00  0.00    -0.441 OA
ATOM     32  C   UNL     1      34.589 -23.371 -12.590  0.00  0.00    +0.256 C 
ENDBRANCH  30  31
ENDBRANCH  22  30
ENDBRANCH  20  21
ENDBRANCH  19  20
ENDBRANCH  18  19
ENDBRANCH   3  17
TORSDOF 10
ENDMDL
MODEL 4
REMARK VINA RESULT:     -11.6      2.705      3.711
REMARK  Name = 447994
REMARK  10 active torsions:
REMARK  status: ('A' for Active; 'I' for Inactive)
REMARK    1  A    between atoms: C_2  and  C_10
REMARK    2  A    between atoms: C_3  and  C_17
REMARK    3  A    between atoms: C_12  and  C_14
REMARK    4  A    between atoms: C_14  and  O_15
REMARK    5  A    between atoms: C_18  and  C_19
REMARK    6  A    between atoms: C_19  and  O_20
REMARK    7  A    between atoms: O_20  and  C_21
REMARK    8  A    between atoms: C_22  and  C_30
REMARK    9  A    between atoms: C_23  and  O_27
REMARK   10  A    between atoms: C_30  and  O_31
REMARK                            x       y       z     vdW  Elec       q    Type
REMARK                         _______ _______ _______ _____ _____    ______ ____
ROOT
ATOM      1  F   UNL     1      37.754 -17.405 -21.950  0.00  0.00    -0.204 F 
ATOM      2  C   UNL     1      35.512 -18.129 -21.631  0.00  0.00    +0.065 C 
ATOM      3  C   UNL     1      35.044 -19.773 -19.923  0.00  0.00    +0.000 C 
ATOM      4  C   UNL     1      34.602 -18.932 -20.943  0.00  0.00    +0.005 C 
ATOM      5  C   UNL     1      36.866 -18.169 -21.299  0.00  0.00    +0.143 C 
ATOM      6  C   UNL     1      36.399 -19.812 -19.591  0.00  0.00    +0.002 C 
ATOM      7  C   UNL     1      37.310 -19.011 -20.279  0.00  0.00    +0.030 C 
ENDROOT
BRANCH   2  10
ATOM      8  O   UNL     1      34.590 -17.888 -23.793  0.00  0.00    -0.353 OA
ATOM      9  N   UNL     1      34.182 -16.932 -24.716  0.00  0.00    -0.070 NA
ATOM     10  C   UNL     1      35.049 -17.260 -22.685  0.00  0.00    +0.179 C 
ATOM     11  C   UNL     1      34.960 -15.908 -22.837  0.00  0.00    +0.069 C 
ATOM     12  C   UNL     1      34.412 -15.758 -24.122  0.00  0.00    +0.198 C 
BRANCH  12  14
ATOM     13  O   UNL     1      33.734 -13.484 -24.258  0.00  0.00    -0.243 OA
ATOM     14  C   UNL     1      34.098 -14.537 -24.806  0.00  0.00    +0.359 C 
BRANCH  14  15
ATOM     15  O   UNL     1      34.223 -14.587 -26.172  0.00  0.00    -0.476 OA
ATOM     16  H   UNL     1      34.532 -13.838 -26.643  0.00  0.00    +0.295 HD
ENDBRANCH  14  15
ENDBRANCH  12  14
ENDBRANCH   2  10
BRANCH   3  17
ATOM     17  C   UNL     1      34.095 -20.609 -19.204  0.00  0.00    -0.001 C 
ATOM     18  C   UNL     1      34.408 -21.577 -18.313  0.00  0.00    +0.021 C 
BRANCH  18  19
ATOM     19  C   UNL     1      33.394 -22.402 -17.588  0.00  0.00    +0.232 C 
BRANCH  19  20
ATOM     20  O   UNL     1      34.061 -23.191 -16.613  0.00  0.00    -0.470 OA
BRANCH  20  21
ATOM     21  C   UNL     1      33.557 -23.158 -15.339  0.00  0.00    +0.148 C 
ATOM     22  C   UNL     1      34.321 -23.590 -14.261  0.00  0.00    +0.143 C 
ATOM     23  C   UNL     1      33.788 -23.546 -12.973  0.00  0.00    +0.143 C 
ATOM     24  C   UNL     1      32.264 -22.681 -15.143  0.00  0.00    +0.037 C 
ATOM     25  C   UNL     1      32.494 -23.069 -12.769  0.00  0.00    +0.037 C 
ATOM     26  C   UNL     1      31.732 -22.637 -13.855  0.00  0.00    +0.006 C 
BRANCH  23  27
ATOM     27  O   UNL     1      34.516 -23.963 -11.898  0.00  0.00    -0.505 OA
ATOM     28  H   UNL     1      34.106 -24.460 -11.218  0.00  0.00    +0.292 HD
ENDBRANCH  23  27
BRANCH  22  30
ATOM     29  O   UNL     1      35.945 -25.169 -15.009  0.00  0.00    -0.245 OA
ATOM     30  C   UNL     1      35.677 -24.088 -14.473  0.00  0.00    +0.347 C 
BRANCH  30  31
ATOM     31  O   UNL     1      36.610 -23.207 -14.005  0.00  0.00    -0.441 OA
ATOM     32  C   UNL     1      37.327 -22.450 -14.985  0.00  0.00    +0.256 C 
ENDBRANCH  30  31
ENDBRANCH  22  30
ENDBRANCH  20  21
ENDBRANCH  19  20
ENDBRANCH  18  19
ENDBRANCH   3  17
TORSDOF 10
ENDMDL
MODEL 5
REMARK VINA RESULT:     -11.6      1.424      2.140
REMARK  Name = 447994
REMARK  10 active torsions:
REMARK  status: ('A' for Active; 'I' for Inactive)
REMARK    1  A    between atoms: C_2  and  C_10
REMARK    2  A    between atoms: C_3  and  C_17
REMARK    3  A    between atoms: C_12  and  C_14
REMARK    4  A    between atoms: C_14  and  O_15
REMARK    5  A    between atoms: C_18  and  C_19
REMARK    6  A    between atoms: C_19  and  O_20
REMARK    7  A    between atoms: O_20  and  C_21
REMARK    8  A    between atoms: C_22  and  C_30
REMARK    9  A    between atoms: C_23  and  O_27
REMARK   10  A    between atoms: C_30  and  O_31
REMARK                            x       y       z     vdW  Elec       q    Type
REMARK                         _______ _______ _______ _____ _____    ______ ____
ROOT
ATOM      1  F   UNL     1      32.432 -19.825 -20.560  0.00  0.00    -0.204 F 
ATOM      2  C   UNL     1      34.742 -19.568 -20.059  0.00  0.00    +0.065 C 
ATOM      3  C   UNL     1      35.716 -20.913 -18.304  0.00  0.00    +0.000 C 
ATOM      4  C   UNL     1      35.847 -19.940 -19.294  0.00  0.00    +0.005 C 
ATOM      5  C   UNL     1      33.504 -20.170 -19.834  0.00  0.00    +0.143 C 
ATOM      6  C   UNL     1      34.477 -21.515 -18.078  0.00  0.00    +0.002 C 
ATOM      7  C   UNL     1      33.371 -21.144 -18.843  0.00  0.00    +0.030 C 
ENDROOT
BRANCH   2  10
ATOM      8  O   UNL     1      35.404 -17.383 -20.667  0.00  0.00    -0.353 OA
ATOM      9  N   UNL     1      35.480 -16.517 -21.751  0.00  0.00    -0.070 NA
ATOM     10  C   UNL     1      34.882 -18.561 -21.082  0.00  0.00    +0.179 C 
ATOM     11  C   UNL     1      34.607 -18.512 -22.417  0.00  0.00    +0.069 C 
ATOM     12  C   UNL     1      34.999 -17.213 -22.785  0.00  0.00    +0.198 C 
BRANCH  12  14
ATOM     13  O   UNL     1      34.360 -17.101 -25.071  0.00  0.00    -0.243 OA
ATOM     14  C   UNL     1      34.933 -16.612 -24.085  0.00  0.00    +0.359 C 
BRANCH  14  15
ATOM     15  O   UNL     1      35.571 -15.401 -24.198  0.00  0.00    -0.476 OA
ATOM     16  H   UNL     1      35.319 -14.799 -24.871  0.00  0.00    +0.295 HD
ENDBRANCH  14  15
ENDBRANCH  12  14
ENDBRANCH   2  10
BRANCH   3  17
ATOM     17  C   UNL     1      36.868 -21.301 -17.506  0.00  0.00    -0.001 C 
ATOM     18  C   UNL     1      36.858 -21.584 -16.183  0.00  0.00    +0.021 C 
BRANCH  18  19
ATOM     19  C   UNL     1      38.069 -21.993 -15.408  0.00  0.00    +0.232 C 
BRANCH  19  20
ATOM     20  O   UNL     1      37.915 -23.345 -15.002  0.00  0.00    -0.470 OA
BRANCH  20  21
ATOM     21  C   UNL     1      37.620 -23.566 -13.681  0.00  0.00    +0.148 C 
ATOM     22  C   UNL     1      36.315 -23.822 -13.278  0.00  0.00    +0.143 C 
ATOM     23  C   UNL     1      36.038 -24.044 -11.930  0.00  0.00    +0.143 C 
ATOM     24  C   UNL     1      38.654 -23.531 -12.751  0.00  0.00    +0.037 C 
ATOM     25  C   UNL     1      37.069 -24.012 -10.991  0.00  0.00    +0.037 C 
ATOM     26  C   UNL     1      38.377 -23.755 -11.403  0.00  0.00    +0.006 C 
BRANCH  23  27
ATOM     27  O   UNL     1      34.767 -24.299 -11.507  0.00  0.00    -0.505 OA
ATOM     28  H   UNL     1      34.246 -24.940 -11.949  0.00  0.00    +0.292 HD
ENDBRANCH  23  27
BRANCH  22  30
ATOM     29  O   UNL     1      35.151 -24.688 -15.171  0.00  0.00    -0.245 OA
ATOM     30  C   UNL     1      35.235 -23.858 -14.260  0.00  0.00    +0.347 C 
BRANCH  30  31
ATOM     31  O   UNL     1      34.331 -22.857 -14.043  0.00  0.00    -0.441 OA
ATOM     32  C   UNL     1      33.084 -22.955 -14.741  0.00  0.00    +0.256 C 
ENDBRANCH  30  31
ENDBRANCH  22  30
ENDBRANCH  20  21
ENDBRANCH  19  20
ENDBRANCH  18  19
ENDBRANCH   3  17
TORSDOF 10
ENDMDL
MODEL 6
REMARK VINA RESULT:     -11.1      3.396      4.486
REMARK  Name = 447994
REMARK  10 active torsions:
REMARK  status: ('A' for Active; 'I' for Inactive)
REMARK    1  A    between atoms: C_2  and  C_10
REMARK    2  A    between atoms: C_3  and  C_17
REMARK    3  A    between atoms: C_12  and  C_14
REMARK    4  A    between atoms: C_14  and  O_15
REMARK    5  A    between atoms: C_18  and  C_19
REMARK    6  A    between atoms: C_19  and  O_20
REMARK    7  A    between atoms: O_20  and  C_21
REMARK    8  A    between atoms: C_22  and  C_30
REMARK    9  A    between atoms: C_23  and  O_27
REMARK   10  A    between atoms: C_30  and  O_31
REMARK                            x       y       z     vdW  Elec       q    Type
REMARK                         _______ _______ _______ _____ _____    ______ ____
ROOT
ATOM      1  F   UNL     1      37.853 -17.738 -21.583  0.00  0.00    -0.204 F 
ATOM      2  C   UNL     1      35.614 -18.488 -21.308  0.00  0.00    +0.065 C 
ATOM      3  C   UNL     1      35.123 -20.096 -19.573  0.00  0.00    +0.000 C 
ATOM      4  C   UNL     1      34.697 -19.287 -20.625  0.00  0.00    +0.005 C 
ATOM      5  C   UNL     1      36.959 -18.499 -20.937  0.00  0.00    +0.143 C 
ATOM      6  C   UNL     1      36.468 -20.106 -19.202  0.00  0.00    +0.002 C 
ATOM      7  C   UNL     1      37.386 -19.308 -19.884  0.00  0.00    +0.030 C 
ENDROOT
BRANCH   2  10
ATOM      8  O   UNL     1      34.674 -18.314 -23.469  0.00  0.00    -0.353 OA
ATOM      9  N   UNL     1      34.287 -17.388 -24.430  0.00  0.00    -0.070 NA
ATOM     10  C   UNL     1      35.169 -17.652 -22.396  0.00  0.00    +0.179 C 
ATOM     11  C   UNL     1      35.124 -16.306 -22.610  0.00  0.00    +0.069 C 
ATOM     12  C   UNL     1      34.565 -16.196 -23.894  0.00  0.00    +0.198 C 
BRANCH  12  14
ATOM     13  O   UNL     1      34.164 -13.866 -24.134  0.00  0.00    -0.243 OA
ATOM     14  C   UNL     1      34.286 -14.998 -24.630  0.00  0.00    +0.359 C 
BRANCH  14  15
ATOM     15  O   UNL     1      34.149 -15.166 -25.986  0.00  0.00    -0.476 OA
ATOM     16  H   UNL     1      33.526 -15.780 -26.322  0.00  0.00    +0.295 HD
ENDBRANCH  14  15
ENDBRANCH  12  14
ENDBRANCH   2  10
BRANCH   3  17
ATOM     17  C   UNL     1      34.166 -20.928 -18.860  0.00  0.00    -0.001 C 
ATOM     18  C   UNL     1      34.468 -21.976 -18.060  0.00  0.00    +0.021 C 
BRANCH  18  19
ATOM     19  C   UNL     1      33.448 -22.794 -17.336  0.00  0.00    +0.232 C 
BRANCH  19  20
ATOM     20  O   UNL     1      33.304 -22.283 -16.019  0.00  0.00    -0.470 OA
BRANCH  20  21
ATOM     21  C   UNL     1      32.226 -22.725 -15.297  0.00  0.00    +0.148 C 
ATOM     22  C   UNL     1      32.405 -23.489 -14.149  0.00  0.00    +0.143 C 
ATOM     23  C   UNL     1      31.295 -23.928 -13.429  0.00  0.00    +0.143 C 
ATOM     24  C   UNL     1      30.948 -22.394 -15.733  0.00  0.00    +0.037 C 
ATOM     25  C   UNL     1      30.010 -23.599 -13.861  0.00  0.00    +0.037 C 
ATOM     26  C   UNL     1      29.837 -22.832 -15.013  0.00  0.00    +0.006 C 
BRANCH  23  27
ATOM     27  O   UNL     1      31.441 -24.677 -12.300  0.00  0.00    -0.505 OA
ATOM     28  H   UNL     1      30.713 -24.805 -11.724  0.00  0.00    +0.292 HD
ENDBRANCH  23  27
BRANCH  22  30
ATOM     29  O   UNL     1      34.614 -24.350 -14.412  0.00  0.00    -0.245 OA
ATOM     30  C   UNL     1      33.750 -23.832 -13.696  0.00  0.00    +0.347 C 
BRANCH  30  31
ATOM     31  O   UNL     1      33.931 -23.508 -12.381  0.00  0.00    -0.441 OA
ATOM     32  C   UNL     1      35.281 -23.317 -11.947  0.00  0.00    +0.256 C 
ENDBRANCH  30  31
ENDBRANCH  22  30
ENDBRANCH  20  21
ENDBRANCH  19  20
ENDBRANCH  18  19
ENDBRANCH   3  17
TORSDOF 10
ENDMDL
MODEL 7
REMARK VINA RESULT:     -11.1      2.972     10.921
REMARK  Name = 447994
REMARK  10 active torsions:
REMARK  status: ('A' for Active; 'I' for Inactive)
REMARK    1  A    between atoms: C_2  and  C_10
REMARK    2  A    between atoms: C_3  and  C_17
REMARK    3  A    between atoms: C_12  and  C_14
REMARK    4  A    between atoms: C_14  and  O_15
REMARK    5  A    between atoms: C_18  and  C_19
REMARK    6  A    between atoms: C_19  and  O_20
REMARK    7  A    between atoms: O_20  and  C_21
REMARK    8  A    between atoms: C_22  and  C_30
REMARK    9  A    between atoms: C_23  and  O_27
REMARK   10  A    between atoms: C_30  and  O_31
REMARK                            x       y       z     vdW  Elec       q    Type
REMARK                         _______ _______ _______ _____ _____    ______ ____
ROOT
ATOM      1  F   UNL     1      34.122 -23.401 -15.351  0.00  0.00    -0.204 F 
ATOM      2  C   UNL     1      36.006 -22.113 -16.020  0.00  0.00    +0.065 C 
ATOM      3  C   UNL     1      35.936 -20.948 -18.136  0.00  0.00    +0.000 C 
ATOM      4  C   UNL     1      36.613 -21.286 -16.965  0.00  0.00    +0.005 C 
ATOM      5  C   UNL     1      34.720 -22.605 -16.248  0.00  0.00    +0.143 C 
ATOM      6  C   UNL     1      34.650 -21.440 -18.363  0.00  0.00    +0.002 C 
ATOM      7  C   UNL     1      34.042 -22.268 -17.419  0.00  0.00    +0.030 C 
ENDROOT
BRANCH   2  10
ATOM      8  O   UNL     1      37.985 -22.883 -14.983  0.00  0.00    -0.353 OA
ATOM      9  N   UNL     1      38.534 -23.178 -13.741  0.00  0.00    -0.070 NA
ATOM     10  C   UNL     1      36.710 -22.460 -14.810  0.00  0.00    +0.179 C 
ATOM     11  C   UNL     1      36.388 -22.461 -13.485  0.00  0.00    +0.069 C 
ATOM     12  C   UNL     1      37.562 -22.918 -12.862  0.00  0.00    +0.198 C 
BRANCH  12  14
ATOM     13  O   UNL     1      37.889 -24.218 -10.900  0.00  0.00    -0.243 OA
ATOM     14  C   UNL     1      37.792 -23.115 -11.461  0.00  0.00    +0.359 C 
BRANCH  14  15
ATOM     15  O   UNL     1      37.905 -21.963 -10.723  0.00  0.00    -0.476 OA
ATOM     16  H   UNL     1      37.867 -21.999  -9.787  0.00  0.00    +0.295 HD
ENDBRANCH  14  15
ENDBRANCH  12  14
ENDBRANCH   2  10
BRANCH   3  17
ATOM     17  C   UNL     1      36.568 -20.085 -19.121  0.00  0.00    -0.001 C 
ATOM     18  C   UNL     1      35.937 -19.187 -19.910  0.00  0.00    +0.021 C 
BRANCH  18  19
ATOM     19  C   UNL     1      36.634 -18.310 -20.900  0.00  0.00    +0.232 C 
BRANCH  19  20
ATOM     20  O   UNL     1      35.675 -17.810 -21.821  0.00  0.00    -0.470 OA
BRANCH  20  21
ATOM     21  C   UNL     1      35.296 -16.501 -21.672  0.00  0.00    +0.148 C 
ATOM     22  C   UNL     1      34.896 -15.748 -22.770  0.00  0.00    +0.143 C 
ATOM     23  C   UNL     1      34.514 -14.419 -22.595  0.00  0.00    +0.143 C 
ATOM     24  C   UNL     1      35.319 -15.939 -20.400  0.00  0.00    +0.037 C 
ATOM     25  C   UNL     1      34.533 -13.849 -21.323  0.00  0.00    +0.037 C 
ATOM     26  C   UNL     1      34.936 -14.609 -20.225  0.00  0.00    +0.006 C 
BRANCH  23  27
ATOM     27  O   UNL     1      34.115 -13.658 -23.654  0.00  0.00    -0.505 OA
ATOM     28  H   UNL     1      34.704 -13.500 -24.366  0.00  0.00    +0.292 HD
ENDBRANCH  23  27
BRANCH  22  30
ATOM     29  O   UNL     1      35.191 -15.748 -25.137  0.00  0.00    -0.245 OA
ATOM     30  C   UNL     1      34.874 -16.344 -24.102  0.00  0.00    +0.347 C 
BRANCH  30  31
ATOM     31  O   UNL     1      34.459 -17.645 -24.059  0.00  0.00    -0.441 OA
ATOM     32  C   UNL     1      33.374 -18.003 -24.921  0.00  0.00    +0.256 C 
ENDBRANCH  30  31
ENDBRANCH  22  30
ENDBRANCH  20  21
ENDBRANCH  19  20
ENDBRANCH  18  19
ENDBRANCH   3  17
TORSDOF 10
ENDMDL
MODEL 8
REMARK VINA RESULT:     -11.0      2.987     11.011
REMARK  Name = 447994
REMARK  10 active torsions:
REMARK  status: ('A' for Active; 'I' for Inactive)
REMARK    1  A    between atoms: C_2  and  C_10
REMARK    2  A    between atoms: C_3  and  C_17
REMARK    3  A    between atoms: C_12  and  C_14
REMARK    4  A    between atoms: C_14  and  O_15
REMARK    5  A    between atoms: C_18  and  C_19
REMARK    6  A    between atoms: C_19  and  O_20
REMARK    7  A    between atoms: O_20  and  C_21
REMARK    8  A    between atoms: C_22  and  C_30
REMARK    9  A    between atoms: C_23  and  O_27
REMARK   10  A    between atoms: C_30  and  O_31
REMARK                            x       y       z     vdW  Elec       q    Type
REMARK                         _______ _______ _______ _____ _____    ______ ____
ROOT
ATOM      1  F   UNL     1      33.985 -23.270 -15.183  0.00  0.00    -0.204 F 
ATOM      2  C   UNL     1      35.929 -22.116 -15.922  0.00  0.00    +0.065 C 
ATOM      3  C   UNL     1      35.917 -21.082 -18.105  0.00  0.00    +0.000 C 
ATOM      4  C   UNL     1      36.576 -21.378 -16.912  0.00  0.00    +0.005 C 
ATOM      5  C   UNL     1      34.621 -22.559 -16.124  0.00  0.00    +0.143 C 
ATOM      6  C   UNL     1      34.610 -21.525 -18.308  0.00  0.00    +0.002 C 
ATOM      7  C   UNL     1      33.962 -22.264 -17.317  0.00  0.00    +0.030 C 
ENDROOT
BRANCH   2  10
ATOM      8  O   UNL     1      37.893 -22.841 -14.826  0.00  0.00    -0.353 OA
ATOM      9  N   UNL     1      38.422 -23.093 -13.566  0.00  0.00    -0.070 NA
ATOM     10  C   UNL     1      36.614 -22.420 -14.689  0.00  0.00    +0.179 C 
ATOM     11  C   UNL     1      36.268 -22.381 -13.370  0.00  0.00    +0.069 C 
ATOM     12  C   UNL     1      37.434 -22.812 -12.713  0.00  0.00    +0.198 C 
BRANCH  12  14
ATOM     13  O   UNL     1      37.762 -24.047 -10.710  0.00  0.00    -0.243 OA
ATOM     14  C   UNL     1      37.641 -22.963 -11.303  0.00  0.00    +0.359 C 
BRANCH  14  15
ATOM     15  O   UNL     1      37.701 -21.788 -10.595  0.00  0.00    -0.476 OA
ATOM     16  H   UNL     1      38.488 -21.552 -10.143  0.00  0.00    +0.295 HD
ENDBRANCH  14  15
ENDBRANCH  12  14
ENDBRANCH   2  10
BRANCH   3  17
ATOM     17  C   UNL     1      36.592 -20.312 -19.138  0.00  0.00    -0.001 C 
ATOM     18  C   UNL     1      36.076 -19.251 -19.800  0.00  0.00    +0.021 C 
BRANCH  18  19
ATOM     19  C   UNL     1      36.815 -18.481 -20.847  0.00  0.00    +0.232 C 
BRANCH  19  20
ATOM     20  O   UNL     1      36.051 -17.336 -21.195  0.00  0.00    -0.470 OA
BRANCH  20  21
ATOM     21  C   UNL     1      35.369 -17.384 -22.383  0.00  0.00    +0.148 C 
ATOM     22  C   UNL     1      34.908 -16.219 -22.986  0.00  0.00    +0.143 C 
ATOM     23  C   UNL     1      34.217 -16.292 -24.194  0.00  0.00    +0.143 C 
ATOM     24  C   UNL     1      35.146 -18.623 -22.977  0.00  0.00    +0.037 C 
ATOM     25  C   UNL     1      33.991 -17.530 -24.796  0.00  0.00    +0.037 C 
ATOM     26  C   UNL     1      34.456 -18.695 -24.186  0.00  0.00    +0.006 C 
BRANCH  23  27
ATOM     27  O   UNL     1      33.755 -15.165 -24.808  0.00  0.00    -0.505 OA
ATOM     28  H   UNL     1      33.951 -14.322 -24.448  0.00  0.00    +0.292 HD
ENDBRANCH  23  27
BRANCH  22  30
ATOM     29  O   UNL     1      35.497 -13.908 -22.969  0.00  0.00    -0.245 OA
ATOM     30  C   UNL     1      35.145 -14.923 -22.358  0.00  0.00    +0.347 C 
BRANCH  30  31
ATOM     31  O   UNL     1      34.928 -14.975 -21.010  0.00  0.00    -0.441 OA
ATOM     32  C   UNL     1      34.082 -13.961 -20.456  0.00  0.00    +0.256 C 
ENDBRANCH  30  31
ENDBRANCH  22  30
ENDBRANCH  20  21
ENDBRANCH  19  20
ENDBRANCH  18  19
ENDBRANCH   3  17
TORSDOF 10
ENDMDL
MODEL 9
REMARK VINA RESULT:     -11.0      3.682      4.864
REMARK  Name = 447994
REMARK  10 active torsions:
REMARK  status: ('A' for Active; 'I' for Inactive)
REMARK    1  A    between atoms: C_2  and  C_10
REMARK    2  A    between atoms: C_3  and  C_17
REMARK    3  A    between atoms: C_12  and  C_14
REMARK    4  A    between atoms: C_14  and  O_15
REMARK    5  A    between atoms: C_18  and  C_19
REMARK    6  A    between atoms: C_19  and  O_20
REMARK    7  A    between atoms: O_20  and  C_21
REMARK    8  A    between atoms: C_22  and  C_30
REMARK    9  A    between atoms: C_23  and  O_27
REMARK   10  A    between atoms: C_30  and  O_31
REMARK                            x       y       z     vdW  Elec       q    Type
REMARK                         _______ _______ _______ _____ _____    ______ ____
ROOT
ATOM      1  F   UNL     1      37.803 -17.694 -21.466  0.00  0.00    -0.204 F 
ATOM      2  C   UNL     1      35.554 -18.433 -21.241  0.00  0.00    +0.065 C 
ATOM      3  C   UNL     1      35.036 -20.117 -19.588  0.00  0.00    +0.000 C 
ATOM      4  C   UNL     1      34.625 -19.254 -20.603  0.00  0.00    +0.005 C 
ATOM      5  C   UNL     1      36.897 -18.476 -20.863  0.00  0.00    +0.143 C 
ATOM      6  C   UNL     1      36.378 -20.160 -19.211  0.00  0.00    +0.002 C 
ATOM      7  C   UNL     1      37.309 -19.339 -19.848  0.00  0.00    +0.030 C 
ENDROOT
BRANCH   2  10
ATOM      8  O   UNL     1      35.327 -16.225 -22.050  0.00  0.00    -0.353 OA
ATOM      9  N   UNL     1      34.869 -15.492 -23.139  0.00  0.00    -0.070 NA
ATOM     10  C   UNL     1      35.125 -17.541 -22.290  0.00  0.00    +0.179 C 
ATOM     11  C   UNL     1      34.544 -17.715 -23.512  0.00  0.00    +0.069 C 
ATOM     12  C   UNL     1      34.406 -16.403 -23.998  0.00  0.00    +0.198 C 
BRANCH  12  14
ATOM     13  O   UNL     1      32.863 -16.499 -25.803  0.00  0.00    -0.243 OA
ATOM     14  C   UNL     1      33.850 -15.987 -25.253  0.00  0.00    +0.359 C 
BRANCH  14  15
ATOM     15  O   UNL     1      34.498 -14.936 -25.855  0.00  0.00    -0.476 OA
ATOM     16  H   UNL     1      34.706 -14.168 -25.360  0.00  0.00    +0.295 HD
ENDBRANCH  14  15
ENDBRANCH  12  14
ENDBRANCH   2  10
BRANCH   3  17
ATOM     17  C   UNL     1      34.066 -20.973 -18.923  0.00  0.00    -0.001 C 
ATOM     18  C   UNL     1      34.354 -22.043 -18.147  0.00  0.00    +0.021 C 
BRANCH  18  19
ATOM     19  C   UNL     1      33.321 -22.886 -17.471  0.00  0.00    +0.232 C 
BRANCH  19  20
ATOM     20  O   UNL     1      32.816 -22.176 -16.350  0.00  0.00    -0.470 OA
BRANCH  20  21
ATOM     21  C   UNL     1      33.037 -22.730 -15.115  0.00  0.00    +0.148 C 
ATOM     22  C   UNL     1      31.997 -23.319 -14.404  0.00  0.00    +0.143 C 
ATOM     23  C   UNL     1      32.244 -23.877 -13.151  0.00  0.00    +0.143 C 
ATOM     24  C   UNL     1      34.323 -22.694 -14.586  0.00  0.00    +0.037 C 
ATOM     25  C   UNL     1      33.531 -23.844 -12.614  0.00  0.00    +0.037 C 
ATOM     26  C   UNL     1      34.570 -23.253 -13.333  0.00  0.00    +0.006 C 
BRANCH  23  27
ATOM     27  O   UNL     1      31.243 -24.462 -12.433  0.00  0.00    -0.505 OA
ATOM     28  H   UNL     1      30.762 -25.178 -12.798  0.00  0.00    +0.292 HD
ENDBRANCH  23  27
BRANCH  22  30
ATOM     29  O   UNL     1      30.144 -24.348 -15.499  0.00  0.00    -0.245 OA
ATOM     30  C   UNL     1      30.650 -23.354 -14.966  0.00  0.00    +0.347 C 
BRANCH  30  31
ATOM     31  O   UNL     1      30.020 -22.150 -14.826  0.00  0.00    -0.441 OA
ATOM     32  C   UNL     1      28.701 -22.048 -15.373  0.00  0.00    +0.256 C 
ENDBRANCH  30  31
ENDBRANCH  22  30
ENDBRANCH  20  21
ENDBRANCH  19  20
ENDBRANCH  18  19
ENDBRANCH   3  17
TORSDOF 10
ENDMDL
