MODEL 1
REMARK VINA RESULT:     -12.6      0.000      0.000
REMARK  Name = 9969613
REMARK  5 active torsions:
REMARK  status: ('A' for Active; 'I' for Inactive)
REMARK    1  A    between atoms: C_3  and  O_7
REMARK    2  A    between atoms: C_4  and  O_17
REMARK    3  A    between atoms: O_7  and  C_13
REMARK    4  A    between atoms: O_17  and  C_21
REMARK    5  A    between atoms: C_18  and  N_24
REMARK                            x       y       z     vdW  Elec       q    Type
REMARK                         _______ _______ _______ _____ _____    ______ ____
ROOT
ATOM      1  N   UNL     1      34.867 -22.648 -16.138  0.00  0.00    -0.283 NA
ATOM      2  N   UNL     1      32.485 -22.782 -16.487  0.00  0.00    -0.151 NA
ATOM      3  C   UNL     1      34.617 -22.556 -14.822  0.00  0.00    +0.296 C 
ATOM      4  C   UNL     1      33.765 -22.757 -16.906  0.00  0.00    +0.260 C 
ATOM      5  C   UNL     1      33.366 -22.569 -14.257  0.00  0.00    +0.094 C 
ATOM      6  C   UNL     1      32.321 -22.686 -15.150  0.00  0.00    +0.119 C 
ENDROOT
BRANCH   3   7
ATOM      7  O   UNL     1      35.719 -22.442 -13.991  0.00  0.00    -0.427 OA
BRANCH   7  13
ATOM      8  O   UNL     1      40.234 -24.112 -14.277  0.00  0.00    -0.435 OA
ATOM      9  O   UNL     1      39.493 -26.396 -14.084  0.00  0.00    -0.435 OA
ATOM     10  C   UNL     1      38.882 -24.208 -14.158  0.00  0.00    +0.179 C 
ATOM     11  C   UNL     1      38.458 -25.512 -14.046  0.00  0.00    +0.177 C 
ATOM     12  C   UNL     1      37.993 -23.153 -14.143  0.00  0.00    +0.078 C 
ATOM     13  C   UNL     1      36.634 -23.450 -14.011  0.00  0.00    +0.151 C 
ATOM     14  C   UNL     1      37.122 -25.833 -13.915  0.00  0.00    +0.043 C 
ATOM     15  C   UNL     1      40.614 -25.501 -14.229  0.00  0.00    +0.429 C 
ATOM     16  C   UNL     1      36.202 -24.783 -13.898  0.00  0.00    +0.041 C 
ENDBRANCH   7  13
ENDBRANCH   3   7
BRANCH   4  17
ATOM     17  O   UNL     1      33.970 -22.855 -18.262  0.00  0.00    -0.383 OA
BRANCH  17  21
ATOM     18  C   UNL     1      34.811 -19.342 -20.307  0.00  0.00    +0.057 C 
ATOM     19  C   UNL     1      35.852 -20.156 -19.862  0.00  0.00    +0.018 C 
ATOM     20  C   UNL     1      33.486 -19.708 -20.066  0.00  0.00    +0.018 C 
ATOM     21  C   UNL     1      34.249 -21.688 -18.942  0.00  0.00    +0.160 C 
ATOM     22  C   UNL     1      35.569 -21.336 -19.175  0.00  0.00    +0.040 C 
ATOM     23  C   UNL     1      33.204 -20.889 -19.379  0.00  0.00    +0.040 C 
BRANCH  18  24
ATOM     24  N   UNL     1      35.091 -18.171 -20.989  0.00  0.00    -0.246 N 
ATOM     25  N   UNL     1      35.592 -16.029 -21.344  0.00  0.00    -0.224 NA
ATOM     26  C   UNL     1      35.151 -18.012 -22.350  0.00  0.00    +0.092 C 
ATOM     27  C   UNL     1      35.364 -16.948 -20.432  0.00  0.00    +0.172 C 
ATOM     28  C   UNL     1      35.460 -16.686 -22.542  0.00  0.00    +0.117 C 
ENDBRANCH  18  24
ENDBRANCH  17  21
ENDBRANCH   4  17
TORSDOF 5
ENDMDL
MODEL 2
REMARK VINA RESULT:     -11.7      2.796      5.710
REMARK  Name = 9969613
REMARK  5 active torsions:
REMARK  status: ('A' for Active; 'I' for Inactive)
REMARK    1  A    between atoms: C_3  and  O_7
REMARK    2  A    between atoms: C_4  and  O_17
REMARK    3  A    between atoms: O_7  and  C_13
REMARK    4  A    between atoms: O_17  and  C_21
REMARK    5  A    between atoms: C_18  and  N_24
REMARK                            x       y       z     vdW  Elec       q    Type
REMARK                         _______ _______ _______ _____ _____    ______ ____
ROOT
ATOM      1  N   UNL     1      33.473 -22.750 -15.944  0.00  0.00    -0.283 NA
ATOM      2  N   UNL     1      35.826 -22.268 -16.154  0.00  0.00    -0.151 NA
ATOM      3  C   UNL     1      33.621 -22.635 -14.614  0.00  0.00    +0.296 C 
ATOM      4  C   UNL     1      34.606 -22.557 -16.647  0.00  0.00    +0.260 C 
ATOM      5  C   UNL     1      34.802 -22.346 -13.977  0.00  0.00    +0.094 C 
ATOM      6  C   UNL     1      35.888 -22.170 -14.809  0.00  0.00    +0.119 C 
ENDROOT
BRANCH   3   7
ATOM      7  O   UNL     1      32.483 -22.827 -13.848  0.00  0.00    -0.427 OA
BRANCH   7  13
ATOM      8  O   UNL     1      28.712 -21.473 -16.532  0.00  0.00    -0.435 OA
ATOM      9  O   UNL     1      27.789 -23.699 -16.511  0.00  0.00    -0.435 OA
ATOM     10  C   UNL     1      29.482 -22.345 -15.826  0.00  0.00    +0.179 C 
ATOM     11  C   UNL     1      28.956 -23.617 -15.815  0.00  0.00    +0.177 C 
ATOM     12  C   UNL     1      30.662 -22.043 -15.178  0.00  0.00    +0.078 C 
ATOM     13  C   UNL     1      31.315 -23.077 -14.502  0.00  0.00    +0.151 C 
ATOM     14  C   UNL     1      29.580 -24.656 -15.154  0.00  0.00    +0.043 C 
ATOM     15  C   UNL     1      27.642 -22.337 -16.963  0.00  0.00    +0.429 C 
ATOM     16  C   UNL     1      30.776 -24.375 -14.489  0.00  0.00    +0.041 C 
ENDBRANCH   7  13
ENDBRANCH   3   7
BRANCH   4  17
ATOM     17  O   UNL     1      34.505 -22.664 -18.015  0.00  0.00    -0.383 OA
BRANCH  17  21
ATOM     18  C   UNL     1      35.019 -19.190 -20.230  0.00  0.00    +0.057 C 
ATOM     19  C   UNL     1      33.734 -19.636 -19.919  0.00  0.00    +0.018 C 
ATOM     20  C   UNL     1      36.132 -19.913 -19.796  0.00  0.00    +0.018 C 
ATOM     21  C   UNL     1      34.676 -21.510 -18.750  0.00  0.00    +0.160 C 
ATOM     22  C   UNL     1      33.562 -20.803 -19.174  0.00  0.00    +0.040 C 
ATOM     23  C   UNL     1      35.959 -21.080 -19.052  0.00  0.00    +0.040 C 
BRANCH  18  24
ATOM     24  N   UNL     1      35.191 -18.034 -20.967  0.00  0.00    -0.246 N 
ATOM     25  N   UNL     1      35.494 -15.874 -21.427  0.00  0.00    -0.224 NA
ATOM     26  C   UNL     1      35.237 -17.935 -22.335  0.00  0.00    +0.092 C 
ATOM     27  C   UNL     1      35.351 -16.765 -20.471  0.00  0.00    +0.172 C 
ATOM     28  C   UNL     1      35.424 -16.597 -22.591  0.00  0.00    +0.117 C 
ENDBRANCH  18  24
ENDBRANCH  17  21
ENDBRANCH   4  17
TORSDOF 5
ENDMDL
MODEL 3
REMARK VINA RESULT:     -11.5      4.330      8.189
REMARK  Name = 9969613
REMARK  5 active torsions:
REMARK  status: ('A' for Active; 'I' for Inactive)
REMARK    1  A    between atoms: C_3  and  O_7
REMARK    2  A    between atoms: C_4  and  O_17
REMARK    3  A    between atoms: O_7  and  C_13
REMARK    4  A    between atoms: O_17  and  C_21
REMARK    5  A    between atoms: C_18  and  N_24
REMARK                            x       y       z     vdW  Elec       q    Type
REMARK                         _______ _______ _______ _____ _____    ______ ____
ROOT
ATOM      1  N   UNL     1      35.935 -16.920 -21.851  0.00  0.00    -0.283 NA
ATOM      2  N   UNL     1      34.707 -16.638 -23.906  0.00  0.00    -0.151 NA
ATOM      3  C   UNL     1      35.653 -18.231 -21.922  0.00  0.00    +0.296 C 
ATOM      4  C   UNL     1      35.436 -16.189 -22.866  0.00  0.00    +0.260 C 
ATOM      5  C   UNL     1      34.922 -18.824 -22.921  0.00  0.00    +0.094 C 
ATOM      6  C   UNL     1      34.468 -17.967 -23.902  0.00  0.00    +0.119 C 
ENDROOT
BRANCH   3   7
ATOM      7  O   UNL     1      36.145 -19.025 -20.899  0.00  0.00    -0.427 OA
BRANCH   7  13
ATOM      8  O   UNL     1      34.985 -22.251 -17.508  0.00  0.00    -0.435 OA
ATOM      9  O   UNL     1      32.633 -21.792 -17.754  0.00  0.00    -0.435 OA
ATOM     10  C   UNL     1      34.740 -21.301 -18.451  0.00  0.00    +0.179 C 
ATOM     11  C   UNL     1      33.396 -21.038 -18.591  0.00  0.00    +0.177 C 
ATOM     12  C   UNL     1      35.690 -20.646 -19.207  0.00  0.00    +0.078 C 
ATOM     13  C   UNL     1      35.244 -19.697 -20.130  0.00  0.00    +0.151 C 
ATOM     14  C   UNL     1      32.929 -20.107 -19.496  0.00  0.00    +0.043 C 
ATOM     15  C   UNL     1      33.646 -22.557 -17.070  0.00  0.00    +0.429 C 
ATOM     16  C   UNL     1      33.872 -19.430 -20.275  0.00  0.00    +0.041 C 
ENDBRANCH   7  13
ENDBRANCH   3   7
BRANCH   4  17
ATOM     17  O   UNL     1      35.700 -14.839 -22.839  0.00  0.00    -0.383 OA
BRANCH  17  21
ATOM     18  C   UNL     1      32.956 -12.413 -20.886  0.00  0.00    +0.057 C 
ATOM     19  C   UNL     1      33.607 -13.430 -20.189  0.00  0.00    +0.018 C 
ATOM     20  C   UNL     1      33.227 -12.211 -22.240  0.00  0.00    +0.018 C 
ATOM     21  C   UNL     1      34.789 -14.033 -22.190  0.00  0.00    +0.160 C 
ATOM     22  C   UNL     1      34.530 -14.245 -20.845  0.00  0.00    +0.040 C 
ATOM     23  C   UNL     1      34.149 -13.026 -22.895  0.00  0.00    +0.040 C 
BRANCH  18  24
ATOM     24  N   UNL     1      32.042 -11.605 -20.236  0.00  0.00    -0.246 N 
ATOM     25  N   UNL     1      30.404 -10.123 -19.937  0.00  0.00    -0.224 NA
ATOM     26  C   UNL     1      31.860 -11.502 -18.880  0.00  0.00    +0.092 C 
ATOM     27  C   UNL     1      31.140 -10.755 -20.824  0.00  0.00    +0.172 C 
ATOM     28  C   UNL     1      30.848 -10.584 -18.723  0.00  0.00    +0.117 C 
ENDBRANCH  18  24
ENDBRANCH  17  21
ENDBRANCH   4  17
TORSDOF 5
ENDMDL
MODEL 4
REMARK VINA RESULT:     -10.6      5.189     11.099
REMARK  Name = 9969613
REMARK  5 active torsions:
REMARK  status: ('A' for Active; 'I' for Inactive)
REMARK    1  A    between atoms: C_3  and  O_7
REMARK    2  A    between atoms: C_4  and  O_17
REMARK    3  A    between atoms: O_7  and  C_13
REMARK    4  A    between atoms: O_17  and  C_21
REMARK    5  A    between atoms: C_18  and  N_24
REMARK                            x       y       z     vdW  Elec       q    Type
REMARK                         _______ _______ _______ _____ _____    ______ ____
ROOT
ATOM      1  N   UNL     1      35.701 -15.345 -22.506  0.00  0.00    -0.283 NA
ATOM      2  N   UNL     1      34.909 -17.200 -23.825  0.00  0.00    -0.151 NA
ATOM      3  C   UNL     1      34.808 -14.574 -23.147  0.00  0.00    +0.296 C 
ATOM      4  C   UNL     1      35.698 -16.636 -22.891  0.00  0.00    +0.260 C 
ATOM      5  C   UNL     1      33.943 -15.015 -24.117  0.00  0.00    +0.094 C 
ATOM      6  C   UNL     1      34.039 -16.357 -24.421  0.00  0.00    +0.119 C 
ENDROOT
BRANCH   3   7
ATOM      7  O   UNL     1      34.774 -13.237 -22.785  0.00  0.00    -0.427 OA
BRANCH   7  13
ATOM      8  O   UNL     1      31.284 -10.290 -21.240  0.00  0.00    -0.435 OA
ATOM      9  O   UNL     1      30.969 -11.578 -19.228  0.00  0.00    -0.435 OA
ATOM     10  C   UNL     1      32.122 -11.360 -21.175  0.00  0.00    +0.179 C 
ATOM     11  C   UNL     1      31.942 -12.097 -20.026  0.00  0.00    +0.177 C 
ATOM     12  C   UNL     1      33.062 -11.712 -22.122  0.00  0.00    +0.078 C 
ATOM     13  C   UNL     1      33.834 -12.851 -21.878  0.00  0.00    +0.151 C 
ATOM     14  C   UNL     1      32.692 -13.224 -19.761  0.00  0.00    +0.043 C 
ATOM     15  C   UNL     1      30.556 -10.435 -20.005  0.00  0.00    +0.429 C 
ATOM     16  C   UNL     1      33.651 -13.601 -20.705  0.00  0.00    +0.041 C 
ENDBRANCH   7  13
ENDBRANCH   3   7
BRANCH   4  17
ATOM     17  O   UNL     1      36.596 -17.466 -22.262  0.00  0.00    -0.383 OA
BRANCH  17  21
ATOM     18  C   UNL     1      35.082 -20.108 -19.441  0.00  0.00    +0.057 C 
ATOM     19  C   UNL     1      36.445 -19.813 -19.460  0.00  0.00    +0.018 C 
ATOM     20  C   UNL     1      34.227 -19.515 -20.371  0.00  0.00    +0.018 C 
ATOM     21  C   UNL     1      36.093 -18.343 -21.326  0.00  0.00    +0.160 C 
ATOM     22  C   UNL     1      36.953 -18.925 -20.408  0.00  0.00    +0.040 C 
ATOM     23  C   UNL     1      34.736 -18.627 -21.319  0.00  0.00    +0.040 C 
BRANCH  18  24
ATOM     24  N   UNL     1      34.577 -20.988 -18.502  0.00  0.00    -0.246 N 
ATOM     25  N   UNL     1      34.530 -22.445 -16.816  0.00  0.00    -0.224 NA
ATOM     26  C   UNL     1      33.259 -21.322 -18.320  0.00  0.00    +0.092 C 
ATOM     27  C   UNL     1      35.298 -21.691 -17.570  0.00  0.00    +0.172 C 
ATOM     28  C   UNL     1      33.257 -22.220 -17.278  0.00  0.00    +0.117 C 
ENDBRANCH  18  24
ENDBRANCH  17  21
ENDBRANCH   4  17
TORSDOF 5
ENDMDL
MODEL 5
REMARK VINA RESULT:     -10.6      3.231      5.635
REMARK  Name = 9969613
REMARK  5 active torsions:
REMARK  status: ('A' for Active; 'I' for Inactive)
REMARK    1  A    between atoms: C_3  and  O_7
REMARK    2  A    between atoms: C_4  and  O_17
REMARK    3  A    between atoms: O_7  and  C_13
REMARK    4  A    between atoms: O_17  and  C_21
REMARK    5  A    between atoms: C_18  and  N_24
REMARK                            x       y       z     vdW  Elec       q    Type
REMARK                         _______ _______ _______ _____ _____    ______ ____
ROOT
ATOM      1  N   UNL     1      35.684 -20.388 -19.003  0.00  0.00    -0.283 NA
ATOM      2  N   UNL     1      34.036 -19.276 -20.365  0.00  0.00    -0.151 NA
ATOM      3  C   UNL     1      34.710 -21.214 -18.588  0.00  0.00    +0.296 C 
ATOM      4  C   UNL     1      35.281 -19.452 -19.883  0.00  0.00    +0.260 C 
ATOM      5  C   UNL     1      33.401 -21.150 -18.995  0.00  0.00    +0.094 C 
ATOM      6  C   UNL     1      33.116 -20.147 -19.898  0.00  0.00    +0.119 C 
ENDROOT
BRANCH   3   7
ATOM      7  O   UNL     1      35.076 -22.194 -17.681  0.00  0.00    -0.427 OA
BRANCH   7  13
ATOM      8  O   UNL     1      30.757 -22.655 -15.586  0.00  0.00    -0.435 OA
ATOM      9  O   UNL     1      31.749 -22.947 -13.410  0.00  0.00    -0.435 OA
ATOM     10  C   UNL     1      32.116 -22.603 -15.626  0.00  0.00    +0.179 C 
ATOM     11  C   UNL     1      32.683 -22.771 -14.383  0.00  0.00    +0.177 C 
ATOM     12  C   UNL     1      32.887 -22.407 -16.754  0.00  0.00    +0.078 C 
ATOM     13  C   UNL     1      34.275 -22.384 -16.596  0.00  0.00    +0.151 C 
ATOM     14  C   UNL     1      34.051 -22.751 -14.200  0.00  0.00    +0.043 C 
ATOM     15  C   UNL     1      30.531 -22.874 -14.180  0.00  0.00    +0.429 C 
ATOM     16  C   UNL     1      34.853 -22.554 -15.326  0.00  0.00    +0.041 C 
ENDBRANCH   7  13
ENDBRANCH   3   7
BRANCH   4  17
ATOM     17  O   UNL     1      36.245 -18.582 -20.339  0.00  0.00    -0.383 OA
BRANCH  17  21
ATOM     18  C   UNL     1      34.939 -15.191 -22.345  0.00  0.00    +0.057 C 
ATOM     19  C   UNL     1      35.362 -16.308 -23.066  0.00  0.00    +0.018 C 
ATOM     20  C   UNL     1      34.955 -15.213 -20.950  0.00  0.00    +0.018 C 
ATOM     21  C   UNL     1      35.811 -17.456 -21.005  0.00  0.00    +0.160 C 
ATOM     22  C   UNL     1      35.800 -17.447 -22.391  0.00  0.00    +0.040 C 
ATOM     23  C   UNL     1      35.394 -16.353 -20.276  0.00  0.00    +0.040 C 
BRANCH  18  24
ATOM     24  N   UNL     1      34.504 -14.061 -23.013  0.00  0.00    -0.246 N 
ATOM     25  N   UNL     1      33.611 -12.794 -24.615  0.00  0.00    -0.224 NA
ATOM     26  C   UNL     1      34.577 -12.767 -22.564  0.00  0.00    +0.092 C 
ATOM     27  C   UNL     1      33.915 -14.020 -24.251  0.00  0.00    +0.172 C 
ATOM     28  C   UNL     1      34.021 -12.008 -23.567  0.00  0.00    +0.117 C 
ENDBRANCH  18  24
ENDBRANCH  17  21
ENDBRANCH   4  17
TORSDOF 5
ENDMDL
MODEL 6
REMARK VINA RESULT:     -10.5      5.484      9.292
REMARK  Name = 9969613
REMARK  5 active torsions:
REMARK  status: ('A' for Active; 'I' for Inactive)
REMARK    1  A    between atoms: C_3  and  O_7
REMARK    2  A    between atoms: C_4  and  O_17
REMARK    3  A    between atoms: O_7  and  C_13
REMARK    4  A    between atoms: O_17  and  C_21
REMARK    5  A    between atoms: C_18  and  N_24
REMARK                            x       y       z     vdW  Elec       q    Type
REMARK                         _______ _______ _______ _____ _____    ______ ____
ROOT
ATOM      1  N   UNL     1      35.012 -15.878 -22.492  0.00  0.00    -0.283 NA
ATOM      2  N   UNL     1      34.580 -14.090 -20.934  0.00  0.00    -0.151 NA
ATOM      3  C   UNL     1      35.379 -16.634 -21.444  0.00  0.00    +0.296 C 
ATOM      4  C   UNL     1      34.627 -14.628 -22.168  0.00  0.00    +0.260 C 
ATOM      5  C   UNL     1      35.380 -16.216 -20.137  0.00  0.00    +0.094 C 
ATOM      6  C   UNL     1      34.965 -14.916 -19.937  0.00  0.00    +0.119 C 
ENDROOT
BRANCH   3   7
ATOM      7  O   UNL     1      35.782 -17.928 -21.728  0.00  0.00    -0.427 OA
BRANCH   7  13
ATOM      8  O   UNL     1      33.044 -20.847 -19.038  0.00  0.00    -0.435 OA
ATOM      9  O   UNL     1      34.964 -21.707 -17.864  0.00  0.00    -0.435 OA
ATOM     10  C   UNL     1      34.207 -20.285 -19.467  0.00  0.00    +0.179 C 
ATOM     11  C   UNL     1      35.304 -20.777 -18.797  0.00  0.00    +0.177 C 
ATOM     12  C   UNL     1      34.328 -19.329 -20.455  0.00  0.00    +0.078 C 
ATOM     13  C   UNL     1      35.613 -18.870 -20.760  0.00  0.00    +0.151 C 
ATOM     14  C   UNL     1      36.583 -20.340 -19.078  0.00  0.00    +0.043 C 
ATOM     15  C   UNL     1      33.531 -21.747 -18.023  0.00  0.00    +0.429 C 
ATOM     16  C   UNL     1      36.733 -19.372 -20.075  0.00  0.00    +0.041 C 
ENDBRANCH   7  13
ENDBRANCH   3   7
BRANCH   4  17
ATOM     17  O   UNL     1      34.241 -13.815 -23.208  0.00  0.00    -0.383 OA
BRANCH  17  21
ATOM     18  C   UNL     1      32.872 -10.019 -22.237  0.00  0.00    +0.057 C 
ATOM     19  C   UNL     1      32.319 -11.139 -21.618  0.00  0.00    +0.018 C 
ATOM     20  C   UNL     1      33.887 -10.174 -23.182  0.00  0.00    +0.018 C 
ATOM     21  C   UNL     1      33.787 -12.554 -22.885  0.00  0.00    +0.160 C 
ATOM     22  C   UNL     1      32.779 -12.415 -21.944  0.00  0.00    +0.040 C 
ATOM     23  C   UNL     1      34.347 -11.450 -23.508  0.00  0.00    +0.040 C 
BRANCH  18  24
ATOM     24  N   UNL     1      32.417  -8.754 -21.913  0.00  0.00    -0.246 N 
ATOM     25  N   UNL     1      31.946  -6.952 -20.689  0.00  0.00    -0.224 NA
ATOM     26  C   UNL     1      31.846  -7.847 -22.769  0.00  0.00    +0.092 C 
ATOM     27  C   UNL     1      32.454  -8.164 -20.675  0.00  0.00    +0.172 C 
ATOM     28  C   UNL     1      31.564  -6.748 -21.992  0.00  0.00    +0.117 C 
ENDBRANCH  18  24
ENDBRANCH  17  21
ENDBRANCH   4  17
TORSDOF 5
ENDMDL
MODEL 7
REMARK VINA RESULT:     -10.3      4.326     10.366
REMARK  Name = 9969613
REMARK  5 active torsions:
REMARK  status: ('A' for Active; 'I' for Inactive)
REMARK    1  A    between atoms: C_3  and  O_7
REMARK    2  A    between atoms: C_4  and  O_17
REMARK    3  A    between atoms: O_7  and  C_13
REMARK    4  A    between atoms: O_17  and  C_21
REMARK    5  A    between atoms: C_18  and  N_24
REMARK                            x       y       z     vdW  Elec       q    Type
REMARK                         _______ _______ _______ _____ _____    ______ ____
ROOT
ATOM      1  N   UNL     1      34.693 -17.734 -20.237  0.00  0.00    -0.283 NA
ATOM      2  N   UNL     1      35.188 -18.963 -22.251  0.00  0.00    -0.151 NA
ATOM      3  C   UNL     1      35.266 -16.664 -20.810  0.00  0.00    +0.296 C 
ATOM      4  C   UNL     1      34.688 -18.840 -21.006  0.00  0.00    +0.260 C 
ATOM      5  C   UNL     1      35.814 -16.646 -22.068  0.00  0.00    +0.094 C 
ATOM      6  C   UNL     1      35.746 -17.841 -22.753  0.00  0.00    +0.119 C 
ENDROOT
BRANCH   3   7
ATOM      7  O   UNL     1      35.295 -15.502 -20.056  0.00  0.00    -0.427 OA
BRANCH   7  13
ATOM      8  O   UNL     1      31.730 -12.269 -19.745  0.00  0.00    -0.435 OA
ATOM      9  O   UNL     1      32.395 -11.209 -21.804  0.00  0.00    -0.435 OA
ATOM     10  C   UNL     1      32.816 -12.867 -20.306  0.00  0.00    +0.179 C 
ATOM     11  C   UNL     1      33.197 -12.261 -21.482  0.00  0.00    +0.177 C 
ATOM     12  C   UNL     1      33.495 -13.955 -19.797  0.00  0.00    +0.078 C 
ATOM     13  C   UNL     1      34.593 -14.430 -20.519  0.00  0.00    +0.151 C 
ATOM     14  C   UNL     1      34.277 -12.711 -22.214  0.00  0.00    +0.043 C 
ATOM     15  C   UNL     1      31.469 -11.221 -20.698  0.00  0.00    +0.429 C 
ATOM     16  C   UNL     1      34.981 -13.812 -21.720  0.00  0.00    +0.041 C 
ENDBRANCH   7  13
ENDBRANCH   3   7
BRANCH   4  17
ATOM     17  O   UNL     1      34.111 -19.964 -20.462  0.00  0.00    -0.383 OA
BRANCH  17  21
ATOM     18  C   UNL     1      35.898 -21.560 -17.072  0.00  0.00    +0.057 C 
ATOM     19  C   UNL     1      34.529 -21.723 -17.281  0.00  0.00    +0.018 C 
ATOM     20  C   UNL     1      36.667 -20.860 -18.002  0.00  0.00    +0.018 C 
ATOM     21  C   UNL     1      34.705 -20.494 -19.336  0.00  0.00    +0.160 C 
ATOM     22  C   UNL     1      33.929 -21.187 -18.420  0.00  0.00    +0.040 C 
ATOM     23  C   UNL     1      36.066 -20.324 -19.141  0.00  0.00    +0.040 C 
BRANCH  18  24
ATOM     24  N   UNL     1      36.494 -22.091 -15.943  0.00  0.00    -0.246 N 
ATOM     25  N   UNL     1      38.045 -22.504 -14.396  0.00  0.00    -0.224 NA
ATOM     26  C   UNL     1      35.920 -22.956 -15.046  0.00  0.00    +0.092 C 
ATOM     27  C   UNL     1      37.772 -21.852 -15.505  0.00  0.00    +0.172 C 
ATOM     28  C   UNL     1      36.895 -23.194 -14.105  0.00  0.00    +0.117 C 
ENDBRANCH  18  24
ENDBRANCH  17  21
ENDBRANCH   4  17
TORSDOF 5
ENDMDL
MODEL 8
REMARK VINA RESULT:     -10.3      2.872      5.261
REMARK  Name = 9969613
REMARK  5 active torsions:
REMARK  status: ('A' for Active; 'I' for Inactive)
REMARK    1  A    between atoms: C_3  and  O_7
REMARK    2  A    between atoms: C_4  and  O_17
REMARK    3  A    between atoms: O_7  and  C_13
REMARK    4  A    between atoms: O_17  and  C_21
REMARK    5  A    between atoms: C_18  and  N_24
REMARK                            x       y       z     vdW  Elec       q    Type
REMARK                         _______ _______ _______ _____ _____    ______ ____
ROOT
ATOM      1  N   UNL     1      35.154 -22.331 -17.449  0.00  0.00    -0.283 NA
ATOM      2  N   UNL     1      36.885 -20.654 -17.422  0.00  0.00    -0.151 NA
ATOM      3  C   UNL     1      35.320 -22.451 -16.122  0.00  0.00    +0.296 C 
ATOM      4  C   UNL     1      35.961 -21.423 -18.030  0.00  0.00    +0.260 C 
ATOM      5  C   UNL     1      36.221 -21.734 -15.376  0.00  0.00    +0.094 C 
ATOM      6  C   UNL     1      36.989 -20.837 -16.088  0.00  0.00    +0.119 C 
ENDROOT
BRANCH   3   7
ATOM      7  O   UNL     1      34.511 -23.374 -15.480  0.00  0.00    -0.427 OA
BRANCH   7  13
ATOM      8  O   UNL     1      30.006 -22.135 -16.673  0.00  0.00    -0.435 OA
ATOM      9  O   UNL     1      29.383 -21.844 -14.364  0.00  0.00    -0.435 OA
ATOM     10  C   UNL     1      31.037 -22.391 -15.824  0.00  0.00    +0.179 C 
ATOM     11  C   UNL     1      30.682 -22.226 -14.504  0.00  0.00    +0.177 C 
ATOM     12  C   UNL     1      32.311 -22.775 -16.189  0.00  0.00    +0.078 C 
ATOM     13  C   UNL     1      33.241 -22.994 -15.168  0.00  0.00    +0.151 C 
ATOM     14  C   UNL     1      31.580 -22.435 -13.478  0.00  0.00    +0.043 C 
ATOM     15  C   UNL     1      28.961 -21.790 -15.742  0.00  0.00    +0.429 C 
ATOM     16  C   UNL     1      32.878 -22.823 -13.821  0.00  0.00    +0.041 C 
ENDBRANCH   7  13
ENDBRANCH   3   7
BRANCH   4  17
ATOM     17  O   UNL     1      35.828 -21.263 -19.390  0.00  0.00    -0.383 OA
BRANCH  17  21
ATOM     18  C   UNL     1      35.348 -17.389 -20.802  0.00  0.00    +0.057 C 
ATOM     19  C   UNL     1      36.628 -17.900 -20.590  0.00  0.00    +0.018 C 
ATOM     20  C   UNL     1      34.228 -18.180 -20.540  0.00  0.00    +0.018 C 
ATOM     21  C   UNL     1      35.668 -19.977 -19.859  0.00  0.00    +0.160 C 
ATOM     22  C   UNL     1      36.789 -19.202 -20.115  0.00  0.00    +0.040 C 
ATOM     23  C   UNL     1      34.390 -19.482 -20.066  0.00  0.00    +0.040 C 
BRANCH  18  24
ATOM     24  N   UNL     1      35.187 -16.099 -21.273  0.00  0.00    -0.246 N 
ATOM     25  N   UNL     1      34.841 -13.897 -21.258  0.00  0.00    -0.224 NA
ATOM     26  C   UNL     1      35.246 -15.693 -22.582  0.00  0.00    +0.092 C 
ATOM     27  C   UNL     1      34.942 -14.979 -20.519  0.00  0.00    +0.172 C 
ATOM     28  C   UNL     1      35.029 -14.335 -22.546  0.00  0.00    +0.117 C 
ENDBRANCH  18  24
ENDBRANCH  17  21
ENDBRANCH   4  17
TORSDOF 5
ENDMDL
MODEL 9
REMARK VINA RESULT:     -10.3      4.501     10.465
REMARK  Name = 9969613
REMARK  5 active torsions:
REMARK  status: ('A' for Active; 'I' for Inactive)
REMARK    1  A    between atoms: C_3  and  O_7
REMARK    2  A    between atoms: C_4  and  O_17
REMARK    3  A    between atoms: O_7  and  C_13
REMARK    4  A    between atoms: O_17  and  C_21
REMARK    5  A    between atoms: C_18  and  N_24
REMARK                            x       y       z     vdW  Elec       q    Type
REMARK                         _______ _______ _______ _____ _____    ______ ____
ROOT
ATOM      1  N   UNL     1      35.849 -17.425 -20.132  0.00  0.00    -0.283 NA
ATOM      2  N   UNL     1      35.728 -18.455 -22.308  0.00  0.00    -0.151 NA
ATOM      3  C   UNL     1      35.358 -16.307 -20.690  0.00  0.00    +0.296 C 
ATOM      4  C   UNL     1      36.007 -18.451 -20.990  0.00  0.00    +0.260 C 
ATOM      5  C   UNL     1      35.030 -16.170 -22.016  0.00  0.00    +0.094 C 
ATOM      6  C   UNL     1      35.239 -17.293 -22.790  0.00  0.00    +0.119 C 
ENDROOT
BRANCH   3   7
ATOM      7  O   UNL     1      35.177 -15.223 -19.847  0.00  0.00    -0.427 OA
BRANCH   7  13
ATOM      8  O   UNL     1      34.249 -11.427 -22.672  0.00  0.00    -0.435 OA
ATOM      9  O   UNL     1      32.074 -11.114 -21.683  0.00  0.00    -0.435 OA
ATOM     10  C   UNL     1      33.985 -12.346 -21.703  0.00  0.00    +0.179 C 
ATOM     11  C   UNL     1      32.742 -12.168 -21.139  0.00  0.00    +0.177 C 
ATOM     12  C   UNL     1      34.829 -13.359 -21.296  0.00  0.00    +0.078 C 
ATOM     13  C   UNL     1      34.380 -14.209 -20.281  0.00  0.00    +0.151 C 
ATOM     14  C   UNL     1      32.276 -12.993 -20.135  0.00  0.00    +0.043 C 
ATOM     15  C   UNL     1      33.035 -10.651 -22.654  0.00  0.00    +0.429 C 
ATOM     16  C   UNL     1      33.111 -14.026 -19.704  0.00  0.00    +0.041 C 
ENDBRANCH   7  13
ENDBRANCH   3   7
BRANCH   4  17
ATOM     17  O   UNL     1      36.507 -19.620 -20.465  0.00  0.00    -0.383 OA
BRANCH  17  21
ATOM     18  C   UNL     1      34.193 -21.555 -17.613  0.00  0.00    +0.057 C 
ATOM     19  C   UNL     1      33.585 -20.962 -18.719  0.00  0.00    +0.018 C 
ATOM     20  C   UNL     1      35.580 -21.498 -17.465  0.00  0.00    +0.018 C 
ATOM     21  C   UNL     1      35.739 -20.263 -19.517  0.00  0.00    +0.160 C 
ATOM     22  C   UNL     1      34.363 -20.312 -19.677  0.00  0.00    +0.040 C 
ATOM     23  C   UNL     1      36.357 -20.848 -18.424  0.00  0.00    +0.040 C 
BRANCH  18  24
ATOM     24  N   UNL     1      33.423 -22.200 -16.663  0.00  0.00    -0.246 N 
ATOM     25  N   UNL     1      32.902 -23.392 -14.853  0.00  0.00    -0.224 NA
ATOM     26  C   UNL     1      32.054 -22.265 -16.627  0.00  0.00    +0.092 C 
ATOM     27  C   UNL     1      33.883 -22.894 -15.572  0.00  0.00    +0.172 C 
ATOM     28  C   UNL     1      31.759 -23.004 -15.506  0.00  0.00    +0.117 C 
ENDBRANCH  18  24
ENDBRANCH  17  21
ENDBRANCH   4  17
TORSDOF 5
ENDMDL
