MODEL 1
REMARK VINA RESULT:     -13.1      0.000      0.000
REMARK  Name = 10389239
REMARK  2 active torsions:
REMARK  status: ('A' for Active; 'I' for Inactive)
REMARK    1  A    between atoms: C_2  and  C_14
REMARK    2  A    between atoms: C_4  and  C_20
REMARK                            x       y       z     vdW  Elec       q    Type
REMARK                         _______ _______ _______ _____ _____    ______ ____
ROOT
ATOM      1  N   UNL     1      32.481 -21.830 -17.503  0.00  0.00    -0.244 NA
ATOM      2  C   UNL     1      34.381 -22.836 -15.718  0.00  0.00    +0.016 C 
ATOM      3  C   UNL     1      34.780 -22.032 -16.779  0.00  0.00    +0.020 C 
ATOM      4  C   UNL     1      33.799 -21.559 -17.636  0.00  0.00    +0.083 C 
ATOM      5  C   UNL     1      33.035 -23.139 -15.547  0.00  0.00    +0.022 C 
ATOM      6  C   UNL     1      32.133 -22.614 -16.459  0.00  0.00    +0.099 C 
ENDROOT
BRANCH   2  14
ATOM      7  O   UNL     1      36.180 -24.822 -10.791  0.00  0.00    -0.270 OA
ATOM      8  N   UNL     1      36.690 -23.458 -15.126  0.00  0.00    -0.316 N 
ATOM      9  N   UNL     1      38.249 -25.179 -11.757  0.00  0.00    -0.300 N 
ATOM     10  C   UNL     1      37.372 -23.976 -14.063  0.00  0.00    +0.031 C 
ATOM     11  C   UNL     1      38.832 -24.221 -13.996  0.00  0.00    +0.063 C 
ATOM     12  C   UNL     1      36.480 -24.216 -13.040  0.00  0.00    +0.064 C 
ATOM     13  C   UNL     1      39.076 -25.325 -12.961  0.00  0.00    +0.096 C 
ATOM     14  C   UNL     1      35.361 -23.356 -14.794  0.00  0.00    +0.048 C 
ATOM     15  C   UNL     1      35.203 -23.814 -13.501  0.00  0.00    +0.020 C 
ATOM     16  C   UNL     1      36.919 -24.760 -11.769  0.00  0.00    +0.247 C 
ATOM     17  H   UNL     1      37.086 -23.201 -15.990  0.00  0.00    +0.152 HD
ATOM     18  H   UNL     1      38.660 -25.390 -10.887  0.00  0.00    +0.150 HD
ENDBRANCH   2  14
BRANCH   4  20
ATOM     19  N   UNL     1      33.435 -19.556 -20.757  0.00  0.00    -0.244 NA
ATOM     20  C   UNL     1      34.137 -20.718 -18.760  0.00  0.00    +0.037 C 
ATOM     21  C   UNL     1      35.433 -20.262 -18.953  0.00  0.00    +0.005 C 
ATOM     22  C   UNL     1      35.737 -19.447 -20.052  0.00  0.00    +0.018 C 
ATOM     23  C   UNL     1      34.693 -19.114 -20.942  0.00  0.00    +0.081 C 
ATOM     24  C   UNL     1      33.183 -20.340 -19.684  0.00  0.00    +0.100 C 
ATOM     25  C   UNL     1      37.039 -18.967 -20.275  0.00  0.00    +0.001 C 
ATOM     26  C   UNL     1      34.996 -18.305 -22.033  0.00  0.00    +0.019 C 
ATOM     27  C   UNL     1      37.313 -18.160 -21.375  0.00  0.00    +0.000 C 
ATOM     28  C   UNL     1      36.290 -17.828 -22.255  0.00  0.00    +0.002 C 
ENDBRANCH   4  20
TORSDOF 2
ENDMDL
MODEL 2
REMARK VINA RESULT:     -12.0      6.524     11.972
REMARK  Name = 10389239
REMARK  2 active torsions:
REMARK  status: ('A' for Active; 'I' for Inactive)
REMARK    1  A    between atoms: C_2  and  C_14
REMARK    2  A    between atoms: C_4  and  C_20
REMARK                            x       y       z     vdW  Elec       q    Type
REMARK                         _______ _______ _______ _____ _____    ______ ____
ROOT
ATOM      1  N   UNL     1      34.980 -17.089 -23.993  0.00  0.00    -0.244 NA
ATOM      2  C   UNL     1      34.262 -14.468 -23.342  0.00  0.00    +0.016 C 
ATOM      3  C   UNL     1      34.666 -15.348 -22.345  0.00  0.00    +0.020 C 
ATOM      4  C   UNL     1      35.012 -16.636 -22.719  0.00  0.00    +0.083 C 
ATOM      5  C   UNL     1      34.214 -14.896 -24.664  0.00  0.00    +0.022 C 
ATOM      6  C   UNL     1      34.581 -16.205 -24.934  0.00  0.00    +0.099 C 
ENDROOT
BRANCH   2  14
ATOM      7  O   UNL     1      34.431  -8.882 -23.813  0.00  0.00    -0.270 OA
ATOM      8  N   UNL     1      33.044 -12.829 -21.964  0.00  0.00    -0.316 N 
ATOM      9  N   UNL     1      32.743  -8.757 -22.239  0.00  0.00    -0.300 N 
ATOM     10  C   UNL     1      32.881 -11.476 -21.885  0.00  0.00    +0.031 C 
ATOM     11  C   UNL     1      32.068 -10.750 -20.881  0.00  0.00    +0.063 C 
ATOM     12  C   UNL     1      33.621 -10.882 -22.886  0.00  0.00    +0.064 C 
ATOM     13  C   UNL     1      31.658  -9.406 -21.492  0.00  0.00    +0.096 C 
ATOM     14  C   UNL     1      33.891 -13.114 -23.008  0.00  0.00    +0.048 C 
ATOM     15  C   UNL     1      34.269 -11.922 -23.594  0.00  0.00    +0.020 C 
ATOM     16  C   UNL     1      33.652  -9.440 -23.046  0.00  0.00    +0.247 C 
ATOM     17  H   UNL     1      32.623 -13.492 -21.371  0.00  0.00    +0.152 HD
ATOM     18  H   UNL     1      32.833  -7.780 -22.166  0.00  0.00    +0.150 HD
ENDBRANCH   2  14
BRANCH   4  20
ATOM     19  N   UNL     1      37.237 -18.604 -20.470  0.00  0.00    -0.244 NA
ATOM     20  C   UNL     1      35.442 -17.605 -21.739  0.00  0.00    +0.037 C 
ATOM     21  C   UNL     1      34.536 -18.457 -21.125  0.00  0.00    +0.005 C 
ATOM     22  C   UNL     1      34.978 -19.389 -20.176  0.00  0.00    +0.018 C 
ATOM     23  C   UNL     1      36.356 -19.430 -19.875  0.00  0.00    +0.081 C 
ATOM     24  C   UNL     1      36.770 -17.719 -21.380  0.00  0.00    +0.100 C 
ATOM     25  C   UNL     1      34.085 -20.266 -19.535  0.00  0.00    +0.001 C 
ATOM     26  C   UNL     1      36.793 -20.356 -18.933  0.00  0.00    +0.019 C 
ATOM     27  C   UNL     1      34.551 -21.183 -18.596  0.00  0.00    +0.000 C 
ATOM     28  C   UNL     1      35.907 -21.228 -18.295  0.00  0.00    +0.002 C 
ENDBRANCH   4  20
TORSDOF 2
ENDMDL
MODEL 3
REMARK VINA RESULT:     -11.9      1.630      2.327
REMARK  Name = 10389239
REMARK  2 active torsions:
REMARK  status: ('A' for Active; 'I' for Inactive)
REMARK    1  A    between atoms: C_2  and  C_14
REMARK    2  A    between atoms: C_4  and  C_20
REMARK                            x       y       z     vdW  Elec       q    Type
REMARK                         _______ _______ _______ _____ _____    ______ ____
ROOT
ATOM      1  N   UNL     1      33.597 -21.954 -18.137  0.00  0.00    -0.244 NA
ATOM      2  C   UNL     1      34.987 -22.547 -15.787  0.00  0.00    +0.016 C 
ATOM      3  C   UNL     1      35.528 -21.660 -16.711  0.00  0.00    +0.020 C 
ATOM      4  C   UNL     1      34.799 -21.400 -17.860  0.00  0.00    +0.083 C 
ATOM      5  C   UNL     1      33.754 -23.138 -16.035  0.00  0.00    +0.022 C 
ATOM      6  C   UNL     1      33.105 -22.810 -17.215  0.00  0.00    +0.099 C 
ENDROOT
BRANCH   2  14
ATOM      7  O   UNL     1      39.481 -23.990 -12.756  0.00  0.00    -0.270 OA
ATOM      8  N   UNL     1      35.074 -22.919 -13.353  0.00  0.00    -0.316 N 
ATOM      9  N   UNL     1      38.215 -23.692 -10.846  0.00  0.00    -0.300 N 
ATOM     10  C   UNL     1      35.997 -23.229 -12.396  0.00  0.00    +0.031 C 
ATOM     11  C   UNL     1      35.727 -23.422 -10.952  0.00  0.00    +0.063 C 
ATOM     12  C   UNL     1      37.231 -23.360 -12.997  0.00  0.00    +0.064 C 
ATOM     13  C   UNL     1      37.025 -23.136 -10.189  0.00  0.00    +0.096 C 
ATOM     14  C   UNL     1      35.704 -22.854 -14.572  0.00  0.00    +0.048 C 
ATOM     15  C   UNL     1      37.044 -23.130 -14.380  0.00  0.00    +0.020 C 
ATOM     16  C   UNL     1      38.412 -23.701 -12.226  0.00  0.00    +0.247 C 
ATOM     17  H   UNL     1      34.115 -22.765 -13.195  0.00  0.00    +0.152 HD
ATOM     18  H   UNL     1      38.916 -24.082 -10.276  0.00  0.00    +0.150 HD
ENDBRANCH   2  14
BRANCH   4  20
ATOM     19  N   UNL     1      37.114 -19.154 -19.726  0.00  0.00    -0.244 NA
ATOM     20  C   UNL     1      35.296 -20.490 -18.865  0.00  0.00    +0.037 C 
ATOM     21  C   UNL     1      34.492 -20.067 -19.913  0.00  0.00    +0.005 C 
ATOM     22  C   UNL     1      34.997 -19.184 -20.877  0.00  0.00    +0.018 C 
ATOM     23  C   UNL     1      36.332 -18.746 -20.743  0.00  0.00    +0.081 C 
ATOM     24  C   UNL     1      36.589 -20.007 -18.817  0.00  0.00    +0.100 C 
ATOM     25  C   UNL     1      34.209 -18.737 -21.952  0.00  0.00    +0.001 C 
ATOM     26  C   UNL     1      36.833 -17.868 -21.700  0.00  0.00    +0.019 C 
ATOM     27  C   UNL     1      34.736 -17.859 -22.895  0.00  0.00    +0.000 C 
ATOM     28  C   UNL     1      36.049 -17.424 -22.768  0.00  0.00    +0.002 C 
ENDBRANCH   4  20
TORSDOF 2
ENDMDL
MODEL 4
REMARK VINA RESULT:     -11.6      4.229      9.432
REMARK  Name = 10389239
REMARK  2 active torsions:
REMARK  status: ('A' for Active; 'I' for Inactive)
REMARK    1  A    between atoms: C_2  and  C_14
REMARK    2  A    between atoms: C_4  and  C_20
REMARK                            x       y       z     vdW  Elec       q    Type
REMARK                         _______ _______ _______ _____ _____    ______ ____
ROOT
ATOM      1  N   UNL     1      36.173 -21.435 -17.861  0.00  0.00    -0.244 NA
ATOM      2  C   UNL     1      35.639 -19.680 -19.969  0.00  0.00    +0.016 C 
ATOM      3  C   UNL     1      34.593 -20.213 -19.224  0.00  0.00    +0.020 C 
ATOM      4  C   UNL     1      34.911 -21.079 -18.190  0.00  0.00    +0.083 C 
ATOM      5  C   UNL     1      36.951 -20.023 -19.663  0.00  0.00    +0.022 C 
ATOM      6  C   UNL     1      37.162 -20.896 -18.608  0.00  0.00    +0.099 C 
ENDROOT
BRANCH   2  14
ATOM      7  O   UNL     1      33.875 -18.280 -25.106  0.00  0.00    -0.270 OA
ATOM      8  N   UNL     1      35.704 -17.442 -20.998  0.00  0.00    -0.316 N 
ATOM      9  N   UNL     1      34.254 -16.065 -24.568  0.00  0.00    -0.300 N 
ATOM     10  C   UNL     1      35.328 -16.839 -22.164  0.00  0.00    +0.031 C 
ATOM     11  C   UNL     1      35.537 -15.415 -22.518  0.00  0.00    +0.063 C 
ATOM     12  C   UNL     1      34.738 -17.781 -22.979  0.00  0.00    +0.064 C 
ATOM     13  C   UNL     1      34.474 -15.029 -23.553  0.00  0.00    +0.096 C 
ATOM     14  C   UNL     1      35.365 -18.772 -21.057  0.00  0.00    +0.048 C 
ATOM     15  C   UNL     1      34.769 -19.011 -22.280  0.00  0.00    +0.020 C 
ATOM     16  C   UNL     1      34.245 -17.433 -24.299  0.00  0.00    +0.247 C 
ATOM     17  H   UNL     1      36.144 -16.997 -20.239  0.00  0.00    +0.152 HD
ATOM     18  H   UNL     1      34.103 -15.776 -25.497  0.00  0.00    +0.150 HD
ENDBRANCH   2  14
BRANCH   4  20
ATOM     19  N   UNL     1      31.530 -22.075 -16.981  0.00  0.00    -0.244 NA
ATOM     20  C   UNL     1      33.878 -21.671 -17.374  0.00  0.00    +0.037 C 
ATOM     21  C   UNL     1      34.190 -22.388 -16.228  0.00  0.00    +0.005 C 
ATOM     22  C   UNL     1      33.170 -22.954 -15.451  0.00  0.00    +0.018 C 
ATOM     23  C   UNL     1      31.836 -22.770 -15.870  0.00  0.00    +0.081 C 
ATOM     24  C   UNL     1      32.543 -21.544 -17.703  0.00  0.00    +0.100 C 
ATOM     25  C   UNL     1      33.453 -23.687 -14.285  0.00  0.00    +0.001 C 
ATOM     26  C   UNL     1      30.823 -23.332 -15.098  0.00  0.00    +0.019 C 
ATOM     27  C   UNL     1      32.420 -24.239 -13.532  0.00  0.00    +0.000 C 
ATOM     28  C   UNL     1      31.104 -24.061 -13.939  0.00  0.00    +0.002 C 
ENDBRANCH   4  20
TORSDOF 2
ENDMDL
MODEL 5
REMARK VINA RESULT:     -11.4      4.594     10.161
REMARK  Name = 10389239
REMARK  2 active torsions:
REMARK  status: ('A' for Active; 'I' for Inactive)
REMARK    1  A    between atoms: C_2  and  C_14
REMARK    2  A    between atoms: C_4  and  C_20
REMARK                            x       y       z     vdW  Elec       q    Type
REMARK                         _______ _______ _______ _____ _____    ______ ____
ROOT
ATOM      1  N   UNL     1      36.938 -20.061 -19.611  0.00  0.00    -0.244 NA
ATOM      2  C   UNL     1      35.947 -17.974 -21.183  0.00  0.00    +0.016 C 
ATOM      3  C   UNL     1      35.087 -18.705 -20.372  0.00  0.00    +0.020 C 
ATOM      4  C   UNL     1      35.628 -19.729 -19.612  0.00  0.00    +0.083 C 
ATOM      5  C   UNL     1      37.302 -18.285 -21.211  0.00  0.00    +0.022 C 
ATOM      6  C   UNL     1      37.743 -19.328 -20.412  0.00  0.00    +0.099 C 
ENDROOT
BRANCH   2  14
ATOM      7  O   UNL     1      33.959 -15.644 -25.882  0.00  0.00    -0.270 OA
ATOM      8  N   UNL     1      35.356 -15.607 -21.527  0.00  0.00    -0.316 N 
ATOM      9  N   UNL     1      33.640 -13.682 -24.704  0.00  0.00    -0.300 N 
ATOM     10  C   UNL     1      34.843 -14.811 -22.510  0.00  0.00    +0.031 C 
ATOM     11  C   UNL     1      34.620 -13.349 -22.423  0.00  0.00    +0.063 C 
ATOM     12  C   UNL     1      34.583 -15.589 -23.619  0.00  0.00    +0.064 C 
ATOM     13  C   UNL     1      33.514 -12.983 -23.419  0.00  0.00    +0.096 C 
ATOM     14  C   UNL     1      35.436 -16.896 -21.996  0.00  0.00    +0.048 C 
ATOM     15  C   UNL     1      34.968 -16.912 -23.295  0.00  0.00    +0.020 C 
ATOM     16  C   UNL     1      34.038 -15.012 -24.833  0.00  0.00    +0.247 C 
ATOM     17  H   UNL     1      35.625 -15.308 -20.629  0.00  0.00    +0.152 HD
ATOM     18  H   UNL     1      33.430 -13.180 -25.524  0.00  0.00    +0.150 HD
ENDBRANCH   2  14
BRANCH   4  20
ATOM     19  N   UNL     1      32.605 -21.378 -18.188  0.00  0.00    -0.244 NA
ATOM     20  C   UNL     1      34.796 -20.531 -18.746  0.00  0.00    +0.037 C 
ATOM     21  C   UNL     1      35.333 -21.214 -17.665  0.00  0.00    +0.005 C 
ATOM     22  C   UNL     1      34.505 -21.986 -16.838  0.00  0.00    +0.018 C 
ATOM     23  C   UNL     1      33.128 -22.041 -17.140  0.00  0.00    +0.081 C 
ATOM     24  C   UNL     1      33.437 -20.644 -18.962  0.00  0.00    +0.100 C 
ATOM     25  C   UNL     1      35.018 -22.691 -15.735  0.00  0.00    +0.001 C 
ATOM     26  C   UNL     1      32.307 -22.807 -16.318  0.00  0.00    +0.019 C 
ATOM     27  C   UNL     1      34.173 -23.451 -14.930  0.00  0.00    +0.000 C 
ATOM     28  C   UNL     1      32.816 -23.508 -15.222  0.00  0.00    +0.002 C 
ENDBRANCH   4  20
TORSDOF 2
ENDMDL
MODEL 6
REMARK VINA RESULT:     -11.3      3.002      8.427
REMARK  Name = 10389239
REMARK  2 active torsions:
REMARK  status: ('A' for Active; 'I' for Inactive)
REMARK    1  A    between atoms: C_2  and  C_14
REMARK    2  A    between atoms: C_4  and  C_20
REMARK                            x       y       z     vdW  Elec       q    Type
REMARK                         _______ _______ _______ _____ _____    ______ ____
ROOT
ATOM      1  N   UNL     1      32.991 -22.775 -15.902  0.00  0.00    -0.244 NA
ATOM      2  C   UNL     1      34.061 -21.246 -17.982  0.00  0.00    +0.016 C 
ATOM      3  C   UNL     1      34.895 -21.765 -16.998  0.00  0.00    +0.020 C 
ATOM      4  C   UNL     1      34.315 -22.516 -15.988  0.00  0.00    +0.083 C 
ATOM      5  C   UNL     1      32.693 -21.489 -17.928  0.00  0.00    +0.022 C 
ATOM      6  C   UNL     1      32.213 -22.254 -16.877  0.00  0.00    +0.099 C 
ENDROOT
BRANCH   2  14
ATOM      7  O   UNL     1      33.954 -18.604 -22.928  0.00  0.00    -0.270 OA
ATOM      8  N   UNL     1      35.929 -20.065 -19.070  0.00  0.00    -0.316 N 
ATOM      9  N   UNL     1      36.088 -17.830 -22.494  0.00  0.00    -0.300 N 
ATOM     10  C   UNL     1      36.163 -19.340 -20.202  0.00  0.00    +0.031 C 
ATOM     11  C   UNL     1      37.461 -18.755 -20.614  0.00  0.00    +0.063 C 
ATOM     12  C   UNL     1      34.990 -19.255 -20.923  0.00  0.00    +0.064 C 
ATOM     13  C   UNL     1      37.168 -17.566 -21.536  0.00  0.00    +0.096 C 
ATOM     14  C   UNL     1      34.613 -20.456 -19.057  0.00  0.00    +0.048 C 
ATOM     15  C   UNL     1      34.008 -19.972 -20.199  0.00  0.00    +0.020 C 
ATOM     16  C   UNL     1      34.933 -18.549 -22.189  0.00  0.00    +0.247 C 
ATOM     17  H   UNL     1      36.595 -20.273 -18.376  0.00  0.00    +0.152 HD
ATOM     18  H   UNL     1      36.185 -17.477 -23.408  0.00  0.00    +0.150 HD
ENDBRANCH   2  14
BRANCH   4  20
ATOM     19  N   UNL     1      35.261 -23.950 -12.682  0.00  0.00    -0.244 NA
ATOM     20  C   UNL     1      35.118 -23.087 -14.932  0.00  0.00    +0.037 C 
ATOM     21  C   UNL     1      36.472 -23.327 -15.108  0.00  0.00    +0.005 C 
ATOM     22  C   UNL     1      37.231 -23.882 -14.068  0.00  0.00    +0.018 C 
ATOM     23  C   UNL     1      36.576 -24.181 -12.855  0.00  0.00    +0.081 C 
ATOM     24  C   UNL     1      34.565 -23.413 -13.709  0.00  0.00    +0.100 C 
ATOM     25  C   UNL     1      38.605 -24.138 -14.215  0.00  0.00    +0.001 C 
ATOM     26  C   UNL     1      37.329 -24.733 -11.823  0.00  0.00    +0.019 C 
ATOM     27  C   UNL     1      39.335 -24.690 -13.165  0.00  0.00    +0.000 C 
ATOM     28  C   UNL     1      38.696 -24.987 -11.968  0.00  0.00    +0.002 C 
ENDBRANCH   4  20
TORSDOF 2
ENDMDL
MODEL 7
REMARK VINA RESULT:     -11.2      2.881      8.785
REMARK  Name = 10389239
REMARK  2 active torsions:
REMARK  status: ('A' for Active; 'I' for Inactive)
REMARK    1  A    between atoms: C_2  and  C_14
REMARK    2  A    between atoms: C_4  and  C_20
REMARK                            x       y       z     vdW  Elec       q    Type
REMARK                         _______ _______ _______ _____ _____    ______ ____
ROOT
ATOM      1  N   UNL     1      33.861 -22.814 -16.243  0.00  0.00    -0.244 NA
ATOM      2  C   UNL     1      34.680 -21.098 -18.291  0.00  0.00    +0.016 C 
ATOM      3  C   UNL     1      35.535 -21.375 -17.231  0.00  0.00    +0.020 C 
ATOM      4  C   UNL     1      35.082 -22.231 -16.241  0.00  0.00    +0.083 C 
ATOM      5  C   UNL     1      33.416 -21.676 -18.330  0.00  0.00    +0.022 C 
ATOM      6  C   UNL     1      33.059 -22.520 -17.291  0.00  0.00    +0.099 C 
ENDROOT
BRANCH   2  14
ATOM      7  O   UNL     1      38.370 -18.018 -21.182  0.00  0.00    -0.270 OA
ATOM      8  N   UNL     1      34.211 -19.674 -20.246  0.00  0.00    -0.316 N 
ATOM      9  N   UNL     1      36.699 -17.557 -22.710  0.00  0.00    -0.300 N 
ATOM     10  C   UNL     1      34.891 -18.879 -21.122  0.00  0.00    +0.031 C 
ATOM     11  C   UNL     1      34.300 -18.091 -22.229  0.00  0.00    +0.063 C 
ATOM     12  C   UNL     1      36.231 -18.908 -20.797  0.00  0.00    +0.064 C 
ATOM     13  C   UNL     1      35.387 -17.877 -23.287  0.00  0.00    +0.096 C 
ATOM     14  C   UNL     1      35.102 -20.212 -19.350  0.00  0.00    +0.048 C 
ATOM     15  C   UNL     1      36.364 -19.749 -19.666  0.00  0.00    +0.020 C 
ATOM     16  C   UNL     1      37.207 -18.144 -21.552  0.00  0.00    +0.247 C 
ATOM     17  H   UNL     1      33.240 -19.835 -20.254  0.00  0.00    +0.152 HD
ATOM     18  H   UNL     1      37.253 -16.886 -23.170  0.00  0.00    +0.150 HD
ENDBRANCH   2  14
BRANCH   4  20
ATOM     19  N   UNL     1      38.124 -22.864 -14.185  0.00  0.00    -0.244 NA
ATOM     20  C   UNL     1      35.913 -22.565 -15.109  0.00  0.00    +0.037 C 
ATOM     21  C   UNL     1      35.358 -22.904 -13.884  0.00  0.00    +0.005 C 
ATOM     22  C   UNL     1      36.187 -23.224 -12.799  0.00  0.00    +0.018 C 
ATOM     23  C   UNL     1      37.583 -23.192 -12.997  0.00  0.00    +0.081 C 
ATOM     24  C   UNL     1      37.291 -22.561 -15.207  0.00  0.00    +0.100 C 
ATOM     25  C   UNL     1      35.656 -23.571 -11.545  0.00  0.00    +0.001 C 
ATOM     26  C   UNL     1      38.405 -23.510 -11.920  0.00  0.00    +0.019 C 
ATOM     27  C   UNL     1      36.502 -23.885 -10.484  0.00  0.00    +0.000 C 
ATOM     28  C   UNL     1      37.878 -23.855 -10.673  0.00  0.00    +0.002 C 
ENDBRANCH   4  20
TORSDOF 2
ENDMDL
MODEL 8
REMARK VINA RESULT:     -11.2      9.632     14.719
REMARK  Name = 10389239
REMARK  2 active torsions:
REMARK  status: ('A' for Active; 'I' for Inactive)
REMARK    1  A    between atoms: C_2  and  C_14
REMARK    2  A    between atoms: C_4  and  C_20
REMARK                            x       y       z     vdW  Elec       q    Type
REMARK                         _______ _______ _______ _____ _____    ______ ____
ROOT
ATOM      1  N   UNL     1      34.160 -11.756 -24.391  0.00  0.00    -0.244 NA
ATOM      2  C   UNL     1      33.436  -9.436 -23.011  0.00  0.00    +0.016 C 
ATOM      3  C   UNL     1      33.737 -10.598 -22.310  0.00  0.00    +0.020 C 
ATOM      4  C   UNL     1      34.091 -11.721 -23.041  0.00  0.00    +0.083 C 
ATOM      5  C   UNL     1      33.494  -9.431 -24.400  0.00  0.00    +0.022 C 
ATOM      6  C   UNL     1      33.860 -10.607 -25.037  0.00  0.00    +0.099 C 
ENDROOT
BRANCH   2  14
ATOM      7  O   UNL     1      32.317  -6.363 -18.454  0.00  0.00    -0.270 OA
ATOM      8  N   UNL     1      32.687  -7.090 -22.955  0.00  0.00    -0.316 N 
ATOM      9  N   UNL     1      32.070  -4.522 -19.829  0.00  0.00    -0.300 N 
ATOM     10  C   UNL     1      32.388  -6.131 -22.030  0.00  0.00    +0.031 C 
ATOM     11  C   UNL     1      31.915  -4.757 -22.318  0.00  0.00    +0.063 C 
ATOM     12  C   UNL     1      32.576  -6.658 -20.770  0.00  0.00    +0.064 C 
ATOM     13  C   UNL     1      32.294  -3.871 -21.126  0.00  0.00    +0.096 C 
ATOM     14  C   UNL     1      33.062  -8.237 -22.299  0.00  0.00    +0.048 C 
ATOM     15  C   UNL     1      32.995  -7.999 -20.941  0.00  0.00    +0.020 C 
ATOM     16  C   UNL     1      32.323  -5.870 -19.578  0.00  0.00    +0.247 C 
ATOM     17  H   UNL     1      32.643  -6.978 -23.932  0.00  0.00    +0.152 HD
ATOM     18  H   UNL     1      31.719  -3.973 -19.092  0.00  0.00    +0.150 HD
ENDBRANCH   2  14
BRANCH   4  20
ATOM     19  N   UNL     1      34.744 -14.192 -20.329  0.00  0.00    -0.244 NA
ATOM     20  C   UNL     1      34.417 -12.964 -22.383  0.00  0.00    +0.037 C 
ATOM     21  C   UNL     1      34.716 -14.106 -23.111  0.00  0.00    +0.005 C 
ATOM     22  C   UNL     1      35.030 -15.301 -22.449  0.00  0.00    +0.018 C 
ATOM     23  C   UNL     1      35.033 -15.299 -21.038  0.00  0.00    +0.081 C 
ATOM     24  C   UNL     1      34.446 -13.059 -21.005  0.00  0.00    +0.100 C 
ATOM     25  C   UNL     1      35.337 -16.476 -23.157  0.00  0.00    +0.001 C 
ATOM     26  C   UNL     1      35.345 -16.486 -20.381  0.00  0.00    +0.019 C 
ATOM     27  C   UNL     1      35.646 -17.650 -22.474  0.00  0.00    +0.000 C 
ATOM     28  C   UNL     1      35.650 -17.654 -21.085  0.00  0.00    +0.002 C 
ENDBRANCH   4  20
TORSDOF 2
ENDMDL
MODEL 9
REMARK VINA RESULT:     -11.2      9.046     13.092
REMARK  Name = 10389239
REMARK  2 active torsions:
REMARK  status: ('A' for Active; 'I' for Inactive)
REMARK    1  A    between atoms: C_2  and  C_14
REMARK    2  A    between atoms: C_4  and  C_20
REMARK                            x       y       z     vdW  Elec       q    Type
REMARK                         _______ _______ _______ _____ _____    ______ ____
ROOT
ATOM      1  N   UNL     1      33.509  -9.665 -24.871  0.00  0.00    -0.244 NA
ATOM      2  C   UNL     1      34.155 -12.055 -23.574  0.00  0.00    +0.016 C 
ATOM      3  C   UNL     1      33.842 -10.922 -22.832  0.00  0.00    +0.020 C 
ATOM      4  C   UNL     1      33.529  -9.762 -23.522  0.00  0.00    +0.083 C 
ATOM      5  C   UNL     1      34.147 -11.996 -24.963  0.00  0.00    +0.022 C 
ATOM      6  C   UNL     1      33.819 -10.787 -25.558  0.00  0.00    +0.099 C 
ENDROOT
BRANCH   2  14
ATOM      7  O   UNL     1      35.295 -15.294 -19.140  0.00  0.00    -0.270 OA
ATOM      8  N   UNL     1      34.762 -14.442 -23.602  0.00  0.00    -0.316 N 
ATOM      9  N   UNL     1      35.367 -17.114 -20.562  0.00  0.00    -0.300 N 
ATOM     10  C   UNL     1      35.045 -15.438 -22.712  0.00  0.00    +0.031 C 
ATOM     11  C   UNL     1      35.420 -16.832 -23.050  0.00  0.00    +0.063 C 
ATOM     12  C   UNL     1      34.948 -14.931 -21.434  0.00  0.00    +0.064 C 
ATOM     13  C   UNL     1      35.045 -17.721 -21.860  0.00  0.00    +0.096 C 
ATOM     14  C   UNL     1      34.488 -13.290 -22.906  0.00  0.00    +0.048 C 
ATOM     15  C   UNL     1      34.602 -13.564 -21.557  0.00  0.00    +0.020 C 
ATOM     16  C   UNL     1      35.207 -15.760 -20.272  0.00  0.00    +0.247 C 
ATOM     17  H   UNL     1      34.755 -14.534 -24.582  0.00  0.00    +0.152 HD
ATOM     18  H   UNL     1      35.718 -17.701 -19.853  0.00  0.00    +0.150 HD
ENDBRANCH   2  14
BRANCH   4  20
ATOM     19  N   UNL     1      32.682  -6.188 -22.897  0.00  0.00    -0.244 NA
ATOM     20  C   UNL     1      33.193  -8.547 -22.820  0.00  0.00    +0.037 C 
ATOM     21  C   UNL     1      33.056  -8.529 -21.439  0.00  0.00    +0.005 C 
ATOM     22  C   UNL     1      32.730  -7.336 -20.779  0.00  0.00    +0.018 C 
ATOM     23  C   UNL     1      32.550  -6.173 -21.558  0.00  0.00    +0.081 C 
ATOM     24  C   UNL     1      32.998  -7.359 -23.496  0.00  0.00    +0.100 C 
ATOM     25  C   UNL     1      32.583  -7.284 -19.382  0.00  0.00    +0.001 C 
ATOM     26  C   UNL     1      32.225  -4.990 -20.901  0.00  0.00    +0.019 C 
ATOM     27  C   UNL     1      32.259  -6.086 -18.752  0.00  0.00    +0.000 C 
ATOM     28  C   UNL     1      32.079  -4.937 -19.513  0.00  0.00    +0.002 C 
ENDBRANCH   4  20
TORSDOF 2
ENDMDL
