MODEL 1
REMARK VINA RESULT:     -13.1      0.000      0.000
REMARK  Name = 119057475
REMARK  5 active torsions:
REMARK  status: ('A' for Active; 'I' for Inactive)
REMARK    1  A    between atoms: N_1  and  C_22
REMARK    2  A    between atoms: C_2  and  N_8
REMARK    3  A    between atoms: N_8  and  C_11
REMARK    4  A    between atoms: C_11  and  C_16
REMARK    5  A    between atoms: C_22  and  C_26
REMARK                            x       y       z     vdW  Elec       q    Type
REMARK                         _______ _______ _______ _____ _____    ______ ____
ROOT
ATOM      1  N   UNL     1      34.699 -14.720 -21.587  0.00  0.00    +0.387 N 
ATOM      2  C   UNL     1      35.804 -17.428 -21.494  0.00  0.00    -0.066 C 
ATOM      3  C   UNL     1      35.228 -15.266 -20.329  0.00  0.00    -0.079 C 
ATOM      4  C   UNL     1      35.412 -15.274 -22.747  0.00  0.00    -0.079 C 
ATOM      5  C   UNL     1      35.102 -16.792 -20.293  0.00  0.00    -0.044 C 
ATOM      6  C   UNL     1      35.292 -16.800 -22.793  0.00  0.00    -0.044 C 
ATOM      7  H   UNL     1      33.720 -14.994 -21.660  0.00  0.00    -0.080 HD
ENDROOT
BRANCH   2   8
ATOM      8  N   UNL     1      35.595 -18.875 -21.494  0.00  0.00    +0.389 N 
ATOM      9  H   UNL     1      36.313 -19.316 -20.918  0.00  0.00    -0.084 HD
ATOM     10  H   UNL     1      35.653 -19.213 -22.455  0.00  0.00    -0.084 HD
BRANCH   8  11
ATOM     11  C   UNL     1      34.283 -19.208 -20.961  0.00  0.00    -0.032 C 
BRANCH  11  16
ATOM     12  O   UNL     1      32.246 -21.786 -17.383  0.00  0.00    -0.467 OA
ATOM     13  O   UNL     1      34.892 -22.601 -16.601  0.00  0.00    -0.453 OA
ATOM     14  N   UNL     1      35.610 -20.552 -19.423  0.00  0.00    -0.151 NA
ATOM     15  N   UNL     1      35.749 -21.387 -18.357  0.00  0.00    -0.107 NA
ATOM     16  C   UNL     1      34.378 -20.135 -19.779  0.00  0.00    +0.062 C 
ATOM     17  C   UNL     1      33.233 -20.526 -19.114  0.00  0.00    +0.056 C 
ATOM     18  C   UNL     1      33.376 -21.385 -18.037  0.00  0.00    +0.194 C 
ATOM     19  C   UNL     1      34.652 -21.781 -17.675  0.00  0.00    +0.278 C 
ATOM     20  C   UNL     1      32.497 -22.895 -16.514  0.00  0.00    +0.253 C 
ATOM     21  C   UNL     1      33.768 -22.664 -15.720  0.00  0.00    +0.254 C 
ENDBRANCH  11  16
ENDBRANCH   8  11
ENDBRANCH   2   8
BRANCH   1  22
ATOM     22  C   UNL     1      34.780 -13.260 -21.586  0.00  0.00    -0.071 C 
BRANCH  22  26
ATOM     23  F   UNL     1      32.208 -13.642 -19.580  0.00  0.00    -0.204 F 
ATOM     24  O   UNL     1      33.742  -8.713 -24.275  0.00  0.00    -0.270 OA
ATOM     25  N   UNL     1      33.193 -10.291 -22.674  0.00  0.00    -0.255 N 
ATOM     26  C   UNL     1      33.513 -12.642 -22.162  0.00  0.00    +0.025 C 
ATOM     27  C   UNL     1      33.829 -11.512 -23.187  0.00  0.00    +0.101 C 
ATOM     28  C   UNL     1      32.696 -11.917 -21.129  0.00  0.00    +0.018 C 
ATOM     29  C   UNL     1      32.548 -10.587 -21.482  0.00  0.00    +0.052 C 
ATOM     30  C   UNL     1      31.850  -9.650 -20.747  0.00  0.00    +0.014 C 
ATOM     31  C   UNL     1      32.104 -12.364 -19.963  0.00  0.00    +0.137 C 
ATOM     32  C   UNL     1      33.189  -9.029 -23.224  0.00  0.00    +0.253 C 
ATOM     33  C   UNL     1      31.255 -10.093 -19.569  0.00  0.00    +0.004 C 
ATOM     34  C   UNL     1      31.383 -11.444 -19.183  0.00  0.00    +0.029 C 
ATOM     35  C   UNL     1      31.808  -8.292 -21.280  0.00  0.00    +0.006 C 
ATOM     36  C   UNL     1      32.431  -7.998 -22.434  0.00  0.00    +0.058 C 
ENDBRANCH  22  26
ENDBRANCH   1  22
TORSDOF 5
ENDMDL
MODEL 2
REMARK VINA RESULT:     -12.6      3.434      5.842
REMARK  Name = 119057475
REMARK  5 active torsions:
REMARK  status: ('A' for Active; 'I' for Inactive)
REMARK    1  A    between atoms: N_1  and  C_22
REMARK    2  A    between atoms: C_2  and  N_8
REMARK    3  A    between atoms: N_8  and  C_11
REMARK    4  A    between atoms: C_11  and  C_16
REMARK    5  A    between atoms: C_22  and  C_26
REMARK                            x       y       z     vdW  Elec       q    Type
REMARK                         _______ _______ _______ _____ _____    ______ ____
ROOT
ATOM      1  N   UNL     1      34.746 -19.247 -20.593  0.00  0.00    +0.387 N 
ATOM      2  C   UNL     1      35.112 -21.307 -18.547  0.00  0.00    -0.066 C 
ATOM      3  C   UNL     1      36.023 -19.966 -20.480  0.00  0.00    -0.079 C 
ATOM      4  C   UNL     1      33.619 -20.097 -20.183  0.00  0.00    -0.079 C 
ATOM      5  C   UNL     1      36.267 -20.435 -19.043  0.00  0.00    -0.044 C 
ATOM      6  C   UNL     1      33.782 -20.571 -18.736  0.00  0.00    -0.044 C 
ATOM      7  H   UNL     1      34.780 -18.446 -19.963  0.00  0.00    -0.080 HD
ENDROOT
BRANCH   2   8
ATOM      8  N   UNL     1      35.315 -21.668 -17.145  0.00  0.00    +0.389 N 
ATOM      9  H   UNL     1      35.198 -22.676 -17.040  0.00  0.00    -0.084 HD
ATOM     10  H   UNL     1      34.631 -21.170 -16.576  0.00  0.00    -0.084 HD
BRANCH   8  11
ATOM     11  C   UNL     1      36.650 -21.294 -16.703  0.00  0.00    -0.032 C 
BRANCH  11  16
ATOM     12  O   UNL     1      35.676 -23.199 -12.343  0.00  0.00    -0.467 OA
ATOM     13  O   UNL     1      38.420 -24.056 -12.217  0.00  0.00    -0.453 OA
ATOM     14  N   UNL     1      38.337 -22.482 -15.409  0.00  0.00    -0.151 NA
ATOM     15  N   UNL     1      38.760 -23.162 -14.308  0.00  0.00    -0.107 NA
ATOM     16  C   UNL     1      37.062 -22.045 -15.466  0.00  0.00    +0.062 C 
ATOM     17  C   UNL     1      36.149 -22.265 -14.454  0.00  0.00    +0.056 C 
ATOM     18  C   UNL     1      36.579 -22.967 -13.341  0.00  0.00    +0.194 C 
ATOM     19  C   UNL     1      37.897 -23.385 -13.294  0.00  0.00    +0.278 C 
ATOM     20  C   UNL     1      36.144 -24.185 -11.417  0.00  0.00    +0.253 C 
ATOM     21  C   UNL     1      37.594 -23.922 -11.058  0.00  0.00    +0.254 C 
ENDBRANCH  11  16
ENDBRANCH   8  11
ENDBRANCH   2   8
BRANCH   1  22
ATOM     22  C   UNL     1      34.550 -18.762 -21.958  0.00  0.00    -0.071 C 
BRANCH  22  26
ATOM     23  F   UNL     1      34.623 -18.018 -25.156  0.00  0.00    -0.204 F 
ATOM     24  O   UNL     1      35.345 -14.064 -19.452  0.00  0.00    -0.270 OA
ATOM     25  N   UNL     1      35.074 -15.311 -21.382  0.00  0.00    -0.255 N 
ATOM     26  C   UNL     1      35.431 -17.553 -22.241  0.00  0.00    +0.025 C 
ATOM     27  C   UNL     1      35.579 -16.634 -20.992  0.00  0.00    +0.101 C 
ATOM     28  C   UNL     1      34.833 -16.619 -23.255  0.00  0.00    +0.018 C 
ATOM     29  C   UNL     1      34.660 -15.361 -22.705  0.00  0.00    +0.052 C 
ATOM     30  C   UNL     1      34.134 -14.275 -23.375  0.00  0.00    +0.014 C 
ATOM     31  C   UNL     1      34.467 -16.824 -24.572  0.00  0.00    +0.137 C 
ATOM     32  C   UNL     1      34.993 -14.164 -20.625  0.00  0.00    +0.253 C 
ATOM     33  C   UNL     1      33.760 -14.475 -24.701  0.00  0.00    +0.004 C 
ATOM     34  C   UNL     1      33.928 -15.745 -25.293  0.00  0.00    +0.029 C 
ATOM     35  C   UNL     1      34.025 -13.027 -22.625  0.00  0.00    +0.006 C 
ATOM     36  C   UNL     1      34.424 -12.971 -21.343  0.00  0.00    +0.058 C 
ENDBRANCH  22  26
ENDBRANCH   1  22
TORSDOF 5
ENDMDL
MODEL 3
REMARK VINA RESULT:     -12.4      3.503      6.077
REMARK  Name = 119057475
REMARK  5 active torsions:
REMARK  status: ('A' for Active; 'I' for Inactive)
REMARK    1  A    between atoms: N_1  and  C_22
REMARK    2  A    between atoms: C_2  and  N_8
REMARK    3  A    between atoms: N_8  and  C_11
REMARK    4  A    between atoms: C_11  and  C_16
REMARK    5  A    between atoms: C_22  and  C_26
REMARK                            x       y       z     vdW  Elec       q    Type
REMARK                         _______ _______ _______ _____ _____    ______ ____
ROOT
ATOM      1  N   UNL     1      34.642 -19.385 -20.306  0.00  0.00    +0.387 N 
ATOM      2  C   UNL     1      35.200 -21.472 -18.333  0.00  0.00    -0.066 C 
ATOM      3  C   UNL     1      35.958 -20.038 -20.266  0.00  0.00    -0.079 C 
ATOM      4  C   UNL     1      33.579 -20.302 -19.872  0.00  0.00    -0.079 C 
ATOM      5  C   UNL     1      36.287 -20.530 -18.853  0.00  0.00    -0.044 C 
ATOM      6  C   UNL     1      33.827 -20.802 -18.447  0.00  0.00    -0.044 C 
ATOM      7  H   UNL     1      34.663 -18.598 -19.657  0.00  0.00    -0.080 HD
ENDROOT
BRANCH   2   8
ATOM      8  N   UNL     1      35.481 -21.856 -16.951  0.00  0.00    +0.389 N 
ATOM      9  H   UNL     1      35.783 -21.032 -16.431  0.00  0.00    -0.084 HD
ATOM     10  H   UNL     1      36.215 -22.564 -16.951  0.00  0.00    -0.084 HD
BRANCH   8  11
ATOM     11  C   UNL     1      34.296 -22.413 -16.317  0.00  0.00    -0.032 C 
BRANCH  11  16
ATOM     12  O   UNL     1      37.147 -22.556 -12.387  0.00  0.00    -0.467 OA
ATOM     13  O   UNL     1      34.998 -23.873 -11.001  0.00  0.00    -0.453 OA
ATOM     14  N   UNL     1      33.535 -23.360 -14.206  0.00  0.00    -0.151 NA
ATOM     15  N   UNL     1      33.715 -23.709 -12.902  0.00  0.00    -0.107 NA
ATOM     16  C   UNL     1      34.547 -22.773 -14.877  0.00  0.00    +0.062 C 
ATOM     17  C   UNL     1      35.769 -22.495 -14.298  0.00  0.00    +0.056 C 
ATOM     18  C   UNL     1      35.945 -22.841 -12.969  0.00  0.00    +0.194 C 
ATOM     19  C   UNL     1      34.901 -23.464 -12.307  0.00  0.00    +0.278 C 
ATOM     20  C   UNL     1      37.091 -22.670 -10.962  0.00  0.00    +0.253 C 
ATOM     21  C   UNL     1      36.358 -23.936 -10.564  0.00  0.00    +0.254 C 
ENDBRANCH  11  16
ENDBRANCH   8  11
ENDBRANCH   2   8
BRANCH   1  22
ATOM     22  C   UNL     1      34.364 -18.877 -21.649  0.00  0.00    -0.071 C 
BRANCH  22  26
ATOM     23  F   UNL     1      34.587 -18.482 -24.901  0.00  0.00    -0.204 F 
ATOM     24  O   UNL     1      35.358 -13.993 -19.615  0.00  0.00    -0.270 OA
ATOM     25  N   UNL     1      35.076 -15.419 -21.415  0.00  0.00    -0.255 N 
ATOM     26  C   UNL     1      35.325 -17.757 -22.021  0.00  0.00    +0.025 C 
ATOM     27  C   UNL     1      35.486 -16.720 -20.869  0.00  0.00    +0.101 C 
ATOM     28  C   UNL     1      34.818 -16.903 -23.150  0.00  0.00    +0.018 C 
ATOM     29  C   UNL     1      34.704 -15.586 -22.741  0.00  0.00    +0.052 C 
ATOM     30  C   UNL     1      34.267 -14.549 -23.540  0.00  0.00    +0.014 C 
ATOM     31  C   UNL     1      34.485 -17.226 -24.451  0.00  0.00    +0.137 C 
ATOM     32  C   UNL     1      35.039 -14.196 -20.784  0.00  0.00    +0.253 C 
ATOM     33  C   UNL     1      33.926 -14.867 -24.852  0.00  0.00    +0.004 C 
ATOM     34  C   UNL     1      34.037 -16.200 -25.301  0.00  0.00    +0.029 C 
ATOM     35  C   UNL     1      34.209 -13.225 -22.928  0.00  0.00    +0.006 C 
ATOM     36  C   UNL     1      34.567 -13.056 -21.644  0.00  0.00    +0.058 C 
ENDBRANCH  22  26
ENDBRANCH   1  22
TORSDOF 5
ENDMDL
MODEL 4
REMARK VINA RESULT:     -12.3      3.769     11.933
REMARK  Name = 119057475
REMARK  5 active torsions:
REMARK  status: ('A' for Active; 'I' for Inactive)
REMARK    1  A    between atoms: N_1  and  C_22
REMARK    2  A    between atoms: C_2  and  N_8
REMARK    3  A    between atoms: N_8  and  C_11
REMARK    4  A    between atoms: C_11  and  C_16
REMARK    5  A    between atoms: C_22  and  C_26
REMARK                            x       y       z     vdW  Elec       q    Type
REMARK                         _______ _______ _______ _____ _____    ______ ____
ROOT
ATOM      1  N   UNL     1      35.270 -21.287 -17.503  0.00  0.00    +0.387 N 
ATOM      2  C   UNL     1      35.323 -20.109 -20.181  0.00  0.00    -0.066 C 
ATOM      3  C   UNL     1      34.152 -21.501 -18.432  0.00  0.00    -0.079 C 
ATOM      4  C   UNL     1      36.541 -21.137 -18.225  0.00  0.00    -0.079 C 
ATOM      5  C   UNL     1      34.019 -20.333 -19.414  0.00  0.00    -0.044 C 
ATOM      6  C   UNL     1      36.489 -19.957 -19.199  0.00  0.00    -0.044 C 
ATOM      7  H   UNL     1      35.094 -20.420 -16.995  0.00  0.00    -0.080 HD
ENDROOT
BRANCH   2   8
ATOM      8  N   UNL     1      35.209 -18.934 -21.043  0.00  0.00    +0.389 N 
ATOM      9  H   UNL     1      34.248 -18.591 -21.013  0.00  0.00    -0.084 HD
ATOM     10  H   UNL     1      35.461 -19.201 -21.995  0.00  0.00    -0.084 HD
BRANCH   8  11
ATOM     11  C   UNL     1      36.107 -17.879 -20.601  0.00  0.00    -0.032 C 
BRANCH  11  16
ATOM     12  O   UNL     1      34.599 -14.460 -23.704  0.00  0.00    -0.467 OA
ATOM     13  O   UNL     1      34.090 -12.767 -21.433  0.00  0.00    -0.453 OA
ATOM     14  N   UNL     1      35.277 -15.720 -19.837  0.00  0.00    -0.151 NA
ATOM     15  N   UNL     1      34.778 -14.471 -20.051  0.00  0.00    -0.107 NA
ATOM     16  C   UNL     1      35.552 -16.511 -20.895  0.00  0.00    +0.062 C 
ATOM     17  C   UNL     1      35.341 -16.116 -22.200  0.00  0.00    +0.056 C 
ATOM     18  C   UNL     1      34.823 -14.850 -22.414  0.00  0.00    +0.194 C 
ATOM     19  C   UNL     1      34.570 -14.047 -21.316  0.00  0.00    +0.278 C 
ATOM     20  C   UNL     1      33.785 -13.285 -23.772  0.00  0.00    +0.253 C 
ATOM     21  C   UNL     1      34.255 -12.259 -22.760  0.00  0.00    +0.254 C 
ENDBRANCH  11  16
ENDBRANCH   8  11
ENDBRANCH   2   8
BRANCH   1  22
ATOM     22  C   UNL     1      35.354 -22.385 -16.541  0.00  0.00    -0.071 C 
BRANCH  22  26
ATOM     23  F   UNL     1      33.486 -22.087 -13.857  0.00  0.00    -0.204 F 
ATOM     24  O   UNL     1      40.200 -23.800 -14.674  0.00  0.00    -0.270 OA
ATOM     25  N   UNL     1      37.972 -23.279 -14.336  0.00  0.00    -0.255 N 
ATOM     26  C   UNL     1      36.171 -21.983 -15.322  0.00  0.00    +0.025 C 
ATOM     27  C   UNL     1      37.669 -22.388 -15.464  0.00  0.00    +0.101 C 
ATOM     28  C   UNL     1      35.760 -22.716 -14.075  0.00  0.00    +0.018 C 
ATOM     29  C   UNL     1      36.830 -23.429 -13.563  0.00  0.00    +0.052 C 
ATOM     30  C   UNL     1      36.784 -24.207 -12.423  0.00  0.00    +0.014 C 
ATOM     31  C   UNL     1      34.550 -22.765 -13.410  0.00  0.00    +0.137 C 
ATOM     32  C   UNL     1      39.162 -23.899 -14.026  0.00  0.00    +0.253 C 
ATOM     33  C   UNL     1      35.567 -24.264 -11.750  0.00  0.00    +0.004 C 
ATOM     34  C   UNL     1      34.458 -23.545 -12.244  0.00  0.00    +0.029 C 
ATOM     35  C   UNL     1      38.016 -24.889 -12.042  0.00  0.00    +0.006 C 
ATOM     36  C   UNL     1      39.127 -24.749 -12.786  0.00  0.00    +0.058 C 
ENDBRANCH  22  26
ENDBRANCH   1  22
TORSDOF 5
ENDMDL
MODEL 5
REMARK VINA RESULT:     -12.2      0.963      1.344
REMARK  Name = 119057475
REMARK  5 active torsions:
REMARK  status: ('A' for Active; 'I' for Inactive)
REMARK    1  A    between atoms: N_1  and  C_22
REMARK    2  A    between atoms: C_2  and  N_8
REMARK    3  A    between atoms: N_8  and  C_11
REMARK    4  A    between atoms: C_11  and  C_16
REMARK    5  A    between atoms: C_22  and  C_26
REMARK                            x       y       z     vdW  Elec       q    Type
REMARK                         _______ _______ _______ _____ _____    ______ ____
ROOT
ATOM      1  N   UNL     1      34.632 -14.251 -22.222  0.00  0.00    +0.387 N 
ATOM      2  C   UNL     1      35.526 -17.019 -21.898  0.00  0.00    -0.066 C 
ATOM      3  C   UNL     1      35.234 -14.696 -20.957  0.00  0.00    -0.079 C 
ATOM      4  C   UNL     1      35.184 -14.994 -23.364  0.00  0.00    -0.079 C 
ATOM      5  C   UNL     1      34.994 -16.191 -20.727  0.00  0.00    -0.044 C 
ATOM      6  C   UNL     1      34.942 -16.498 -23.215  0.00  0.00    -0.044 C 
ATOM      7  H   UNL     1      33.631 -14.444 -22.177  0.00  0.00    -0.080 HD
ENDROOT
BRANCH   2   8
ATOM      8  N   UNL     1      35.205 -18.432 -21.706  0.00  0.00    +0.389 N 
ATOM      9  H   UNL     1      35.435 -18.945 -22.558  0.00  0.00    -0.084 HD
ATOM     10  H   UNL     1      34.210 -18.516 -21.499  0.00  0.00    -0.084 HD
BRANCH   8  11
ATOM     11  C   UNL     1      35.962 -18.988 -20.595  0.00  0.00    -0.032 C 
BRANCH  11  16
ATOM     12  O   UNL     1      35.452 -22.230 -17.014  0.00  0.00    -0.467 OA
ATOM     13  O   UNL     1      32.627 -22.237 -17.560  0.00  0.00    -0.453 OA
ATOM     14  N   UNL     1      33.784 -19.869 -19.954  0.00  0.00    -0.151 NA
ATOM     15  N   UNL     1      32.974 -20.665 -19.202  0.00  0.00    -0.107 NA
ATOM     16  C   UNL     1      35.114 -19.882 -19.730  0.00  0.00    +0.062 C 
ATOM     17  C   UNL     1      35.703 -20.664 -18.758  0.00  0.00    +0.056 C 
ATOM     18  C   UNL     1      34.876 -21.464 -17.987  0.00  0.00    +0.194 C 
ATOM     19  C   UNL     1      33.517 -21.452 -18.249  0.00  0.00    +0.278 C 
ATOM     20  C   UNL     1      34.482 -22.753 -16.102  0.00  0.00    +0.253 C 
ATOM     21  C   UNL     1      33.286 -23.295 -16.859  0.00  0.00    +0.254 C 
ENDBRANCH  11  16
ENDBRANCH   8  11
ENDBRANCH   2   8
BRANCH   1  22
ATOM     22  C   UNL     1      34.826 -12.814 -22.404  0.00  0.00    -0.071 C 
BRANCH  22  26
ATOM     23  F   UNL     1      32.425 -13.726 -20.358  0.00  0.00    -0.204 F 
ATOM     24  O   UNL     1      33.517  -7.807 -23.890  0.00  0.00    -0.270 OA
ATOM     25  N   UNL     1      33.117  -9.726 -22.661  0.00  0.00    -0.255 N 
ATOM     26  C   UNL     1      33.509 -12.121 -22.729  0.00  0.00    +0.025 C 
ATOM     27  C   UNL     1      33.728 -10.777 -23.485  0.00  0.00    +0.101 C 
ATOM     28  C   UNL     1      32.765 -11.677 -21.499  0.00  0.00    +0.018 C 
ATOM     29  C   UNL     1      32.571 -10.307 -21.525  0.00  0.00    +0.052 C 
ATOM     30  C   UNL     1      31.919  -9.586 -20.545  0.00  0.00    +0.014 C 
ATOM     31  C   UNL     1      32.273 -12.398 -20.428  0.00  0.00    +0.137 C 
ATOM     32  C   UNL     1      33.052  -8.372 -22.903  0.00  0.00    +0.253 C 
ATOM     33  C   UNL     1      31.424 -10.305 -19.461  0.00  0.00    +0.004 C 
ATOM     34  C   UNL     1      31.601 -11.704 -19.407  0.00  0.00    +0.029 C 
ATOM     35  C   UNL     1      31.817  -8.144 -20.746  0.00  0.00    +0.006 C 
ATOM     36  C   UNL     1      32.343  -7.574 -21.843  0.00  0.00    +0.058 C 
ENDBRANCH  22  26
ENDBRANCH   1  22
TORSDOF 5
ENDMDL
MODEL 6
REMARK VINA RESULT:     -11.9      3.346     11.399
REMARK  Name = 119057475
REMARK  5 active torsions:
REMARK  status: ('A' for Active; 'I' for Inactive)
REMARK    1  A    between atoms: N_1  and  C_22
REMARK    2  A    between atoms: C_2  and  N_8
REMARK    3  A    between atoms: N_8  and  C_11
REMARK    4  A    between atoms: C_11  and  C_16
REMARK    5  A    between atoms: C_22  and  C_26
REMARK                            x       y       z     vdW  Elec       q    Type
REMARK                         _______ _______ _______ _____ _____    ______ ____
ROOT
ATOM      1  N   UNL     1      34.405 -21.830 -18.847  0.00  0.00    +0.387 N 
ATOM      2  C   UNL     1      34.858 -19.237 -20.125  0.00  0.00    -0.066 C 
ATOM      3  C   UNL     1      35.754 -21.248 -18.892  0.00  0.00    -0.079 C 
ATOM      4  C   UNL     1      33.375 -20.783 -18.791  0.00  0.00    -0.079 C 
ATOM      5  C   UNL     1      35.921 -20.337 -20.112  0.00  0.00    -0.044 C 
ATOM      6  C   UNL     1      33.462 -19.856 -20.007  0.00  0.00    -0.044 C 
ATOM      7  H   UNL     1      34.265 -22.363 -19.706  0.00  0.00    -0.080 HD
ENDROOT
BRANCH   2   8
ATOM      8  N   UNL     1      34.973 -18.435 -21.341  0.00  0.00    +0.389 N 
ATOM      9  H   UNL     1      34.059 -18.043 -21.570  0.00  0.00    -0.084 HD
ATOM     10  H   UNL     1      35.301 -19.035 -22.098  0.00  0.00    -0.084 HD
BRANCH   8  11
ATOM     11  C   UNL     1      35.926 -17.351 -21.158  0.00  0.00    -0.032 C 
BRANCH  11  16
ATOM     12  O   UNL     1      34.287 -14.327 -24.587  0.00  0.00    -0.467 OA
ATOM     13  O   UNL     1      33.872 -12.369 -22.520  0.00  0.00    -0.453 OA
ATOM     14  N   UNL     1      35.127 -15.112 -20.628  0.00  0.00    -0.151 NA
ATOM     15  N   UNL     1      34.619 -13.896 -20.971  0.00  0.00    -0.107 NA
ATOM     16  C   UNL     1      35.358 -16.026 -21.593  0.00  0.00    +0.062 C 
ATOM     17  C   UNL     1      35.092 -15.793 -22.927  0.00  0.00    +0.056 C 
ATOM     18  C   UNL     1      34.564 -14.559 -23.271  0.00  0.00    +0.194 C 
ATOM     19  C   UNL     1      34.358 -13.628 -22.268  0.00  0.00    +0.278 C 
ATOM     20  C   UNL     1      33.469 -13.165 -24.764  0.00  0.00    +0.253 C 
ATOM     21  C   UNL     1      33.981 -12.027 -23.904  0.00  0.00    +0.254 C 
ENDBRANCH  11  16
ENDBRANCH   8  11
ENDBRANCH   2   8
BRANCH   1  22
ATOM     22  C   UNL     1      34.276 -22.736 -17.707  0.00  0.00    -0.071 C 
BRANCH  22  26
ATOM     23  F   UNL     1      31.360 -22.552 -16.208  0.00  0.00    -0.204 F 
ATOM     24  O   UNL     1      37.873 -22.606 -13.704  0.00  0.00    -0.270 OA
ATOM     25  N   UNL     1      35.689 -22.624 -14.465  0.00  0.00    -0.255 N 
ATOM     26  C   UNL     1      34.361 -21.975 -16.391  0.00  0.00    +0.025 C 
ATOM     27  C   UNL     1      35.799 -22.004 -15.792  0.00  0.00    +0.101 C 
ATOM     28  C   UNL     1      33.547 -22.609 -15.297  0.00  0.00    +0.018 C 
ATOM     29  C   UNL     1      34.360 -22.950 -14.230  0.00  0.00    +0.052 C 
ATOM     30  C   UNL     1      33.922 -23.548 -13.066  0.00  0.00    +0.014 C 
ATOM     31  C   UNL     1      32.193 -22.870 -15.209  0.00  0.00    +0.137 C 
ATOM     32  C   UNL     1      36.685 -22.874 -13.548  0.00  0.00    +0.253 C 
ATOM     33  C   UNL     1      32.560 -23.817 -12.973  0.00  0.00    +0.004 C 
ATOM     34  C   UNL     1      31.703 -23.478 -14.041  0.00  0.00    +0.029 C 
ATOM     35  C   UNL     1      34.933 -23.837 -12.053  0.00  0.00    +0.006 C 
ATOM     36  C   UNL     1      36.221 -23.524 -12.273  0.00  0.00    +0.058 C 
ENDBRANCH  22  26
ENDBRANCH   1  22
TORSDOF 5
ENDMDL
MODEL 7
REMARK VINA RESULT:     -11.9      3.202      5.098
REMARK  Name = 119057475
REMARK  5 active torsions:
REMARK  status: ('A' for Active; 'I' for Inactive)
REMARK    1  A    between atoms: N_1  and  C_22
REMARK    2  A    between atoms: C_2  and  N_8
REMARK    3  A    between atoms: N_8  and  C_11
REMARK    4  A    between atoms: C_11  and  C_16
REMARK    5  A    between atoms: C_22  and  C_26
REMARK                            x       y       z     vdW  Elec       q    Type
REMARK                         _______ _______ _______ _____ _____    ______ ____
ROOT
ATOM      1  N   UNL     1      36.055 -18.893 -21.076  0.00  0.00    +0.387 N 
ATOM      2  C   UNL     1      35.524 -20.513 -18.697  0.00  0.00    -0.066 C 
ATOM      3  C   UNL     1      34.689 -19.016 -20.549  0.00  0.00    -0.079 C 
ATOM      4  C   UNL     1      37.050 -18.981 -19.998  0.00  0.00    -0.079 C 
ATOM      5  C   UNL     1      34.496 -20.348 -19.819  0.00  0.00    -0.044 C 
ATOM      6  C   UNL     1      36.938 -20.312 -19.250  0.00  0.00    -0.044 C 
ATOM      7  H   UNL     1      36.216 -19.670 -21.716  0.00  0.00    -0.080 HD
ENDROOT
BRANCH   2   8
ATOM      8  N   UNL     1      35.387 -21.827 -18.074  0.00  0.00    +0.389 N 
ATOM      9  H   UNL     1      36.261 -22.342 -18.186  0.00  0.00    -0.084 HD
ATOM     10  H   UNL     1      34.621 -22.326 -18.526  0.00  0.00    -0.084 HD
BRANCH   8  11
ATOM     11  C   UNL     1      35.087 -21.698 -16.656  0.00  0.00    -0.032 C 
BRANCH  11  16
ATOM     12  O   UNL     1      36.512 -24.968 -13.358  0.00  0.00    -0.467 OA
ATOM     13  O   UNL     1      39.162 -23.868 -13.562  0.00  0.00    -0.453 OA
ATOM     14  N   UNL     1      37.401 -21.854 -15.910  0.00  0.00    -0.151 NA
ATOM     15  N   UNL     1      38.393 -22.395 -15.152  0.00  0.00    -0.107 NA
ATOM     16  C   UNL     1      36.147 -22.338 -15.799  0.00  0.00    +0.062 C 
ATOM     17  C   UNL     1      35.816 -23.376 -14.951  0.00  0.00    +0.056 C 
ATOM     18  C   UNL     1      36.830 -23.932 -14.189  0.00  0.00    +0.194 C 
ATOM     19  C   UNL     1      38.104 -23.404 -14.302  0.00  0.00    +0.278 C 
ATOM     20  C   UNL     1      37.677 -25.645 -12.878  0.00  0.00    +0.253 C 
ATOM     21  C   UNL     1      38.726 -24.642 -12.441  0.00  0.00    +0.254 C 
ENDBRANCH  11  16
ENDBRANCH   8  11
ENDBRANCH   2   8
BRANCH   1  22
ATOM     22  C   UNL     1      36.209 -17.639 -21.813  0.00  0.00    -0.071 C 
BRANCH  22  26
ATOM     23  F   UNL     1      35.278 -15.762 -19.285  0.00  0.00    -0.204 F 
ATOM     24  O   UNL     1      33.908 -15.365 -26.115  0.00  0.00    -0.270 OA
ATOM     25  N   UNL     1      34.356 -15.415 -23.846  0.00  0.00    -0.255 N 
ATOM     26  C   UNL     1      34.859 -16.981 -22.061  0.00  0.00    +0.025 C 
ATOM     27  C   UNL     1      34.545 -16.847 -23.581  0.00  0.00    +0.101 C 
ATOM     28  C   UNL     1      34.813 -15.551 -21.599  0.00  0.00    +0.018 C 
ATOM     29  C   UNL     1      34.518 -14.713 -22.660  0.00  0.00    +0.052 C 
ATOM     30  C   UNL     1      34.401 -13.341 -22.570  0.00  0.00    +0.014 C 
ATOM     31  C   UNL     1      35.000 -14.997 -20.347  0.00  0.00    +0.137 C 
ATOM     32  C   UNL     1      34.062 -14.793 -25.039  0.00  0.00    +0.253 C 
ATOM     33  C   UNL     1      34.592 -12.775 -21.313  0.00  0.00    +0.004 C 
ATOM     34  C   UNL     1      34.890 -13.602 -20.210  0.00  0.00    +0.029 C 
ATOM     35  C   UNL     1      34.088 -12.624 -23.803  0.00  0.00    +0.006 C 
ATOM     36  C   UNL     1      33.930 -13.297 -24.956  0.00  0.00    +0.058 C 
ENDBRANCH  22  26
ENDBRANCH   1  22
TORSDOF 5
ENDMDL
MODEL 8
REMARK VINA RESULT:     -11.8      2.849      4.456
REMARK  Name = 119057475
REMARK  5 active torsions:
REMARK  status: ('A' for Active; 'I' for Inactive)
REMARK    1  A    between atoms: N_1  and  C_22
REMARK    2  A    between atoms: C_2  and  N_8
REMARK    3  A    between atoms: N_8  and  C_11
REMARK    4  A    between atoms: C_11  and  C_16
REMARK    5  A    between atoms: C_22  and  C_26
REMARK                            x       y       z     vdW  Elec       q    Type
REMARK                         _______ _______ _______ _____ _____    ______ ____
ROOT
ATOM      1  N   UNL     1      36.146 -18.675 -21.303  0.00  0.00    +0.387 N 
ATOM      2  C   UNL     1      35.672 -20.209 -18.856  0.00  0.00    -0.066 C 
ATOM      3  C   UNL     1      34.784 -18.827 -20.772  0.00  0.00    -0.079 C 
ATOM      4  C   UNL     1      37.142 -18.679 -20.222  0.00  0.00    -0.079 C 
ATOM      5  C   UNL     1      34.641 -20.132 -19.984  0.00  0.00    -0.044 C 
ATOM      6  C   UNL     1      37.079 -19.979 -19.416  0.00  0.00    -0.044 C 
ATOM      7  H   UNL     1      36.337 -19.473 -21.909  0.00  0.00    -0.080 HD
ENDROOT
BRANCH   2   8
ATOM      8  N   UNL     1      35.584 -21.499 -18.176  0.00  0.00    +0.389 N 
ATOM      9  H   UNL     1      35.609 -21.346 -17.167  0.00  0.00    -0.084 HD
ATOM     10  H   UNL     1      36.371 -22.077 -18.467  0.00  0.00    -0.084 HD
BRANCH   8  11
ATOM     11  C   UNL     1      34.348 -22.184 -18.523  0.00  0.00    -0.032 C 
BRANCH  11  16
ATOM     12  O   UNL     1      33.478 -23.519 -13.935  0.00  0.00    -0.467 OA
ATOM     13  O   UNL     1      30.765 -22.634 -14.299  0.00  0.00    -0.453 OA
ATOM     14  N   UNL     1      32.166 -21.881 -17.484  0.00  0.00    -0.151 NA
ATOM     15  N   UNL     1      31.297 -21.991 -16.442  0.00  0.00    -0.107 NA
ATOM     16  C   UNL     1      33.432 -22.324 -17.337  0.00  0.00    +0.062 C 
ATOM     17  C   UNL     1      33.900 -22.881 -16.165  0.00  0.00    +0.056 C 
ATOM     18  C   UNL     1      33.017 -22.981 -15.103  0.00  0.00    +0.194 C 
ATOM     19  C   UNL     1      31.717 -22.542 -15.283  0.00  0.00    +0.278 C 
ATOM     20  C   UNL     1      32.582 -23.278 -12.845  0.00  0.00    +0.253 C 
ATOM     21  C   UNL     1      31.152 -23.548 -13.270  0.00  0.00    +0.254 C 
ENDBRANCH  11  16
ENDBRANCH   8  11
ENDBRANCH   2   8
BRANCH   1  22
ATOM     22  C   UNL     1      36.254 -17.450 -22.094  0.00  0.00    -0.071 C 
BRANCH  22  26
ATOM     23  F   UNL     1      35.268 -15.734 -19.473  0.00  0.00    -0.204 F 
ATOM     24  O   UNL     1      33.897 -15.016 -26.277  0.00  0.00    -0.270 OA
ATOM     25  N   UNL     1      34.343 -15.173 -24.013  0.00  0.00    -0.255 N 
ATOM     26  C   UNL     1      34.886 -16.817 -22.311  0.00  0.00    +0.025 C 
ATOM     27  C   UNL     1      34.571 -16.612 -23.822  0.00  0.00    +0.101 C 
ATOM     28  C   UNL     1      34.801 -15.415 -21.774  0.00  0.00    +0.018 C 
ATOM     29  C   UNL     1      34.484 -14.531 -22.791  0.00  0.00    +0.052 C 
ATOM     30  C   UNL     1      34.330 -13.169 -22.630  0.00  0.00    +0.014 C 
ATOM     31  C   UNL     1      34.971 -14.922 -20.495  0.00  0.00    +0.137 C 
ATOM     32  C   UNL     1      34.034 -14.498 -25.172  0.00  0.00    +0.253 C 
ATOM     33  C   UNL     1      34.504 -12.665 -21.344  0.00  0.00    +0.004 C 
ATOM     34  C   UNL     1      34.822 -13.540 -20.284  0.00  0.00    +0.029 C 
ATOM     35  C   UNL     1      33.999 -12.397 -23.824  0.00  0.00    +0.006 C 
ATOM     36  C   UNL     1      33.861 -13.012 -25.011  0.00  0.00    +0.058 C 
ENDBRANCH  22  26
ENDBRANCH   1  22
TORSDOF 5
ENDMDL
MODEL 9
REMARK VINA RESULT:     -11.8      2.293      3.471
REMARK  Name = 119057475
REMARK  5 active torsions:
REMARK  status: ('A' for Active; 'I' for Inactive)
REMARK    1  A    between atoms: N_1  and  C_22
REMARK    2  A    between atoms: C_2  and  N_8
REMARK    3  A    between atoms: N_8  and  C_11
REMARK    4  A    between atoms: C_11  and  C_16
REMARK    5  A    between atoms: C_22  and  C_26
REMARK                            x       y       z     vdW  Elec       q    Type
REMARK                         _______ _______ _______ _____ _____    ______ ____
ROOT
ATOM      1  N   UNL     1      33.830 -13.786 -23.890  0.00  0.00    +0.387 N 
ATOM      2  C   UNL     1      34.939 -16.484 -23.652  0.00  0.00    -0.066 C 
ATOM      3  C   UNL     1      34.941 -14.055 -22.966  0.00  0.00    -0.079 C 
ATOM      4  C   UNL     1      33.883 -14.675 -25.059  0.00  0.00    -0.079 C 
ATOM      5  C   UNL     1      34.912 -15.506 -22.476  0.00  0.00    -0.044 C 
ATOM      6  C   UNL     1      33.818 -16.146 -24.639  0.00  0.00    -0.044 C 
ATOM      7  H   UNL     1      32.958 -13.972 -23.394  0.00  0.00    -0.080 HD
ENDROOT
BRANCH   2   8
ATOM      8  N   UNL     1      34.816 -17.858 -23.170  0.00  0.00    +0.389 N 
ATOM      9  H   UNL     1      35.132 -18.497 -23.901  0.00  0.00    -0.084 HD
ATOM     10  H   UNL     1      33.839 -18.038 -22.940  0.00  0.00    -0.084 HD
BRANCH   8  11
ATOM     11  C   UNL     1      35.621 -18.062 -21.976  0.00  0.00    -0.032 C 
BRANCH  11  16
ATOM     12  O   UNL     1      35.771 -21.183 -18.257  0.00  0.00    -0.467 OA
ATOM     13  O   UNL     1      32.917 -21.452 -18.500  0.00  0.00    -0.453 OA
ATOM     14  N   UNL     1      33.607 -19.096 -21.079  0.00  0.00    -0.151 NA
ATOM     15  N   UNL     1      32.953 -19.925 -20.219  0.00  0.00    -0.107 NA
ATOM     16  C   UNL     1      34.949 -18.988 -20.998  0.00  0.00    +0.062 C 
ATOM     17  C   UNL     1      35.702 -19.676 -20.069  0.00  0.00    +0.056 C 
ATOM     18  C   UNL     1      35.033 -20.510 -19.188  0.00  0.00    +0.194 C 
ATOM     19  C   UNL     1      33.658 -20.624 -19.305  0.00  0.00    +0.278 C 
ATOM     20  C   UNL     1      34.950 -21.747 -17.230  0.00  0.00    +0.253 C 
ATOM     21  C   UNL     1      33.735 -22.420 -17.839  0.00  0.00    +0.254 C 
ENDBRANCH  11  16
ENDBRANCH   8  11
ENDBRANCH   2   8
BRANCH   1  22
ATOM     22  C   UNL     1      33.841 -12.386 -24.311  0.00  0.00    -0.071 C 
BRANCH  22  26
ATOM     23  F   UNL     1      36.141 -10.230 -25.228  0.00  0.00    -0.204 F 
ATOM     24  O   UNL     1      31.143  -9.902 -20.370  0.00  0.00    -0.270 OA
ATOM     25  N   UNL     1      32.794  -9.929 -21.990  0.00  0.00    -0.255 N 
ATOM     26  C   UNL     1      34.254 -11.474 -23.164  0.00  0.00    +0.025 C 
ATOM     27  C   UNL     1      33.139 -11.354 -22.083  0.00  0.00    +0.101 C 
ATOM     28  C   UNL     1      34.436 -10.044 -23.593  0.00  0.00    +0.018 C 
ATOM     29  C   UNL     1      33.581  -9.218 -22.884  0.00  0.00    +0.052 C 
ATOM     30  C   UNL     1      33.502  -7.849 -23.039  0.00  0.00    +0.014 C 
ATOM     31  C   UNL     1      35.288  -9.478 -24.522  0.00  0.00    +0.137 C 
ATOM     32  C   UNL     1      31.863  -9.321 -21.178  0.00  0.00    +0.253 C 
ATOM     33  C   UNL     1      34.354  -7.272 -23.976  0.00  0.00    +0.004 C 
ATOM     34  C   UNL     1      35.241  -8.086 -24.712  0.00  0.00    +0.029 C 
ATOM     35  C   UNL     1      32.533  -7.146 -22.203  0.00  0.00    +0.006 C 
ATOM     36  C   UNL     1      31.767  -7.828 -21.335  0.00  0.00    +0.058 C 
ENDBRANCH  22  26
ENDBRANCH   1  22
TORSDOF 5
ENDMDL
