MODEL 1
REMARK VINA RESULT:     -12.7      0.000      0.000
REMARK  Name = 4566
REMARK  6 active torsions:
REMARK  status: ('A' for Active; 'I' for Inactive)
REMARK    1  A    between atoms: N_4  and  C_14
REMARK    2  A    between atoms: C_6  and  O_26
REMARK    3  A    between atoms: C_15  and  S_20
REMARK    4  A    between atoms: S_20  and  N_23
REMARK    5  A    between atoms: O_26  and  C_27
REMARK    6  A    between atoms: C_27  and  C_28
REMARK                            x       y       z     vdW  Elec       q    Type
REMARK                         _______ _______ _______ _____ _____    ______ ____
ROOT
ATOM      1  N   UNL     1      32.701 -22.879 -15.300  0.00  0.00    -0.293 NA
ATOM      2  N   UNL     1      29.395 -21.981 -16.638  0.00  0.00    -0.266 NA
ATOM      3  N   UNL     1      30.850 -23.355 -13.784  0.00  0.00    -0.316 NA
ATOM      4  N   UNL     1      33.062 -23.826 -13.189  0.00  0.00    -0.238 N 
ATOM      5  N   UNL     1      28.669 -22.757 -14.679  0.00  0.00    -0.296 N 
ATOM      6  C   UNL     1      31.862 -22.392 -16.241  0.00  0.00    +0.288 C 
ATOM      7  C   UNL     1      30.512 -22.382 -15.960  0.00  0.00    +0.215 C 
ATOM      8  C   UNL     1      30.035 -22.860 -14.747  0.00  0.00    +0.196 C 
ATOM      9  C   UNL     1      32.150 -23.324 -14.145  0.00  0.00    +0.207 C 
ATOM     10  C   UNL     1      28.316 -22.226 -15.829  0.00  0.00    +0.164 C 
ATOM     11  H   UNL     1      29.370 -21.590 -17.540  0.00  0.00    +0.126 HD
ATOM     12  H   UNL     1      32.633 -24.143 -12.360  0.00  0.00    +0.166 HD
ATOM     13  H   UNL     1      28.083 -23.022 -13.933  0.00  0.00    +0.150 HD
ENDROOT
BRANCH   4  14
ATOM     14  C   UNL     1      34.461 -23.961 -13.188  0.00  0.00    +0.059 C 
ATOM     15  C   UNL     1      37.242 -24.230 -13.184  0.00  0.00    +0.122 C 
ATOM     16  C   UNL     1      35.112 -24.529 -14.285  0.00  0.00    +0.017 C 
ATOM     17  C   UNL     1      35.208 -23.528 -12.088  0.00  0.00    +0.017 C 
ATOM     18  C   UNL     1      36.501 -24.664 -14.284  0.00  0.00    +0.021 C 
ATOM     19  C   UNL     1      36.596 -23.663 -12.088  0.00  0.00    +0.021 C 
BRANCH  15  20
ATOM     20  S   UNL     1      38.981 -24.400 -13.183  0.00  0.00    +0.057 S 
ATOM     21  O   UNL     1      39.528 -23.516 -12.162  0.00  0.00    -0.153 OA
ATOM     22  O   UNL     1      39.306 -25.819 -13.162  0.00  0.00    -0.153 OA
BRANCH  20  23
ATOM     23  N   UNL     1      39.370 -23.772 -14.723  0.00  0.00    -0.203 NA
ATOM     24  H   UNL     1      40.080 -23.045 -14.625  0.00  0.00    +0.144 HD
ATOM     25  H   UNL     1      38.533 -23.373 -15.149  0.00  0.00    +0.144 HD
ENDBRANCH  20  23
ENDBRANCH  15  20
ENDBRANCH   4  14
BRANCH   6  26
ATOM     26  O   UNL     1      32.389 -21.932 -17.422  0.00  0.00    -0.453 OA
BRANCH  26  27
ATOM     27  C   UNL     1      33.751 -22.220 -17.676  0.00  0.00    +0.208 C 
BRANCH  27  28
ATOM     28  C   UNL     1      34.186 -21.449 -18.920  0.00  0.00    +0.044 C 
ATOM     29  C   UNL     1      33.206 -20.306 -19.221  0.00  0.00    +0.004 C 
ATOM     30  C   UNL     1      35.615 -20.914 -18.755  0.00  0.00    +0.004 C 
ATOM     31  C   UNL     1      33.648 -19.486 -20.430  0.00  0.00    +0.000 C 
ATOM     32  C   UNL     1      36.053 -20.093 -19.966  0.00  0.00    +0.000 C 
ATOM     33  C   UNL     1      35.072 -18.963 -20.265  0.00  0.00    +0.000 C 
ENDBRANCH  27  28
ENDBRANCH  26  27
ENDBRANCH   6  26
TORSDOF 6
ENDMDL
MODEL 2
REMARK VINA RESULT:     -12.6      1.177      1.564
REMARK  Name = 4566
REMARK  6 active torsions:
REMARK  status: ('A' for Active; 'I' for Inactive)
REMARK    1  A    between atoms: N_4  and  C_14
REMARK    2  A    between atoms: C_6  and  O_26
REMARK    3  A    between atoms: C_15  and  S_20
REMARK    4  A    between atoms: S_20  and  N_23
REMARK    5  A    between atoms: O_26  and  C_27
REMARK    6  A    between atoms: C_27  and  C_28
REMARK                            x       y       z     vdW  Elec       q    Type
REMARK                         _______ _______ _______ _____ _____    ______ ____
ROOT
ATOM      1  N   UNL     1      33.781 -23.109 -15.557  0.00  0.00    -0.293 NA
ATOM      2  N   UNL     1      30.419 -22.025 -16.582  0.00  0.00    -0.266 NA
ATOM      3  N   UNL     1      32.136 -23.124 -13.755  0.00  0.00    -0.316 NA
ATOM      4  N   UNL     1      34.355 -23.766 -13.384  0.00  0.00    -0.238 N 
ATOM      5  N   UNL     1      29.918 -22.405 -14.444  0.00  0.00    -0.296 N 
ATOM      6  C   UNL     1      32.865 -22.669 -16.448  0.00  0.00    +0.288 C 
ATOM      7  C   UNL     1      31.578 -22.453 -15.999  0.00  0.00    +0.215 C 
ATOM      8  C   UNL     1      31.241 -22.683 -14.672  0.00  0.00    +0.196 C 
ATOM      9  C   UNL     1      33.366 -23.306 -14.283  0.00  0.00    +0.207 C 
ATOM     10  C   UNL     1      29.453 -22.013 -15.610  0.00  0.00    +0.164 C 
ATOM     11  H   UNL     1      30.300 -21.772 -17.526  0.00  0.00    +0.126 HD
ATOM     12  H   UNL     1      34.024 -23.902 -12.466  0.00  0.00    +0.166 HD
ATOM     13  H   UNL     1      29.425 -22.483 -13.595  0.00  0.00    +0.150 HD
ENDROOT
BRANCH   4  14
ATOM     14  C   UNL     1      35.718 -24.069 -13.544  0.00  0.00    +0.059 C 
ATOM     15  C   UNL     1      38.428 -24.671 -13.865  0.00  0.00    +0.122 C 
ATOM     16  C   UNL     1      36.693 -23.222 -13.013  0.00  0.00    +0.017 C 
ATOM     17  C   UNL     1      36.105 -25.220 -14.238  0.00  0.00    +0.017 C 
ATOM     18  C   UNL     1      38.046 -23.522 -13.172  0.00  0.00    +0.021 C 
ATOM     19  C   UNL     1      37.458 -25.519 -14.397  0.00  0.00    +0.021 C 
BRANCH  15  20
ATOM     20  S   UNL     1      40.122 -25.047 -14.065  0.00  0.00    +0.057 S 
ATOM     21  O   UNL     1      40.899 -24.101 -13.277  0.00  0.00    -0.153 OA
ATOM     22  O   UNL     1      40.304 -26.478 -13.864  0.00  0.00    -0.153 OA
BRANCH  20  23
ATOM     23  N   UNL     1      40.339 -24.694 -15.722  0.00  0.00    -0.203 NA
ATOM     24  H   UNL     1      40.210 -23.695 -15.878  0.00  0.00    +0.144 HD
ATOM     25  H   UNL     1      39.656 -25.215 -16.273  0.00  0.00    +0.144 HD
ENDBRANCH  20  23
ENDBRANCH  15  20
ENDBRANCH   4  14
BRANCH   6  26
ATOM     26  O   UNL     1      33.254 -22.458 -17.747  0.00  0.00    -0.453 OA
BRANCH  26  27
ATOM     27  C   UNL     1      33.091 -21.150 -18.263  0.00  0.00    +0.208 C 
BRANCH  27  28
ATOM     28  C   UNL     1      34.246 -20.860 -19.220  0.00  0.00    +0.044 C 
ATOM     29  C   UNL     1      34.035 -19.519 -19.935  0.00  0.00    +0.004 C 
ATOM     30  C   UNL     1      35.586 -20.876 -18.472  0.00  0.00    +0.004 C 
ATOM     31  C   UNL     1      35.204 -19.181 -20.858  0.00  0.00    +0.000 C 
ATOM     32  C   UNL     1      36.752 -20.536 -19.398  0.00  0.00    +0.000 C 
ATOM     33  C   UNL     1      36.535 -19.205 -20.113  0.00  0.00    +0.000 C 
ENDBRANCH  27  28
ENDBRANCH  26  27
ENDBRANCH   6  26
TORSDOF 6
ENDMDL
MODEL 3
REMARK VINA RESULT:     -11.9      2.991      6.796
REMARK  Name = 4566
REMARK  6 active torsions:
REMARK  status: ('A' for Active; 'I' for Inactive)
REMARK    1  A    between atoms: N_4  and  C_14
REMARK    2  A    between atoms: C_6  and  O_26
REMARK    3  A    between atoms: C_15  and  S_20
REMARK    4  A    between atoms: S_20  and  N_23
REMARK    5  A    between atoms: O_26  and  C_27
REMARK    6  A    between atoms: C_27  and  C_28
REMARK                            x       y       z     vdW  Elec       q    Type
REMARK                         _______ _______ _______ _____ _____    ______ ____
ROOT
ATOM      1  N   UNL     1      34.767 -23.295 -14.056  0.00  0.00    -0.293 NA
ATOM      2  N   UNL     1      38.321 -23.563 -13.147  0.00  0.00    -0.266 NA
ATOM      3  N   UNL     1      35.160 -23.763 -11.694  0.00  0.00    -0.316 NA
ATOM      4  N   UNL     1      32.994 -23.542 -12.548  0.00  0.00    -0.238 N 
ATOM      5  N   UNL     1      37.513 -23.938 -11.105  0.00  0.00    -0.296 N 
ATOM      6  C   UNL     1      36.093 -23.278 -14.317  0.00  0.00    +0.288 C 
ATOM      7  C   UNL     1      36.962 -23.504 -13.270  0.00  0.00    +0.215 C 
ATOM      8  C   UNL     1      36.483 -23.740 -11.988  0.00  0.00    +0.196 C 
ATOM      9  C   UNL     1      34.388 -23.533 -12.778  0.00  0.00    +0.207 C 
ATOM     10  C   UNL     1      38.603 -23.825 -11.832  0.00  0.00    +0.164 C 
ATOM     11  H   UNL     1      38.978 -23.439 -13.871  0.00  0.00    +0.126 HD
ATOM     12  H   UNL     1      32.748 -23.716 -11.610  0.00  0.00    +0.166 HD
ATOM     13  H   UNL     1      37.450 -24.124 -10.140  0.00  0.00    +0.150 HD
ENDROOT
BRANCH   4  14
ATOM     14  C   UNL     1      31.889 -23.349 -13.395  0.00  0.00    +0.059 C 
ATOM     15  C   UNL     1      29.691 -22.968 -15.078  0.00  0.00    +0.122 C 
ATOM     16  C   UNL     1      31.761 -22.166 -14.125  0.00  0.00    +0.017 C 
ATOM     17  C   UNL     1      30.912 -24.342 -13.511  0.00  0.00    +0.017 C 
ATOM     18  C   UNL     1      30.664 -21.974 -14.966  0.00  0.00    +0.021 C 
ATOM     19  C   UNL     1      29.815 -24.151 -14.352  0.00  0.00    +0.021 C 
BRANCH  15  20
ATOM     20  S   UNL     1      28.318 -22.729 -16.130  0.00  0.00    +0.057 S 
ATOM     21  O   UNL     1      28.601 -21.602 -17.007  0.00  0.00    -0.153 OA
ATOM     22  O   UNL     1      27.944 -24.015 -16.702  0.00  0.00    -0.153 OA
BRANCH  20  23
ATOM     23  N   UNL     1      27.121 -22.263 -15.002  0.00  0.00    -0.203 NA
ATOM     24  H   UNL     1      26.471 -23.036 -14.858  0.00  0.00    +0.144 HD
ATOM     25  H   UNL     1      26.613 -21.454 -15.361  0.00  0.00    +0.144 HD
ENDBRANCH  20  23
ENDBRANCH  15  20
ENDBRANCH   4  14
BRANCH   6  26
ATOM     26  O   UNL     1      36.511 -23.040 -15.603  0.00  0.00    -0.453 OA
BRANCH  26  27
ATOM     27  C   UNL     1      36.520 -21.694 -16.039  0.00  0.00    +0.208 C 
BRANCH  27  28
ATOM     28  C   UNL     1      35.965 -21.642 -17.462  0.00  0.00    +0.044 C 
ATOM     29  C   UNL     1      34.434 -21.532 -17.444  0.00  0.00    +0.004 C 
ATOM     30  C   UNL     1      36.588 -20.478 -18.244  0.00  0.00    +0.004 C 
ATOM     31  C   UNL     1      33.859 -21.425 -18.854  0.00  0.00    +0.000 C 
ATOM     32  C   UNL     1      36.009 -20.373 -19.654  0.00  0.00    +0.000 C 
ATOM     33  C   UNL     1      34.486 -20.272 -19.631  0.00  0.00    +0.000 C 
ENDBRANCH  27  28
ENDBRANCH  26  27
ENDBRANCH   6  26
TORSDOF 6
ENDMDL
MODEL 4
REMARK VINA RESULT:     -11.9      2.577      5.533
REMARK  Name = 4566
REMARK  6 active torsions:
REMARK  status: ('A' for Active; 'I' for Inactive)
REMARK    1  A    between atoms: N_4  and  C_14
REMARK    2  A    between atoms: C_6  and  O_26
REMARK    3  A    between atoms: C_15  and  S_20
REMARK    4  A    between atoms: S_20  and  N_23
REMARK    5  A    between atoms: O_26  and  C_27
REMARK    6  A    between atoms: C_27  and  C_28
REMARK                            x       y       z     vdW  Elec       q    Type
REMARK                         _______ _______ _______ _____ _____    ______ ____
ROOT
ATOM      1  N   UNL     1      34.768 -21.933 -16.958  0.00  0.00    -0.293 NA
ATOM      2  N   UNL     1      33.266 -20.489 -19.989  0.00  0.00    -0.266 NA
ATOM      3  N   UNL     1      36.281 -20.512 -18.241  0.00  0.00    -0.316 NA
ATOM      4  N   UNL     1      36.974 -21.559 -16.268  0.00  0.00    -0.238 N 
ATOM      5  N   UNL     1      35.277 -19.563 -20.243  0.00  0.00    -0.296 N 
ATOM      6  C   UNL     1      33.762 -21.728 -17.837  0.00  0.00    +0.288 C 
ATOM      7  C   UNL     1      34.008 -20.916 -18.924  0.00  0.00    +0.215 C 
ATOM      8  C   UNL     1      35.252 -20.327 -19.104  0.00  0.00    +0.196 C 
ATOM      9  C   UNL     1      35.949 -21.320 -17.212  0.00  0.00    +0.207 C 
ATOM     10  C   UNL     1      34.070 -19.682 -20.751  0.00  0.00    +0.164 C 
ATOM     11  H   UNL     1      32.327 -20.719 -20.175  0.00  0.00    +0.126 HD
ATOM     12  H   UNL     1      37.821 -21.101 -16.477  0.00  0.00    +0.166 HD
ATOM     13  H   UNL     1      36.032 -19.042 -20.600  0.00  0.00    +0.150 HD
ENDROOT
BRANCH   4  14
ATOM     14  C   UNL     1      37.022 -22.324 -15.089  0.00  0.00    +0.059 C 
ATOM     15  C   UNL     1      37.120 -23.842 -12.746  0.00  0.00    +0.122 C 
ATOM     16  C   UNL     1      35.990 -22.235 -14.153  0.00  0.00    +0.017 C 
ATOM     17  C   UNL     1      38.104 -23.175 -14.849  0.00  0.00    +0.017 C 
ATOM     18  C   UNL     1      36.038 -22.993 -12.982  0.00  0.00    +0.021 C 
ATOM     19  C   UNL     1      38.152 -23.933 -13.678  0.00  0.00    +0.021 C 
BRANCH  15  20
ATOM     20  S   UNL     1      37.180 -24.791 -11.281  0.00  0.00    +0.057 S 
ATOM     21  O   UNL     1      37.383 -26.186 -11.644  0.00  0.00    -0.153 OA
ATOM     22  O   UNL     1      38.096 -24.145 -10.350  0.00  0.00    -0.153 OA
BRANCH  20  23
ATOM     23  N   UNL     1      35.585 -24.598 -10.702  0.00  0.00    -0.203 NA
ATOM     24  H   UNL     1      35.608 -24.397  -9.702  0.00  0.00    +0.144 HD
ATOM     25  H   UNL     1      35.058 -25.456 -10.863  0.00  0.00    +0.144 HD
ENDBRANCH  20  23
ENDBRANCH  15  20
ENDBRANCH   4  14
BRANCH   6  26
ATOM     26  O   UNL     1      32.552 -22.336 -17.610  0.00  0.00    -0.453 OA
BRANCH  26  27
ATOM     27  C   UNL     1      31.836 -21.934 -16.458  0.00  0.00    +0.208 C 
BRANCH  27  28
ATOM     28  C   UNL     1      31.767 -23.117 -15.493  0.00  0.00    +0.044 C 
ATOM     29  C   UNL     1      32.497 -22.792 -14.183  0.00  0.00    +0.004 C 
ATOM     30  C   UNL     1      30.309 -23.512 -15.224  0.00  0.00    +0.004 C 
ATOM     31  C   UNL     1      32.397 -23.940 -13.182  0.00  0.00    +0.000 C 
ATOM     32  C   UNL     1      30.212 -24.659 -14.220  0.00  0.00    +0.000 C 
ATOM     33  C   UNL     1      30.946 -24.335 -12.922  0.00  0.00    +0.000 C 
ENDBRANCH  27  28
ENDBRANCH  26  27
ENDBRANCH   6  26
TORSDOF 6
ENDMDL
MODEL 5
REMARK VINA RESULT:     -11.9      3.050      6.786
REMARK  Name = 4566
REMARK  6 active torsions:
REMARK  status: ('A' for Active; 'I' for Inactive)
REMARK    1  A    between atoms: N_4  and  C_14
REMARK    2  A    between atoms: C_6  and  O_26
REMARK    3  A    between atoms: C_15  and  S_20
REMARK    4  A    between atoms: S_20  and  N_23
REMARK    5  A    between atoms: O_26  and  C_27
REMARK    6  A    between atoms: C_27  and  C_28
REMARK                            x       y       z     vdW  Elec       q    Type
REMARK                         _______ _______ _______ _____ _____    ______ ____
ROOT
ATOM      1  N   UNL     1      34.761 -23.047 -15.030  0.00  0.00    -0.293 NA
ATOM      2  N   UNL     1      38.425 -23.231 -14.756  0.00  0.00    -0.266 NA
ATOM      3  N   UNL     1      35.555 -24.315 -13.103  0.00  0.00    -0.316 NA
ATOM      4  N   UNL     1      33.270 -24.038 -13.521  0.00  0.00    -0.238 N 
ATOM      5  N   UNL     1      37.978 -24.431 -12.932  0.00  0.00    -0.296 N 
ATOM      6  C   UNL     1      36.025 -22.784 -15.431  0.00  0.00    +0.288 C 
ATOM      7  C   UNL     1      37.062 -23.285 -14.672  0.00  0.00    +0.215 C 
ATOM      8  C   UNL     1      36.809 -24.035 -13.531  0.00  0.00    +0.196 C 
ATOM      9  C   UNL     1      34.607 -23.786 -13.905  0.00  0.00    +0.207 C 
ATOM     10  C   UNL     1      38.929 -23.933 -13.692  0.00  0.00    +0.164 C 
ATOM     11  H   UNL     1      38.948 -22.773 -15.452  0.00  0.00    +0.126 HD
ATOM     12  H   UNL     1      33.188 -24.576 -12.700  0.00  0.00    +0.166 HD
ATOM     13  H   UNL     1      38.081 -24.970 -12.114  0.00  0.00    +0.150 HD
ENDROOT
BRANCH   4  14
ATOM     14  C   UNL     1      32.034 -23.669 -14.080  0.00  0.00    +0.059 C 
ATOM     15  C   UNL     1      29.577 -22.936 -15.190  0.00  0.00    +0.122 C 
ATOM     16  C   UNL     1      31.860 -22.392 -14.618  0.00  0.00    +0.017 C 
ATOM     17  C   UNL     1      30.973 -24.578 -14.099  0.00  0.00    +0.017 C 
ATOM     18  C   UNL     1      30.633 -22.025 -15.172  0.00  0.00    +0.021 C 
ATOM     19  C   UNL     1      29.747 -24.212 -14.654  0.00  0.00    +0.021 C 
BRANCH  15  20
ATOM     20  S   UNL     1      28.041 -22.478 -15.883  0.00  0.00    +0.057 S 
ATOM     21  O   UNL     1      27.035 -22.503 -14.830  0.00  0.00    -0.153 OA
ATOM     22  O   UNL     1      28.233 -21.268 -16.671  0.00  0.00    -0.153 OA
BRANCH  20  23
ATOM     23  N   UNL     1      27.760 -23.785 -16.946  0.00  0.00    -0.203 NA
ATOM     24  H   UNL     1      27.004 -24.364 -16.581  0.00  0.00    +0.144 HD
ATOM     25  H   UNL     1      28.609 -24.345 -17.027  0.00  0.00    +0.144 HD
ENDBRANCH  20  23
ENDBRANCH  15  20
ENDBRANCH   4  14
BRANCH   6  26
ATOM     26  O   UNL     1      36.217 -22.038 -16.567  0.00  0.00    -0.453 OA
BRANCH  26  27
ATOM     27  C   UNL     1      35.172 -22.039 -17.522  0.00  0.00    +0.208 C 
BRANCH  27  28
ATOM     28  C   UNL     1      35.248 -20.741 -18.324  0.00  0.00    +0.044 C 
ATOM     29  C   UNL     1      36.571 -20.657 -19.096  0.00  0.00    +0.004 C 
ATOM     30  C   UNL     1      34.051 -20.621 -19.276  0.00  0.00    +0.004 C 
ATOM     31  C   UNL     1      36.649 -19.392 -19.949  0.00  0.00    +0.000 C 
ATOM     32  C   UNL     1      34.132 -19.356 -20.128  0.00  0.00    +0.000 C 
ATOM     33  C   UNL     1      35.453 -19.274 -20.888  0.00  0.00    +0.000 C 
ENDBRANCH  27  28
ENDBRANCH  26  27
ENDBRANCH   6  26
TORSDOF 6
ENDMDL
MODEL 6
REMARK VINA RESULT:     -11.4      3.510      7.203
REMARK  Name = 4566
REMARK  6 active torsions:
REMARK  status: ('A' for Active; 'I' for Inactive)
REMARK    1  A    between atoms: N_4  and  C_14
REMARK    2  A    between atoms: C_6  and  O_26
REMARK    3  A    between atoms: C_15  and  S_20
REMARK    4  A    between atoms: S_20  and  N_23
REMARK    5  A    between atoms: O_26  and  C_27
REMARK    6  A    between atoms: C_27  and  C_28
REMARK                            x       y       z     vdW  Elec       q    Type
REMARK                         _______ _______ _______ _____ _____    ______ ____
ROOT
ATOM      1  N   UNL     1      34.007 -22.085 -15.889  0.00  0.00    -0.293 NA
ATOM      2  N   UNL     1      33.050 -24.035 -12.921  0.00  0.00    -0.266 NA
ATOM      3  N   UNL     1      31.798 -23.110 -16.039  0.00  0.00    -0.316 NA
ATOM      4  N   UNL     1      32.661 -21.814 -17.785  0.00  0.00    -0.238 N 
ATOM      5  N   UNL     1      31.176 -24.397 -14.072  0.00  0.00    -0.296 N 
ATOM      6  C   UNL     1      34.208 -22.597 -14.655  0.00  0.00    +0.288 C 
ATOM      7  C   UNL     1      33.207 -23.370 -14.104  0.00  0.00    +0.215 C 
ATOM      8  C   UNL     1      32.030 -23.609 -14.801  0.00  0.00    +0.196 C 
ATOM      9  C   UNL     1      32.831 -22.369 -16.496  0.00  0.00    +0.207 C 
ATOM     10  C   UNL     1      31.818 -24.635 -12.949  0.00  0.00    +0.164 C 
ATOM     11  H   UNL     1      33.702 -24.076 -12.184  0.00  0.00    +0.126 HD
ATOM     12  H   UNL     1      31.796 -22.036 -18.202  0.00  0.00    +0.166 HD
ATOM     13  H   UNL     1      30.281 -24.713 -14.332  0.00  0.00    +0.150 HD
ENDROOT
BRANCH   4  14
ATOM     14  C   UNL     1      33.484 -21.006 -18.588  0.00  0.00    +0.059 C 
ATOM     15  C   UNL     1      35.119 -19.397 -20.184  0.00  0.00    +0.122 C 
ATOM     16  C   UNL     1      34.873 -21.142 -18.531  0.00  0.00    +0.017 C 
ATOM     17  C   UNL     1      32.916 -20.061 -19.447  0.00  0.00    +0.017 C 
ATOM     18  C   UNL     1      35.690 -20.339 -19.328  0.00  0.00    +0.021 C 
ATOM     19  C   UNL     1      33.733 -19.258 -20.244  0.00  0.00    +0.021 C 
BRANCH  15  20
ATOM     20  S   UNL     1      36.141 -18.392 -21.181  0.00  0.00    +0.057 S 
ATOM     21  O   UNL     1      37.526 -18.608 -20.785  0.00  0.00    -0.153 OA
ATOM     22  O   UNL     1      35.751 -18.572 -22.572  0.00  0.00    -0.153 OA
BRANCH  20  23
ATOM     23  N   UNL     1      35.659 -16.833 -20.675  0.00  0.00    -0.203 NA
ATOM     24  H   UNL     1      35.142 -16.376 -21.426  0.00  0.00    +0.144 HD
ATOM     25  H   UNL     1      36.485 -16.279 -20.446  0.00  0.00    +0.144 HD
ENDBRANCH  20  23
ENDBRANCH  15  20
ENDBRANCH   4  14
BRANCH   6  26
ATOM     26  O   UNL     1      35.391 -22.329 -14.011  0.00  0.00    -0.453 OA
BRANCH  26  27
ATOM     27  C   UNL     1      36.581 -22.472 -14.765  0.00  0.00    +0.208 C 
BRANCH  27  28
ATOM     28  C   UNL     1      37.545 -23.364 -13.984  0.00  0.00    +0.044 C 
ATOM     29  C   UNL     1      37.396 -23.132 -12.475  0.00  0.00    +0.004 C 
ATOM     30  C   UNL     1      37.321 -24.841 -14.335  0.00  0.00    +0.004 C 
ATOM     31  C   UNL     1      38.312 -24.051 -11.669  0.00  0.00    +0.000 C 
ATOM     32  C   UNL     1      38.238 -25.757 -13.527  0.00  0.00    +0.000 C 
ATOM     33  C   UNL     1      38.092 -25.518 -12.027  0.00  0.00    +0.000 C 
ENDBRANCH  27  28
ENDBRANCH  26  27
ENDBRANCH   6  26
TORSDOF 6
ENDMDL
MODEL 7
REMARK VINA RESULT:     -10.2      3.604      7.669
REMARK  Name = 4566
REMARK  6 active torsions:
REMARK  status: ('A' for Active; 'I' for Inactive)
REMARK    1  A    between atoms: N_4  and  C_14
REMARK    2  A    between atoms: C_6  and  O_26
REMARK    3  A    between atoms: C_15  and  S_20
REMARK    4  A    between atoms: S_20  and  N_23
REMARK    5  A    between atoms: O_26  and  C_27
REMARK    6  A    between atoms: C_27  and  C_28
REMARK                            x       y       z     vdW  Elec       q    Type
REMARK                         _______ _______ _______ _____ _____    ______ ____
ROOT
ATOM      1  N   UNL     1      35.901 -22.993 -15.179  0.00  0.00    -0.293 NA
ATOM      2  N   UNL     1      36.477 -25.068 -12.197  0.00  0.00    -0.266 NA
ATOM      3  N   UNL     1      38.228 -23.064 -14.447  0.00  0.00    -0.316 NA
ATOM      4  N   UNL     1      37.577 -21.820 -16.318  0.00  0.00    -0.238 N 
ATOM      5  N   UNL     1      38.597 -24.438 -12.475  0.00  0.00    -0.296 N 
ATOM      6  C   UNL     1      35.515 -23.809 -14.173  0.00  0.00    +0.288 C 
ATOM      7  C   UNL     1      36.482 -24.258 -13.297  0.00  0.00    +0.215 C 
ATOM      8  C   UNL     1      37.810 -23.881 -13.450  0.00  0.00    +0.196 C 
ATOM      9  C   UNL     1      37.216 -22.675 -15.252  0.00  0.00    +0.207 C 
ATOM     10  C   UNL     1      37.767 -25.145 -11.739  0.00  0.00    +0.164 C 
ATOM     11  H   UNL     1      35.692 -25.514 -11.805  0.00  0.00    +0.126 HD
ATOM     12  H   UNL     1      38.538 -21.607 -16.347  0.00  0.00    +0.166 HD
ATOM     13  H   UNL     1      39.568 -24.333 -12.354  0.00  0.00    +0.150 HD
ENDROOT
BRANCH   4  14
ATOM     14  C   UNL     1      36.832 -21.214 -17.345  0.00  0.00    +0.059 C 
ATOM     15  C   UNL     1      35.355 -20.010 -19.388  0.00  0.00    +0.122 C 
ATOM     16  C   UNL     1      35.493 -21.557 -17.538  0.00  0.00    +0.017 C 
ATOM     17  C   UNL     1      37.431 -20.265 -18.179  0.00  0.00    +0.017 C 
ATOM     18  C   UNL     1      34.754 -20.957 -18.558  0.00  0.00    +0.021 C 
ATOM     19  C   UNL     1      36.692 -19.664 -19.199  0.00  0.00    +0.021 C 
BRANCH  15  20
ATOM     20  S   UNL     1      34.431 -19.258 -20.665  0.00  0.00    +0.057 S 
ATOM     21  O   UNL     1      35.088 -19.537 -21.934  0.00  0.00    -0.153 OA
ATOM     22  O   UNL     1      33.028 -19.605 -20.485  0.00  0.00    -0.153 OA
BRANCH  20  23
ATOM     23  N   UNL     1      34.639 -17.605 -20.288  0.00  0.00    -0.203 NA
ATOM     24  H   UNL     1      34.325 -17.035 -21.074  0.00  0.00    +0.144 HD
ATOM     25  H   UNL     1      35.625 -17.419 -20.106  0.00  0.00    +0.144 HD
ENDBRANCH  20  23
ENDBRANCH  15  20
ENDBRANCH   4  14
BRANCH   6  26
ATOM     26  O   UNL     1      34.190 -24.150 -14.069  0.00  0.00    -0.453 OA
BRANCH  26  27
ATOM     27  C   UNL     1      33.435 -23.500 -13.063  0.00  0.00    +0.208 C 
BRANCH  27  28
ATOM     28  C   UNL     1      32.034 -23.230 -13.607  0.00  0.00    +0.044 C 
ATOM     29  C   UNL     1      32.099 -22.760 -15.067  0.00  0.00    +0.004 C 
ATOM     30  C   UNL     1      31.151 -24.479 -13.474  0.00  0.00    +0.004 C 
ATOM     31  C   UNL     1      30.706 -22.535 -15.650  0.00  0.00    +0.000 C 
ATOM     32  C   UNL     1      29.759 -24.250 -14.061  0.00  0.00    +0.000 C 
ATOM     33  C   UNL     1      29.830 -23.776 -15.509  0.00  0.00    +0.000 C 
ENDBRANCH  27  28
ENDBRANCH  26  27
ENDBRANCH   6  26
TORSDOF 6
ENDMDL
MODEL 8
REMARK VINA RESULT:      -9.9      8.141     11.442
REMARK  Name = 4566
REMARK  6 active torsions:
REMARK  status: ('A' for Active; 'I' for Inactive)
REMARK    1  A    between atoms: N_4  and  C_14
REMARK    2  A    between atoms: C_6  and  O_26
REMARK    3  A    between atoms: C_15  and  S_20
REMARK    4  A    between atoms: S_20  and  N_23
REMARK    5  A    between atoms: O_26  and  C_27
REMARK    6  A    between atoms: C_27  and  C_28
REMARK                            x       y       z     vdW  Elec       q    Type
REMARK                         _______ _______ _______ _____ _____    ______ ____
ROOT
ATOM      1  N   UNL     1      34.429 -14.623 -22.802  0.00  0.00    -0.293 NA
ATOM      2  N   UNL     1      33.546 -11.448 -24.436  0.00  0.00    -0.266 NA
ATOM      3  N   UNL     1      34.513 -14.698 -25.239  0.00  0.00    -0.316 NA
ATOM      4  N   UNL     1      35.027 -16.577 -23.945  0.00  0.00    -0.238 N 
ATOM      5  N   UNL     1      33.927 -12.595 -26.309  0.00  0.00    -0.296 N 
ATOM      6  C   UNL     1      34.052 -13.325 -22.813  0.00  0.00    +0.288 C 
ATOM      7  C   UNL     1      33.902 -12.705 -24.036  0.00  0.00    +0.215 C 
ATOM      8  C   UNL     1      34.134 -13.398 -25.216  0.00  0.00    +0.196 C 
ATOM      9  C   UNL     1      34.633 -15.221 -24.000  0.00  0.00    +0.207 C 
ATOM     10  C   UNL     1      33.575 -11.431 -25.806  0.00  0.00    +0.164 C 
ATOM     11  H   UNL     1      33.312 -10.693 -23.849  0.00  0.00    +0.126 HD
ATOM     12  H   UNL     1      35.169 -16.986 -24.830  0.00  0.00    +0.166 HD
ATOM     13  H   UNL     1      34.021 -12.836 -27.259  0.00  0.00    +0.150 HD
ENDROOT
BRANCH   4  14
ATOM     14  C   UNL     1      35.256 -17.458 -22.873  0.00  0.00    +0.059 C 
ATOM     15  C   UNL     1      35.710 -19.210 -20.744  0.00  0.00    +0.122 C 
ATOM     16  C   UNL     1      36.420 -17.348 -22.110  0.00  0.00    +0.017 C 
ATOM     17  C   UNL     1      34.318 -18.449 -22.566  0.00  0.00    +0.017 C 
ATOM     18  C   UNL     1      36.648 -18.223 -21.047  0.00  0.00    +0.021 C 
ATOM     19  C   UNL     1      34.546 -19.323 -21.503  0.00  0.00    +0.021 C 
BRANCH  15  20
ATOM     20  S   UNL     1      35.994 -20.305 -19.414  0.00  0.00    +0.057 S 
ATOM     21  O   UNL     1      36.431 -21.584 -19.956  0.00  0.00    -0.153 OA
ATOM     22  O   UNL     1      36.813 -19.623 -18.421  0.00  0.00    -0.153 OA
BRANCH  20  23
ATOM     23  N   UNL     1      34.413 -20.480 -18.792  0.00  0.00    -0.203 NA
ATOM     24  H   UNL     1      34.453 -20.548 -17.775  0.00  0.00    +0.144 HD
ATOM     25  H   UNL     1      33.990 -21.327 -19.172  0.00  0.00    +0.144 HD
ENDBRANCH  20  23
ENDBRANCH  15  20
ENDBRANCH   4  14
BRANCH   6  26
ATOM     26  O   UNL     1      33.835 -12.689 -21.615  0.00  0.00    -0.453 OA
BRANCH  26  27
ATOM     27  C   UNL     1      32.721 -13.113 -20.854  0.00  0.00    +0.208 C 
BRANCH  27  28
ATOM     28  C   UNL     1      31.932 -11.879 -20.421  0.00  0.00    +0.044 C 
ATOM     29  C   UNL     1      31.977 -11.713 -18.896  0.00  0.00    +0.004 C 
ATOM     30  C   UNL     1      32.464 -10.622 -21.124  0.00  0.00    +0.004 C 
ATOM     31  C   UNL     1      31.239 -10.455 -18.443  0.00  0.00    +0.000 C 
ATOM     32  C   UNL     1      31.725  -9.366 -20.667  0.00  0.00    +0.000 C 
ATOM     33  C   UNL     1      31.766  -9.209 -19.150  0.00  0.00    +0.000 C 
ENDBRANCH  27  28
ENDBRANCH  26  27
ENDBRANCH   6  26
TORSDOF 6
ENDMDL
