MODEL 1
REMARK VINA RESULT:     -12.4      0.000      0.000
REMARK  Name = 25101874
REMARK  5 active torsions:
REMARK  status: ('A' for Active; 'I' for Inactive)
REMARK    1  A    between atoms: N_1  and  C_22
REMARK    2  A    between atoms: C_2  and  N_8
REMARK    3  A    between atoms: N_8  and  C_11
REMARK    4  A    between atoms: C_11  and  C_14
REMARK    5  A    between atoms: C_22  and  C_28
REMARK                            x       y       z     vdW  Elec       q    Type
REMARK                         _______ _______ _______ _____ _____    ______ ____
ROOT
ATOM      1  N   UNL     1      34.628 -14.556 -21.973  0.00  0.00    +0.388 N 
ATOM      2  C   UNL     1      35.674 -17.288 -21.897  0.00  0.00    -0.066 C 
ATOM      3  C   UNL     1      35.269 -15.074 -20.757  0.00  0.00    -0.079 C 
ATOM      4  C   UNL     1      35.204 -15.167 -23.180  0.00  0.00    -0.079 C 
ATOM      5  C   UNL     1      35.113 -16.593 -20.653  0.00  0.00    -0.044 C 
ATOM      6  C   UNL     1      35.045 -16.689 -23.158  0.00  0.00    -0.044 C 
ATOM      7  H   UNL     1      33.640 -14.805 -21.937  0.00  0.00    -0.080 HD
ENDROOT
BRANCH   2   8
ATOM      8  N   UNL     1      35.430 -18.727 -21.825  0.00  0.00    +0.389 N 
ATOM      9  H   UNL     1      36.245 -19.184 -21.416  0.00  0.00    -0.084 HD
ATOM     10  H   UNL     1      35.262 -19.077 -22.768  0.00  0.00    -0.084 HD
BRANCH   8  11
ATOM     11  C   UNL     1      34.262 -19.013 -21.006  0.00  0.00    -0.034 C 
BRANCH  11  14
ATOM     12  O   UNL     1      35.717 -22.215 -16.657  0.00  0.00    -0.474 OA
ATOM     13  N   UNL     1      35.912 -20.012 -19.526  0.00  0.00    -0.247 NA
ATOM     14  C   UNL     1      34.601 -19.890 -19.830  0.00  0.00    +0.037 C 
ATOM     15  C   UNL     1      33.580 -20.515 -19.132  0.00  0.00    +0.011 C 
ATOM     16  C   UNL     1      33.919 -21.327 -18.049  0.00  0.00    +0.015 C 
ATOM     17  C   UNL     1      32.849 -22.027 -17.262  0.00  0.00    +0.033 C 
ATOM     18  C   UNL     1      35.264 -21.453 -17.696  0.00  0.00    +0.154 C 
ATOM     19  C   UNL     1      33.459 -23.136 -16.415  0.00  0.00    +0.052 C 
ATOM     20  C   UNL     1      36.213 -20.794 -18.466  0.00  0.00    +0.135 C 
ATOM     21  C   UNL     1      34.707 -22.611 -15.721  0.00  0.00    +0.206 C 
ENDBRANCH  11  14
ENDBRANCH   8  11
ENDBRANCH   2   8
BRANCH   1  22
ATOM     22  C   UNL     1      34.742 -13.099 -22.032  0.00  0.00    -0.055 C 
BRANCH  22  28
ATOM     23  O   UNL     1      32.056 -13.616 -20.022  0.00  0.00    -0.273 OA
ATOM     24  O   UNL     1      33.712  -8.363 -24.214  0.00  0.00    -0.270 OA
ATOM     25  N   UNL     1      32.686 -11.852 -21.417  0.00  0.00    -0.261 N 
ATOM     26  N   UNL     1      33.186 -10.106 -22.775  0.00  0.00    -0.255 N 
ATOM     27  N   UNL     1      31.371 -10.148 -19.618  0.00  0.00    -0.262 NA
ATOM     28  C   UNL     1      33.445 -12.468 -22.523  0.00  0.00    +0.076 C 
ATOM     29  C   UNL     1      33.710 -11.280 -23.487  0.00  0.00    +0.113 C 
ATOM     30  C   UNL     1      32.597 -10.513 -21.617  0.00  0.00    +0.196 C 
ATOM     31  C   UNL     1      31.977  -9.701 -20.764  0.00  0.00    +0.092 C 
ATOM     32  C   UNL     1      32.094 -12.434 -20.326  0.00  0.00    +0.252 C 
ATOM     33  C   UNL     1      33.206  -8.785 -23.178  0.00  0.00    +0.251 C 
ATOM     34  C   UNL     1      31.953  -8.293 -21.092  0.00  0.00    +0.022 C 
ATOM     35  C   UNL     1      31.417 -11.431 -19.406  0.00  0.00    +0.210 C 
ATOM     36  C   UNL     1      32.528  -7.837 -22.221  0.00  0.00    +0.059 C 
ENDBRANCH  22  28
ENDBRANCH   1  22
TORSDOF 5
ENDMDL
MODEL 2
REMARK VINA RESULT:     -12.1      3.491     12.137
REMARK  Name = 25101874
REMARK  5 active torsions:
REMARK  status: ('A' for Active; 'I' for Inactive)
REMARK    1  A    between atoms: N_1  and  C_22
REMARK    2  A    between atoms: C_2  and  N_8
REMARK    3  A    between atoms: N_8  and  C_11
REMARK    4  A    between atoms: C_11  and  C_14
REMARK    5  A    between atoms: C_22  and  C_28
REMARK                            x       y       z     vdW  Elec       q    Type
REMARK                         _______ _______ _______ _____ _____    ______ ____
ROOT
ATOM      1  N   UNL     1      35.244 -21.418 -17.247  0.00  0.00    +0.388 N 
ATOM      2  C   UNL     1      35.323 -20.306 -19.952  0.00  0.00    -0.066 C 
ATOM      3  C   UNL     1      34.142 -21.667 -18.187  0.00  0.00    -0.079 C 
ATOM      4  C   UNL     1      36.524 -21.272 -17.954  0.00  0.00    -0.079 C 
ATOM      5  C   UNL     1      34.010 -20.525 -19.198  0.00  0.00    -0.044 C 
ATOM      6  C   UNL     1      36.472 -20.117 -18.957  0.00  0.00    -0.044 C 
ATOM      7  H   UNL     1      35.051 -20.542 -16.763  0.00  0.00    -0.080 HD
ENDROOT
BRANCH   2   8
ATOM      8  N   UNL     1      35.209 -19.154 -20.843  0.00  0.00    +0.389 N 
ATOM      9  H   UNL     1      34.248 -18.811 -20.825  0.00  0.00    -0.084 HD
ATOM     10  H   UNL     1      35.465 -19.444 -21.787  0.00  0.00    -0.084 HD
BRANCH   8  11
ATOM     11  C   UNL     1      36.105 -18.086 -20.425  0.00  0.00    -0.034 C 
BRANCH  11  14
ATOM     12  O   UNL     1      34.163 -12.988 -21.660  0.00  0.00    -0.474 OA
ATOM     13  N   UNL     1      35.345 -15.863 -19.799  0.00  0.00    -0.247 NA
ATOM     14  C   UNL     1      35.579 -16.728 -20.809  0.00  0.00    +0.037 C 
ATOM     15  C   UNL     1      35.363 -16.439 -22.148  0.00  0.00    +0.011 C 
ATOM     16  C   UNL     1      34.869 -15.176 -22.480  0.00  0.00    +0.015 C 
ATOM     17  C   UNL     1      34.618 -14.814 -23.915  0.00  0.00    +0.033 C 
ATOM     18  C   UNL     1      34.641 -14.252 -21.458  0.00  0.00    +0.154 C 
ATOM     19  C   UNL     1      33.731 -13.579 -23.999  0.00  0.00    +0.052 C 
ATOM     20  C   UNL     1      34.879 -14.643 -20.149  0.00  0.00    +0.135 C 
ATOM     21  C   UNL     1      34.232 -12.532 -23.016  0.00  0.00    +0.206 C 
ENDBRANCH  11  14
ENDBRANCH   8  11
ENDBRANCH   2   8
BRANCH   1  22
ATOM     22  C   UNL     1      35.325 -22.492 -16.257  0.00  0.00    -0.055 C 
BRANCH  22  28
ATOM     23  O   UNL     1      33.669 -22.416 -13.295  0.00  0.00    -0.273 OA
ATOM     24  O   UNL     1      40.290 -23.733 -14.823  0.00  0.00    -0.270 OA
ATOM     25  N   UNL     1      35.881 -22.896 -13.872  0.00  0.00    -0.261 N 
ATOM     26  N   UNL     1      38.059 -23.337 -14.323  0.00  0.00    -0.255 N 
ATOM     27  N   UNL     1      35.918 -24.658 -11.690  0.00  0.00    -0.262 NA
ATOM     28  C   UNL     1      36.171 -22.072 -15.062  0.00  0.00    +0.076 C 
ATOM     29  C   UNL     1      37.684 -22.316 -15.312  0.00  0.00    +0.113 C 
ATOM     30  C   UNL     1      36.988 -23.598 -13.523  0.00  0.00    +0.196 C 
ATOM     31  C   UNL     1      37.008 -24.438 -12.492  0.00  0.00    +0.092 C 
ATOM     32  C   UNL     1      34.730 -22.998 -13.134  0.00  0.00    +0.252 C 
ATOM     33  C   UNL     1      39.289 -23.938 -14.142  0.00  0.00    +0.251 C 
ATOM     34  C   UNL     1      38.251 -25.128 -12.225  0.00  0.00    +0.022 C 
ATOM     35  C   UNL     1      34.843 -23.984 -11.982  0.00  0.00    +0.210 C 
ATOM     36  C   UNL     1      39.337 -24.911 -12.990  0.00  0.00    +0.059 C 
ENDBRANCH  22  28
ENDBRANCH   1  22
TORSDOF 5
ENDMDL
MODEL 3
REMARK VINA RESULT:     -11.9      0.824      1.348
REMARK  Name = 25101874
REMARK  5 active torsions:
REMARK  status: ('A' for Active; 'I' for Inactive)
REMARK    1  A    between atoms: N_1  and  C_22
REMARK    2  A    between atoms: C_2  and  N_8
REMARK    3  A    between atoms: N_8  and  C_11
REMARK    4  A    between atoms: C_11  and  C_14
REMARK    5  A    between atoms: C_22  and  C_28
REMARK                            x       y       z     vdW  Elec       q    Type
REMARK                         _______ _______ _______ _____ _____    ______ ____
ROOT
ATOM      1  N   UNL     1      34.681 -14.584 -21.708  0.00  0.00    +0.388 N 
ATOM      2  C   UNL     1      35.710 -17.301 -21.367  0.00  0.00    -0.066 C 
ATOM      3  C   UNL     1      35.150 -15.043 -20.393  0.00  0.00    -0.079 C 
ATOM      4  C   UNL     1      35.419 -15.242 -22.796  0.00  0.00    -0.079 C 
ATOM      5  C   UNL     1      34.983 -16.557 -20.244  0.00  0.00    -0.044 C 
ATOM      6  C   UNL     1      35.260 -16.763 -22.728  0.00  0.00    -0.044 C 
ATOM      7  H   UNL     1      33.698 -14.838 -21.796  0.00  0.00    -0.080 HD
ENDROOT
BRANCH   2   8
ATOM      8  N   UNL     1      35.461 -18.737 -21.265  0.00  0.00    +0.389 N 
ATOM      9  H   UNL     1      35.508 -19.152 -22.196  0.00  0.00    -0.084 HD
ATOM     10  H   UNL     1      34.535 -18.880 -20.860  0.00  0.00    -0.084 HD
BRANCH   8  11
ATOM     11  C   UNL     1      36.448 -19.375 -20.408  0.00  0.00    -0.034 C 
BRANCH  11  14
ATOM     12  O   UNL     1      33.886 -22.481 -16.525  0.00  0.00    -0.474 OA
ATOM     13  N   UNL     1      34.503 -20.527 -19.513  0.00  0.00    -0.247 NA
ATOM     14  C   UNL     1      35.804 -20.209 -19.332  0.00  0.00    +0.037 C 
ATOM     15  C   UNL     1      36.555 -20.599 -18.235  0.00  0.00    +0.011 C 
ATOM     16  C   UNL     1      35.935 -21.367 -17.248  0.00  0.00    +0.015 C 
ATOM     17  C   UNL     1      36.705 -21.814 -16.039  0.00  0.00    +0.033 C 
ATOM     18  C   UNL     1      34.598 -21.732 -17.419  0.00  0.00    +0.154 C 
ATOM     19  C   UNL     1      35.750 -22.275 -14.946  0.00  0.00    +0.052 C 
ATOM     20  C   UNL     1      33.930 -21.281 -18.548  0.00  0.00    +0.135 C 
ATOM     21  C   UNL     1      34.684 -23.172 -15.556  0.00  0.00    +0.206 C 
ENDBRANCH  11  14
ENDBRANCH   8  11
ENDBRANCH   2   8
BRANCH   1  22
ATOM     22  C   UNL     1      34.801 -13.130 -21.814  0.00  0.00    -0.055 C 
BRANCH  22  28
ATOM     23  O   UNL     1      31.978 -13.557 -19.979  0.00  0.00    -0.273 OA
ATOM     24  O   UNL     1      33.943  -8.494 -24.270  0.00  0.00    -0.270 OA
ATOM     25  N   UNL     1      32.711 -11.856 -21.401  0.00  0.00    -0.261 N 
ATOM     26  N   UNL     1      33.312 -10.172 -22.796  0.00  0.00    -0.255 N 
ATOM     27  N   UNL     1      31.277 -10.075 -19.777  0.00  0.00    -0.262 NA
ATOM     28  C   UNL     1      33.544 -12.520 -22.423  0.00  0.00    +0.076 C 
ATOM     29  C   UNL     1      33.881 -11.376 -23.417  0.00  0.00    +0.113 C 
ATOM     30  C   UNL     1      32.641 -10.527 -21.665  0.00  0.00    +0.196 C 
ATOM     31  C   UNL     1      31.965  -9.679 -20.895  0.00  0.00    +0.092 C 
ATOM     32  C   UNL     1      32.042 -12.390 -20.331  0.00  0.00    +0.252 C 
ATOM     33  C   UNL     1      33.364  -8.870 -23.254  0.00  0.00    +0.251 C 
ATOM     34  C   UNL     1      31.968  -8.286 -21.285  0.00  0.00    +0.022 C 
ATOM     35  C   UNL     1      31.305 -11.347 -19.506  0.00  0.00    +0.210 C 
ATOM     36  C   UNL     1      32.623  -7.880 -22.390  0.00  0.00    +0.059 C 
ENDBRANCH  22  28
ENDBRANCH   1  22
TORSDOF 5
ENDMDL
MODEL 4
REMARK VINA RESULT:     -11.9      3.158      5.835
REMARK  Name = 25101874
REMARK  5 active torsions:
REMARK  status: ('A' for Active; 'I' for Inactive)
REMARK    1  A    between atoms: N_1  and  C_22
REMARK    2  A    between atoms: C_2  and  N_8
REMARK    3  A    between atoms: N_8  and  C_11
REMARK    4  A    between atoms: C_11  and  C_14
REMARK    5  A    between atoms: C_22  and  C_28
REMARK                            x       y       z     vdW  Elec       q    Type
REMARK                         _______ _______ _______ _____ _____    ______ ____
ROOT
ATOM      1  N   UNL     1      34.623 -19.133 -20.636  0.00  0.00    +0.388 N 
ATOM      2  C   UNL     1      35.053 -21.253 -18.665  0.00  0.00    -0.066 C 
ATOM      3  C   UNL     1      35.901 -19.857 -20.588  0.00  0.00    -0.079 C 
ATOM      4  C   UNL     1      33.508 -19.992 -20.212  0.00  0.00    -0.079 C 
ATOM      5  C   UNL     1      36.194 -20.368 -19.175  0.00  0.00    -0.044 C 
ATOM      6  C   UNL     1      33.720 -20.508 -18.787  0.00  0.00    -0.044 C 
ATOM      7  H   UNL     1      34.682 -18.350 -19.985  0.00  0.00    -0.080 HD
ENDROOT
BRANCH   2   8
ATOM      8  N   UNL     1      35.302 -21.654 -17.283  0.00  0.00    +0.389 N 
ATOM      9  H   UNL     1      35.459 -20.820 -16.716  0.00  0.00    -0.084 HD
ATOM     10  H   UNL     1      36.125 -22.257 -17.261  0.00  0.00    -0.084 HD
BRANCH   8  11
ATOM     11  C   UNL     1      34.169 -22.391 -16.745  0.00  0.00    -0.034 C 
BRANCH  11  14
ATOM     12  O   UNL     1      34.757 -23.867 -11.382  0.00  0.00    -0.474 OA
ATOM     13  N   UNL     1      33.311 -23.282 -14.652  0.00  0.00    -0.247 NA
ATOM     14  C   UNL     1      34.378 -22.768 -15.302  0.00  0.00    +0.037 C 
ATOM     15  C   UNL     1      35.623 -22.575 -14.724  0.00  0.00    +0.011 C 
ATOM     16  C   UNL     1      35.791 -22.927 -13.383  0.00  0.00    +0.015 C 
ATOM     17  C   UNL     1      37.120 -22.736 -12.711  0.00  0.00    +0.033 C 
ATOM     18  C   UNL     1      34.713 -23.482 -12.692  0.00  0.00    +0.154 C 
ATOM     19  C   UNL     1      36.959 -22.806 -11.198  0.00  0.00    +0.052 C 
ATOM     20  C   UNL     1      33.504 -23.625 -13.359  0.00  0.00    +0.135 C 
ATOM     21  C   UNL     1      36.078 -23.993 -10.841  0.00  0.00    +0.206 C 
ENDBRANCH  11  14
ENDBRANCH   8  11
ENDBRANCH   2   8
BRANCH   1  22
ATOM     22  C   UNL     1      34.384 -18.607 -21.980  0.00  0.00    -0.055 C 
BRANCH  22  28
ATOM     23  O   UNL     1      34.525 -17.739 -25.258  0.00  0.00    -0.273 OA
ATOM     24  O   UNL     1      35.373 -14.021 -19.482  0.00  0.00    -0.270 OA
ATOM     25  N   UNL     1      34.756 -16.524 -23.277  0.00  0.00    -0.261 N 
ATOM     26  N   UNL     1      35.040 -15.264 -21.413  0.00  0.00    -0.255 N 
ATOM     27  N   UNL     1      33.667 -14.339 -24.657  0.00  0.00    -0.262 NA
ATOM     28  C   UNL     1      35.339 -17.463 -22.298  0.00  0.00    +0.076 C 
ATOM     29  C   UNL     1      35.606 -16.572 -21.055  0.00  0.00    +0.113 C 
ATOM     30  C   UNL     1      34.598 -15.306 -22.701  0.00  0.00    +0.196 C 
ATOM     31  C   UNL     1      34.078 -14.268 -23.351  0.00  0.00    +0.092 C 
ATOM     32  C   UNL     1      34.416 -16.723 -24.590  0.00  0.00    +0.252 C 
ATOM     33  C   UNL     1      34.981 -14.119 -20.641  0.00  0.00    +0.251 C 
ATOM     34  C   UNL     1      33.962 -13.024 -22.623  0.00  0.00    +0.022 C 
ATOM     35  C   UNL     1      33.825 -15.487 -25.248  0.00  0.00    +0.210 C 
ATOM     36  C   UNL     1      34.377 -12.930 -21.346  0.00  0.00    +0.059 C 
ENDBRANCH  22  28
ENDBRANCH   1  22
TORSDOF 5
ENDMDL
MODEL 5
REMARK VINA RESULT:     -11.8      1.079      2.613
REMARK  Name = 25101874
REMARK  5 active torsions:
REMARK  status: ('A' for Active; 'I' for Inactive)
REMARK    1  A    between atoms: N_1  and  C_22
REMARK    2  A    between atoms: C_2  and  N_8
REMARK    3  A    between atoms: N_8  and  C_11
REMARK    4  A    between atoms: C_11  and  C_14
REMARK    5  A    between atoms: C_22  and  C_28
REMARK                            x       y       z     vdW  Elec       q    Type
REMARK                         _______ _______ _______ _____ _____    ______ ____
ROOT
ATOM      1  N   UNL     1      34.189 -14.889 -23.215  0.00  0.00    +0.388 N 
ATOM      2  C   UNL     1      35.623 -17.401 -22.773  0.00  0.00    -0.066 C 
ATOM      3  C   UNL     1      35.281 -14.960 -22.234  0.00  0.00    -0.079 C 
ATOM      4  C   UNL     1      34.410 -15.826 -24.327  0.00  0.00    -0.079 C 
ATOM      5  C   UNL     1      35.416 -16.372 -21.659  0.00  0.00    -0.044 C 
ATOM      6  C   UNL     1      34.515 -17.267 -23.821  0.00  0.00    -0.044 C 
ATOM      7  H   UNL     1      33.326 -15.160 -22.744  0.00  0.00    -0.080 HD
ENDROOT
BRANCH   2   8
ATOM      8  N   UNL     1      35.654 -18.751 -22.215  0.00  0.00    +0.389 N 
ATOM      9  H   UNL     1      36.488 -18.856 -21.638  0.00  0.00    -0.084 HD
ATOM     10  H   UNL     1      35.668 -19.422 -22.984  0.00  0.00    -0.084 HD
BRANCH   8  11
ATOM     11  C   UNL     1      34.475 -19.001 -21.400  0.00  0.00    -0.034 C 
BRANCH  11  14
ATOM     12  O   UNL     1      35.873 -22.004 -16.893  0.00  0.00    -0.474 OA
ATOM     13  N   UNL     1      36.106 -19.943 -19.863  0.00  0.00    -0.247 NA
ATOM     14  C   UNL     1      34.799 -19.823 -20.181  0.00  0.00    +0.037 C 
ATOM     15  C   UNL     1      33.767 -20.405 -19.461  0.00  0.00    +0.011 C 
ATOM     16  C   UNL     1      34.092 -21.167 -18.338  0.00  0.00    +0.015 C 
ATOM     17  C   UNL     1      33.010 -21.819 -17.526  0.00  0.00    +0.033 C 
ATOM     18  C   UNL     1      35.434 -21.289 -17.971  0.00  0.00    +0.154 C 
ATOM     19  C   UNL     1      33.604 -22.892 -16.623  0.00  0.00    +0.052 C 
ATOM     20  C   UNL     1      36.393 -20.676 -18.765  0.00  0.00    +0.135 C 
ATOM     21  C   UNL     1      34.853 -22.346 -15.947  0.00  0.00    +0.206 C 
ENDBRANCH  11  14
ENDBRANCH   8  11
ENDBRANCH   2   8
BRANCH   1  22
ATOM     22  C   UNL     1      34.041 -13.524 -23.718  0.00  0.00    -0.055 C 
BRANCH  22  28
ATOM     23  O   UNL     1      34.956 -10.476 -24.900  0.00  0.00    -0.273 OA
ATOM     24  O   UNL     1      31.816 -12.372 -19.030  0.00  0.00    -0.270 OA
ATOM     25  N   UNL     1      33.859 -11.168 -22.958  0.00  0.00    -0.261 N 
ATOM     26  N   UNL     1      32.826 -11.739 -21.021  0.00  0.00    -0.255 N 
ATOM     27  N   UNL     1      32.477  -8.728 -23.040  0.00  0.00    -0.262 NA
ATOM     28  C   UNL     1      34.403 -12.504 -22.645  0.00  0.00    +0.076 C 
ATOM     29  C   UNL     1      33.754 -12.849 -21.277  0.00  0.00    +0.113 C 
ATOM     30  C   UNL     1      32.959 -10.809 -22.007  0.00  0.00    +0.196 C 
ATOM     31  C   UNL     1      32.299  -9.655 -22.045  0.00  0.00    +0.092 C 
ATOM     32  C   UNL     1      34.155 -10.318 -23.992  0.00  0.00    +0.252 C 
ATOM     33  C   UNL     1      31.968 -11.574 -19.951  0.00  0.00    +0.251 C 
ATOM     34  C   UNL     1      31.366  -9.392 -20.972  0.00  0.00    +0.022 C 
ATOM     35  C   UNL     1      33.350  -9.030 -23.957  0.00  0.00    +0.210 C 
ATOM     36  C   UNL     1      31.191 -10.282 -19.977  0.00  0.00    +0.059 C 
ENDBRANCH  22  28
ENDBRANCH   1  22
TORSDOF 5
ENDMDL
MODEL 6
REMARK VINA RESULT:     -11.7      3.033     11.589
REMARK  Name = 25101874
REMARK  5 active torsions:
REMARK  status: ('A' for Active; 'I' for Inactive)
REMARK    1  A    between atoms: N_1  and  C_22
REMARK    2  A    between atoms: C_2  and  N_8
REMARK    3  A    between atoms: N_8  and  C_11
REMARK    4  A    between atoms: C_11  and  C_14
REMARK    5  A    between atoms: C_22  and  C_28
REMARK                            x       y       z     vdW  Elec       q    Type
REMARK                         _______ _______ _______ _____ _____    ______ ____
ROOT
ATOM      1  N   UNL     1      34.546 -22.022 -18.461  0.00  0.00    +0.388 N 
ATOM      2  C   UNL     1      34.733 -19.477 -19.893  0.00  0.00    -0.066 C 
ATOM      3  C   UNL     1      35.811 -21.274 -18.487  0.00  0.00    -0.079 C 
ATOM      4  C   UNL     1      33.390 -21.116 -18.522  0.00  0.00    -0.079 C 
ATOM      5  C   UNL     1      35.926 -20.428 -19.758  0.00  0.00    -0.044 C 
ATOM      6  C   UNL     1      33.424 -20.264 -19.794  0.00  0.00    -0.044 C 
ATOM      7  H   UNL     1      34.519 -22.621 -19.285  0.00  0.00    -0.080 HD
ENDROOT
BRANCH   2   8
ATOM      8  N   UNL     1      34.810 -18.747 -21.156  0.00  0.00    +0.389 N 
ATOM      9  H   UNL     1      33.914 -18.293 -21.335  0.00  0.00    -0.084 HD
ATOM     10  H   UNL     1      35.029 -19.407 -21.902  0.00  0.00    -0.084 HD
BRANCH   8  11
ATOM     11  C   UNL     1      35.855 -17.736 -21.107  0.00  0.00    -0.034 C 
BRANCH  11  14
ATOM     12  O   UNL     1      33.993 -12.642 -22.477  0.00  0.00    -0.474 OA
ATOM     13  N   UNL     1      35.187 -15.466 -20.547  0.00  0.00    -0.247 NA
ATOM     14  C   UNL     1      35.347 -16.382 -21.527  0.00  0.00    +0.037 C 
ATOM     15  C   UNL     1      35.074 -16.145 -22.865  0.00  0.00    +0.011 C 
ATOM     16  C   UNL     1      34.599 -14.884 -23.230  0.00  0.00    +0.015 C 
ATOM     17  C   UNL     1      34.287 -14.579 -24.666  0.00  0.00    +0.033 C 
ATOM     18  C   UNL     1      34.446 -13.910 -22.242  0.00  0.00    +0.154 C 
ATOM     19  C   UNL     1      33.430 -13.323 -24.764  0.00  0.00    +0.052 C 
ATOM     20  C   UNL     1      34.737 -14.250 -20.928  0.00  0.00    +0.135 C 
ATOM     21  C   UNL     1      34.007 -12.249 -23.854  0.00  0.00    +0.206 C 
ENDBRANCH  11  14
ENDBRANCH   8  11
ENDBRANCH   2   8
BRANCH   1  22
ATOM     22  C   UNL     1      34.474 -22.863 -17.266  0.00  0.00    -0.055 C 
BRANCH  22  28
ATOM     23  O   UNL     1      31.639 -22.343 -15.475  0.00  0.00    -0.273 OA
ATOM     24  O   UNL     1      38.260 -22.894 -13.536  0.00  0.00    -0.270 OA
ATOM     25  N   UNL     1      33.882 -22.582 -14.872  0.00  0.00    -0.261 N 
ATOM     26  N   UNL     1      36.037 -22.758 -14.188  0.00  0.00    -0.255 N 
ATOM     27  N   UNL     1      32.971 -23.734 -12.483  0.00  0.00    -0.262 NA
ATOM     28  C   UNL     1      34.660 -22.034 -16.001  0.00  0.00    +0.076 C 
ATOM     29  C   UNL     1      36.125 -22.082 -15.490  0.00  0.00    +0.113 C 
ATOM     30  C   UNL     1      34.728 -22.989 -13.892  0.00  0.00    +0.196 C 
ATOM     31  C   UNL     1      34.300 -23.539 -12.760  0.00  0.00    +0.092 C 
ATOM     32  C   UNL     1      32.525 -22.689 -14.710  0.00  0.00    +0.252 C 
ATOM     33  C   UNL     1      37.066 -23.089 -13.327  0.00  0.00    +0.251 C 
ATOM     34  C   UNL     1      35.303 -23.932 -11.795  0.00  0.00    +0.022 C 
ATOM     35  C   UNL     1      32.130 -23.334 -13.392  0.00  0.00    +0.210 C 
ATOM     36  C   UNL     1      36.612 -23.733 -12.041  0.00  0.00    +0.059 C 
ENDBRANCH  22  28
ENDBRANCH   1  22
TORSDOF 5
ENDMDL
MODEL 7
REMARK VINA RESULT:     -11.6      2.676     11.451
REMARK  Name = 25101874
REMARK  5 active torsions:
REMARK  status: ('A' for Active; 'I' for Inactive)
REMARK    1  A    between atoms: N_1  and  C_22
REMARK    2  A    between atoms: C_2  and  N_8
REMARK    3  A    between atoms: N_8  and  C_11
REMARK    4  A    between atoms: C_11  and  C_14
REMARK    5  A    between atoms: C_22  and  C_28
REMARK                            x       y       z     vdW  Elec       q    Type
REMARK                         _______ _______ _______ _____ _____    ______ ____
ROOT
ATOM      1  N   UNL     1      35.314 -20.526 -18.666  0.00  0.00    +0.388 N 
ATOM      2  C   UNL     1      35.290 -18.946 -21.129  0.00  0.00    -0.066 C 
ATOM      3  C   UNL     1      34.114 -20.487 -19.514  0.00  0.00    -0.079 C 
ATOM      4  C   UNL     1      36.537 -20.379 -19.467  0.00  0.00    -0.079 C 
ATOM      5  C   UNL     1      34.029 -19.171 -20.290  0.00  0.00    -0.044 C 
ATOM      6  C   UNL     1      36.533 -19.058 -20.242  0.00  0.00    -0.044 C 
ATOM      7  H   UNL     1      35.266 -19.740 -18.019  0.00  0.00    -0.080 HD
ENDROOT
BRANCH   2   8
ATOM      8  N   UNL     1      35.234 -17.643 -21.787  0.00  0.00    +0.389 N 
ATOM      9  H   UNL     1      34.269 -17.441 -22.049  0.00  0.00    -0.084 HD
ATOM     10  H   UNL     1      35.829 -17.669 -22.615  0.00  0.00    -0.084 HD
BRANCH   8  11
ATOM     11  C   UNL     1      35.717 -16.595 -20.900  0.00  0.00    -0.034 C 
BRANCH  11  14
ATOM     12  O   UNL     1      33.186 -11.722 -21.971  0.00  0.00    -0.474 OA
ATOM     13  N   UNL     1      35.347 -14.615 -22.263  0.00  0.00    -0.247 NA
ATOM     14  C   UNL     1      35.010 -15.287 -21.140  0.00  0.00    +0.037 C 
ATOM     15  C   UNL     1      34.073 -14.843 -20.221  0.00  0.00    +0.011 C 
ATOM     16  C   UNL     1      33.435 -13.625 -20.462  0.00  0.00    +0.015 C 
ATOM     17  C   UNL     1      32.413 -13.101 -19.495  0.00  0.00    +0.033 C 
ATOM     18  C   UNL     1      33.745 -12.920 -21.627  0.00  0.00    +0.154 C 
ATOM     19  C   UNL     1      32.160 -11.620 -19.747  0.00  0.00    +0.052 C 
ATOM     20  C   UNL     1      34.706 -13.445 -22.479  0.00  0.00    +0.135 C 
ATOM     21  C   UNL     1      32.000 -11.385 -21.242  0.00  0.00    +0.206 C 
ENDBRANCH  11  14
ENDBRANCH   8  11
ENDBRANCH   2   8
BRANCH   1  22
ATOM     22  C   UNL     1      35.354 -21.768 -17.894  0.00  0.00    -0.055 C 
BRANCH  22  28
ATOM     23  O   UNL     1      32.704 -22.004 -15.787  0.00  0.00    -0.273 OA
ATOM     24  O   UNL     1      39.452 -23.209 -14.831  0.00  0.00    -0.270 OA
ATOM     25  N   UNL     1      34.984 -22.439 -15.533  0.00  0.00    -0.261 N 
ATOM     26  N   UNL     1      37.185 -22.849 -15.171  0.00  0.00    -0.255 N 
ATOM     27  N   UNL     1      34.255 -24.433 -13.700  0.00  0.00    -0.262 NA
ATOM     28  C   UNL     1      35.674 -21.491 -16.430  0.00  0.00    +0.076 C 
ATOM     29  C   UNL     1      37.177 -21.721 -16.114  0.00  0.00    +0.113 C 
ATOM     30  C   UNL     1      35.901 -23.187 -14.868  0.00  0.00    +0.196 C 
ATOM     31  C   UNL     1      35.559 -24.136 -14.001  0.00  0.00    +0.092 C 
ATOM     32  C   UNL     1      33.644 -22.611 -15.300  0.00  0.00    +0.252 C 
ATOM     33  C   UNL     1      38.276 -23.478 -14.604  0.00  0.00    +0.251 C 
ATOM     34  C   UNL     1      36.632 -24.863 -13.360  0.00  0.00    +0.022 C 
ATOM     35  C   UNL     1      33.348 -23.719 -14.302  0.00  0.00    +0.210 C 
ATOM     36  C   UNL     1      37.919 -24.574 -13.630  0.00  0.00    +0.059 C 
ENDBRANCH  22  28
ENDBRANCH   1  22
TORSDOF 5
ENDMDL
MODEL 8
REMARK VINA RESULT:     -11.5      3.262     11.191
REMARK  Name = 25101874
REMARK  5 active torsions:
REMARK  status: ('A' for Active; 'I' for Inactive)
REMARK    1  A    between atoms: N_1  and  C_22
REMARK    2  A    between atoms: C_2  and  N_8
REMARK    3  A    between atoms: N_8  and  C_11
REMARK    4  A    between atoms: C_11  and  C_14
REMARK    5  A    between atoms: C_22  and  C_28
REMARK                            x       y       z     vdW  Elec       q    Type
REMARK                         _______ _______ _______ _____ _____    ______ ____
ROOT
ATOM      1  N   UNL     1      35.084 -21.210 -18.451  0.00  0.00    +0.388 N 
ATOM      2  C   UNL     1      34.922 -19.231 -20.601  0.00  0.00    -0.066 C 
ATOM      3  C   UNL     1      36.257 -20.399 -18.808  0.00  0.00    -0.079 C 
ATOM      4  C   UNL     1      33.835 -20.473 -18.691  0.00  0.00    -0.079 C 
ATOM      5  C   UNL     1      36.215 -19.984 -20.281  0.00  0.00    -0.044 C 
ATOM      6  C   UNL     1      33.712 -20.061 -20.161  0.00  0.00    -0.044 C 
ATOM      7  H   UNL     1      35.082 -22.036 -19.048  0.00  0.00    -0.080 HD
ENDROOT
BRANCH   2   8
ATOM      8  N   UNL     1      34.854 -18.927 -22.029  0.00  0.00    +0.389 N 
ATOM      9  H   UNL     1      33.932 -18.550 -22.247  0.00  0.00    -0.084 HD
ATOM     10  H   UNL     1      35.021 -19.786 -22.554  0.00  0.00    -0.084 HD
BRANCH   8  11
ATOM     11  C   UNL     1      35.869 -17.952 -22.398  0.00  0.00    -0.034 C 
BRANCH  11  14
ATOM     12  O   UNL     1      33.548 -13.371 -24.617  0.00  0.00    -0.474 OA
ATOM     13  N   UNL     1      34.744 -16.765 -24.198  0.00  0.00    -0.247 NA
ATOM     14  C   UNL     1      35.260 -16.690 -22.951  0.00  0.00    +0.037 C 
ATOM     15  C   UNL     1      35.259 -15.541 -22.177  0.00  0.00    +0.011 C 
ATOM     16  C   UNL     1      34.694 -14.383 -22.713  0.00  0.00    +0.015 C 
ATOM     17  C   UNL     1      34.669 -13.112 -21.915  0.00  0.00    +0.033 C 
ATOM     18  C   UNL     1      34.131 -14.436 -23.990  0.00  0.00    +0.154 C 
ATOM     19  C   UNL     1      34.383 -11.924 -22.824  0.00  0.00    +0.052 C 
ATOM     20  C   UNL     1      34.192 -15.633 -24.689  0.00  0.00    +0.135 C 
ATOM     21  C   UNL     1      33.232 -12.270 -23.757  0.00  0.00    +0.206 C 
ENDBRANCH  11  14
ENDBRANCH   8  11
ENDBRANCH   2   8
BRANCH   1  22
ATOM     22  C   UNL     1      35.165 -21.640 -17.056  0.00  0.00    -0.055 C 
BRANCH  22  28
ATOM     23  O   UNL     1      36.323 -23.894 -14.798  0.00  0.00    -0.273 OA
ATOM     24  O   UNL     1      29.894 -21.916 -16.428  0.00  0.00    -0.270 OA
ATOM     25  N   UNL     1      34.179 -23.157 -15.356  0.00  0.00    -0.261 N 
ATOM     26  N   UNL     1      32.054 -22.540 -15.853  0.00  0.00    -0.255 N 
ATOM     27  N   UNL     1      33.478 -23.616 -12.679  0.00  0.00    -0.262 NA
ATOM     28  C   UNL     1      34.234 -22.817 -16.792  0.00  0.00    +0.076 C 
ATOM     29  C   UNL     1      32.760 -22.477 -17.141  0.00  0.00    +0.113 C 
ATOM     30  C   UNL     1      32.921 -22.957 -14.889  0.00  0.00    +0.196 C 
ATOM     31  C   UNL     1      32.586 -23.170 -13.620  0.00  0.00    +0.092 C 
ATOM     32  C   UNL     1      35.162 -23.633 -14.528  0.00  0.00    +0.252 C 
ATOM     33  C   UNL     1      30.721 -22.283 -15.598  0.00  0.00    +0.251 C 
ATOM     34  C   UNL     1      31.211 -22.918 -13.248  0.00  0.00    +0.022 C 
ATOM     35  C   UNL     1      34.690 -23.840 -13.098  0.00  0.00    +0.210 C 
ATOM     36  C   UNL     1      30.316 -22.496 -14.161  0.00  0.00    +0.059 C 
ENDBRANCH  22  28
ENDBRANCH   1  22
TORSDOF 5
ENDMDL
MODEL 9
REMARK VINA RESULT:     -11.3      2.854      4.601
REMARK  Name = 25101874
REMARK  5 active torsions:
REMARK  status: ('A' for Active; 'I' for Inactive)
REMARK    1  A    between atoms: N_1  and  C_22
REMARK    2  A    between atoms: C_2  and  N_8
REMARK    3  A    between atoms: N_8  and  C_11
REMARK    4  A    between atoms: C_11  and  C_14
REMARK    5  A    between atoms: C_22  and  C_28
REMARK                            x       y       z     vdW  Elec       q    Type
REMARK                         _______ _______ _______ _____ _____    ______ ____
ROOT
ATOM      1  N   UNL     1      36.186 -18.632 -21.365  0.00  0.00    +0.388 N 
ATOM      2  C   UNL     1      35.747 -20.177 -18.920  0.00  0.00    -0.066 C 
ATOM      3  C   UNL     1      34.824 -18.865 -20.866  0.00  0.00    -0.079 C 
ATOM      4  C   UNL     1      37.154 -18.568 -20.261  0.00  0.00    -0.079 C 
ATOM      5  C   UNL     1      34.741 -20.172 -20.074  0.00  0.00    -0.044 C 
ATOM      6  C   UNL     1      37.150 -19.865 -19.448  0.00  0.00    -0.044 C 
ATOM      7  H   UNL     1      36.441 -19.420 -21.960  0.00  0.00    -0.080 HD
ENDROOT
BRANCH   2   8
ATOM      8  N   UNL     1      35.722 -21.467 -18.233  0.00  0.00    +0.389 N 
ATOM      9  H   UNL     1      35.971 -21.329 -17.254  0.00  0.00    -0.084 HD
ATOM     10  H   UNL     1      36.391 -22.090 -18.686  0.00  0.00    -0.084 HD
BRANCH   8  11
ATOM     11  C   UNL     1      34.399 -22.068 -18.311  0.00  0.00    -0.034 C 
BRANCH  11  14
ATOM     12  O   UNL     1      32.614 -23.434 -13.188  0.00  0.00    -0.474 OA
ATOM     13  N   UNL     1      34.782 -22.772 -16.015  0.00  0.00    -0.247 NA
ATOM     14  C   UNL     1      33.867 -22.431 -16.949  0.00  0.00    +0.037 C 
ATOM     15  C   UNL     1      32.500 -22.402 -16.726  0.00  0.00    +0.011 C 
ATOM     16  C   UNL     1      32.030 -22.749 -15.458  0.00  0.00    +0.015 C 
ATOM     17  C   UNL     1      30.557 -22.734 -15.165  0.00  0.00    +0.033 C 
ATOM     18  C   UNL     1      32.953 -23.081 -14.464  0.00  0.00    +0.154 C 
ATOM     19  C   UNL     1      30.266 -23.511 -13.888  0.00  0.00    +0.052 C 
ATOM     20  C   UNL     1      34.301 -23.091 -14.793  0.00  0.00    +0.135 C 
ATOM     21  C   UNL     1      31.269 -23.110 -12.816  0.00  0.00    +0.206 C 
ENDBRANCH  11  14
ENDBRANCH   8  11
ENDBRANCH   2   8
BRANCH   1  22
ATOM     22  C   UNL     1      36.237 -17.407 -22.162  0.00  0.00    -0.055 C 
BRANCH  22  28
ATOM     23  O   UNL     1      35.194 -15.614 -19.476  0.00  0.00    -0.273 OA
ATOM     24  O   UNL     1      33.849 -14.962 -26.234  0.00  0.00    -0.270 OA
ATOM     25  N   UNL     1      34.811 -15.413 -21.771  0.00  0.00    -0.261 N 
ATOM     26  N   UNL     1      34.343 -15.158 -23.974  0.00  0.00    -0.255 N 
ATOM     27  N   UNL     1      34.632 -12.645 -21.354  0.00  0.00    -0.262 NA
ATOM     28  C   UNL     1      34.851 -16.789 -22.304  0.00  0.00    +0.076 C 
ATOM     29  C   UNL     1      34.448 -16.612 -23.794  0.00  0.00    +0.113 C 
ATOM     30  C   UNL     1      34.537 -14.543 -22.775  0.00  0.00    +0.196 C 
ATOM     31  C   UNL     1      34.456 -13.230 -22.582  0.00  0.00    +0.092 C 
ATOM     32  C   UNL     1      34.977 -14.964 -20.486  0.00  0.00    +0.252 C 
ATOM     33  C   UNL     1      34.045 -14.461 -25.130  0.00  0.00    +0.251 C 
ATOM     34  C   UNL     1      34.159 -12.409 -23.736  0.00  0.00    +0.022 C 
ATOM     35  C   UNL     1      34.874 -13.453 -20.363  0.00  0.00    +0.210 C 
ATOM     36  C   UNL     1      33.965 -12.966 -24.946  0.00  0.00    +0.059 C 
ENDBRANCH  22  28
ENDBRANCH   1  22
TORSDOF 5
ENDMDL
