MODEL 1
REMARK VINA RESULT:     -12.0      0.000      0.000
REMARK  Name = 445849
REMARK  5 active torsions:
REMARK  status: ('A' for Active; 'I' for Inactive)
REMARK    1  A    between atoms: C_3  and  C_20
REMARK    2  A    between atoms: C_9  and  C_14
REMARK    3  A    between atoms: C_18  and  O_26
REMARK    4  A    between atoms: C_19  and  O_24
REMARK    5  A    between atoms: O_26  and  C_28
REMARK                            x       y       z     vdW  Elec       q    Type
REMARK                         _______ _______ _______ _____ _____    ______ ____
ROOT
ATOM      1  F   UNL     1      37.333 -17.271 -22.442  0.00  0.00    -0.204 F 
ATOM      2  N   UNL     1      36.299 -20.196 -18.694  0.00  0.00    -0.312 N 
ATOM      3  C   UNL     1      35.142 -20.833 -18.335  0.00  0.00    +0.051 C 
ATOM      4  C   UNL     1      34.772 -19.656 -20.228  0.00  0.00    +0.015 C 
ATOM      5  C   UNL     1      36.102 -19.469 -19.847  0.00  0.00    +0.051 C 
ATOM      6  C   UNL     1      34.179 -20.519 -19.265  0.00  0.00    +0.016 C 
ATOM      7  C   UNL     1      34.304 -19.015 -21.392  0.00  0.00    +0.006 C 
ATOM      8  C   UNL     1      36.991 -18.669 -20.574  0.00  0.00    +0.044 C 
ATOM      9  C   UNL     1      35.182 -18.212 -22.129  0.00  0.00    +0.058 C 
ATOM     10  C   UNL     1      36.504 -18.043 -21.724  0.00  0.00    +0.144 C 
ATOM     11  H   UNL     1      37.149 -20.249 -18.198  0.00  0.00    +0.152 HD
ENDROOT
BRANCH   9  14
ATOM     12  N   UNL     1      34.760 -16.162 -23.466  0.00  0.00    -0.343 N 
ATOM     13  N   UNL     1      34.188 -18.263 -24.317  0.00  0.00    -0.285 NA
ATOM     14  C   UNL     1      34.700 -17.548 -23.331  0.00  0.00    +0.119 C 
ATOM     15  H   UNL     1      34.429 -15.733 -24.288  0.00  0.00    +0.144 HD
ATOM     16  H   UNL     1      35.135 -15.613 -22.741  0.00  0.00    +0.144 HD
ATOM     17  H   UNL     1      33.861 -17.816 -25.131  0.00  0.00    +0.188 HD
ENDBRANCH   9  14
BRANCH   3  20
ATOM     18  C   UNL     1      36.004 -22.525 -15.113  0.00  0.00    +0.172 C 
ATOM     19  C   UNL     1      36.107 -21.712 -16.238  0.00  0.00    +0.169 C 
ATOM     20  C   UNL     1      35.061 -21.667 -17.159  0.00  0.00    +0.050 C 
ATOM     21  C   UNL     1      34.864 -23.293 -14.901  0.00  0.00    +0.040 C 
ATOM     22  C   UNL     1      33.916 -22.437 -16.951  0.00  0.00    +0.004 C 
ATOM     23  C   UNL     1      33.817 -23.249 -15.822  0.00  0.00    +0.003 C 
BRANCH  19  24
ATOM     24  O   UNL     1      37.234 -20.964 -16.428  0.00  0.00    -0.503 OA
ATOM     25  H   UNL     1      37.894 -20.934 -15.763  0.00  0.00    +0.292 HD
ENDBRANCH  19  24
BRANCH  18  26
ATOM     26  O   UNL     1      37.023 -22.578 -14.200  0.00  0.00    -0.476 OA
BRANCH  26  28
ATOM     27  C   UNL     1      38.077 -24.215 -12.765  0.00  0.00    +0.040 C 
ATOM     28  C   UNL     1      37.829 -23.753 -14.211  0.00  0.00    +0.166 C 
ATOM     29  C   UNL     1      39.054 -25.398 -12.728  0.00  0.00    +0.004 C 
ATOM     30  C   UNL     1      39.142 -23.446 -14.936  0.00  0.00    +0.044 C 
ATOM     31  C   UNL     1      40.358 -25.080 -13.455  0.00  0.00    +0.000 C 
ATOM     32  C   UNL     1      40.106 -24.625 -14.888  0.00  0.00    +0.004 C 
ATOM     33  C   UNL     1      36.767 -24.585 -12.065  0.00  0.00    +0.004 C 
ENDBRANCH  26  28
ENDBRANCH  18  26
ENDBRANCH   3  20
TORSDOF 5
ENDMDL
MODEL 2
REMARK VINA RESULT:     -12.0      3.674      9.411
REMARK  Name = 445849
REMARK  5 active torsions:
REMARK  status: ('A' for Active; 'I' for Inactive)
REMARK    1  A    between atoms: C_3  and  C_20
REMARK    2  A    between atoms: C_9  and  C_14
REMARK    3  A    between atoms: C_18  and  O_26
REMARK    4  A    between atoms: C_19  and  O_24
REMARK    5  A    between atoms: O_26  and  C_28
REMARK                            x       y       z     vdW  Elec       q    Type
REMARK                         _______ _______ _______ _____ _____    ______ ____
ROOT
ATOM      1  F   UNL     1      39.053 -23.584 -12.841  0.00  0.00    -0.204 F 
ATOM      2  N   UNL     1      36.516 -21.633 -16.507  0.00  0.00    -0.312 N 
ATOM      3  C   UNL     1      35.230 -21.837 -16.927  0.00  0.00    +0.051 C 
ATOM      4  C   UNL     1      35.631 -23.152 -15.134  0.00  0.00    +0.015 C 
ATOM      5  C   UNL     1      36.789 -22.424 -15.413  0.00  0.00    +0.051 C 
ATOM      6  C   UNL     1      34.656 -22.771 -16.098  0.00  0.00    +0.016 C 
ATOM      7  C   UNL     1      35.640 -24.049 -14.047  0.00  0.00    +0.006 C 
ATOM      8  C   UNL     1      37.960 -22.548 -14.657  0.00  0.00    +0.044 C 
ATOM      9  C   UNL     1      36.804 -24.184 -13.283  0.00  0.00    +0.058 C 
ATOM     10  C   UNL     1      37.945 -23.444 -13.585  0.00  0.00    +0.144 C 
ATOM     11  H   UNL     1      37.155 -21.011 -16.927  0.00  0.00    +0.152 HD
ENDROOT
BRANCH   9  14
ATOM     12  N   UNL     1      37.209 -26.438 -12.322  0.00  0.00    -0.343 N 
ATOM     13  N   UNL     1      36.442 -24.697 -10.963  0.00  0.00    -0.285 NA
ATOM     14  C   UNL     1      36.816 -25.111 -12.161  0.00  0.00    +0.119 C 
ATOM     15  H   UNL     1      37.210 -27.048 -11.549  0.00  0.00    +0.144 HD
ATOM     16  H   UNL     1      37.487 -26.765 -13.207  0.00  0.00    +0.144 HD
ATOM     17  H   UNL     1      36.449 -25.323 -10.202  0.00  0.00    +0.188 HD
ENDBRANCH   9  14
BRANCH   3  20
ATOM     18  C   UNL     1      34.919 -19.669 -19.958  0.00  0.00    +0.172 C 
ATOM     19  C   UNL     1      35.478 -20.334 -18.871  0.00  0.00    +0.169 C 
ATOM     20  C   UNL     1      34.675 -21.136 -18.061  0.00  0.00    +0.050 C 
ATOM     21  C   UNL     1      33.563 -19.798 -20.242  0.00  0.00    +0.040 C 
ATOM     22  C   UNL     1      33.315 -21.268 -18.340  0.00  0.00    +0.004 C 
ATOM     23  C   UNL     1      32.758 -20.599 -19.431  0.00  0.00    +0.003 C 
BRANCH  19  24
ATOM     24  O   UNL     1      36.812 -20.196 -18.611  0.00  0.00    -0.503 OA
ATOM     25  H   UNL     1      37.293 -20.907 -18.236  0.00  0.00    +0.292 HD
ENDBRANCH  19  24
BRANCH  18  26
ATOM     26  O   UNL     1      35.695 -18.879 -20.763  0.00  0.00    -0.476 OA
BRANCH  26  28
ATOM     27  C   UNL     1      35.442 -17.591 -22.794  0.00  0.00    +0.040 C 
ATOM     28  C   UNL     1      35.076 -17.716 -21.305  0.00  0.00    +0.166 C 
ATOM     29  C   UNL     1      34.907 -16.277 -23.380  0.00  0.00    +0.004 C 
ATOM     30  C   UNL     1      35.537 -16.493 -20.509  0.00  0.00    +0.044 C 
ATOM     31  C   UNL     1      35.372 -15.066 -22.576  0.00  0.00    +0.000 C 
ATOM     32  C   UNL     1      35.005 -15.195 -21.102  0.00  0.00    +0.004 C 
ATOM     33  C   UNL     1      34.920 -18.784 -23.599  0.00  0.00    +0.004 C 
ENDBRANCH  26  28
ENDBRANCH  18  26
ENDBRANCH   3  20
TORSDOF 5
ENDMDL
MODEL 3
REMARK VINA RESULT:     -11.6      1.488      2.220
REMARK  Name = 445849
REMARK  5 active torsions:
REMARK  status: ('A' for Active; 'I' for Inactive)
REMARK    1  A    between atoms: C_3  and  C_20
REMARK    2  A    between atoms: C_9  and  C_14
REMARK    3  A    between atoms: C_18  and  O_26
REMARK    4  A    between atoms: C_19  and  O_24
REMARK    5  A    between atoms: O_26  and  C_28
REMARK                            x       y       z     vdW  Elec       q    Type
REMARK                         _______ _______ _______ _____ _____    ______ ____
ROOT
ATOM      1  F   UNL     1      37.693 -18.659 -20.987  0.00  0.00    -0.204 F 
ATOM      2  N   UNL     1      35.556 -21.337 -17.532  0.00  0.00    -0.312 N 
ATOM      3  C   UNL     1      34.248 -21.692 -17.341  0.00  0.00    +0.051 C 
ATOM      4  C   UNL     1      34.397 -20.422 -19.204  0.00  0.00    +0.015 C 
ATOM      5  C   UNL     1      35.677 -20.561 -18.663  0.00  0.00    +0.051 C 
ATOM      6  C   UNL     1      33.506 -21.142 -18.359  0.00  0.00    +0.016 C 
ATOM      7  C   UNL     1      34.237 -19.665 -20.381  0.00  0.00    +0.006 C 
ATOM      8  C   UNL     1      36.809 -19.977 -19.242  0.00  0.00    +0.044 C 
ATOM      9  C   UNL     1      35.360 -19.075 -20.971  0.00  0.00    +0.058 C 
ATOM     10  C   UNL     1      36.626 -19.230 -20.409  0.00  0.00    +0.144 C 
ATOM     11  H   UNL     1      36.303 -21.599 -16.945  0.00  0.00    +0.152 HD
ENDROOT
BRANCH   9  14
ATOM     12  N   UNL     1      35.312 -16.902 -22.173  0.00  0.00    -0.343 N 
ATOM     13  N   UNL     1      34.928 -18.898 -23.329  0.00  0.00    -0.285 NA
ATOM     14  C   UNL     1      35.197 -18.291 -22.186  0.00  0.00    +0.119 C 
ATOM     15  H   UNL     1      35.198 -16.392 -23.007  0.00  0.00    +0.144 HD
ATOM     16  H   UNL     1      35.508 -16.432 -21.331  0.00  0.00    +0.144 HD
ATOM     17  H   UNL     1      34.817 -18.369 -24.152  0.00  0.00    +0.188 HD
ENDBRANCH   9  14
BRANCH   3  20
ATOM     18  C   UNL     1      34.341 -23.974 -14.379  0.00  0.00    +0.172 C 
ATOM     19  C   UNL     1      34.768 -23.193 -15.449  0.00  0.00    +0.169 C 
ATOM     20  C   UNL     1      33.832 -22.509 -16.225  0.00  0.00    +0.050 C 
ATOM     21  C   UNL     1      32.986 -24.076 -14.078  0.00  0.00    +0.040 C 
ATOM     22  C   UNL     1      32.474 -22.609 -15.927  0.00  0.00    +0.004 C 
ATOM     23  C   UNL     1      32.050 -23.392 -14.853  0.00  0.00    +0.003 C 
BRANCH  19  24
ATOM     24  O   UNL     1      36.102 -23.105 -15.728  0.00  0.00    -0.503 OA
ATOM     25  H   UNL     1      36.558 -22.298 -15.587  0.00  0.00    +0.292 HD
ENDBRANCH  19  24
BRANCH  18  26
ATOM     26  O   UNL     1      35.248 -24.651 -13.609  0.00  0.00    -0.476 OA
BRANCH  26  28
ATOM     27  C   UNL     1      37.569 -24.945 -12.994  0.00  0.00    +0.040 C 
ATOM     28  C   UNL     1      36.429 -23.942 -13.241  0.00  0.00    +0.166 C 
ATOM     29  C   UNL     1      38.820 -24.231 -12.464  0.00  0.00    +0.004 C 
ATOM     30  C   UNL     1      36.136 -23.105 -11.994  0.00  0.00    +0.044 C 
ATOM     31  C   UNL     1      38.515 -23.399 -11.221  0.00  0.00    +0.000 C 
ATOM     32  C   UNL     1      37.385 -22.406 -11.474  0.00  0.00    +0.004 C 
ATOM     33  C   UNL     1      37.904 -25.734 -14.263  0.00  0.00    +0.004 C 
ENDBRANCH  26  28
ENDBRANCH  18  26
ENDBRANCH   3  20
TORSDOF 5
ENDMDL
MODEL 4
REMARK VINA RESULT:     -11.4      3.879      9.898
REMARK  Name = 445849
REMARK  5 active torsions:
REMARK  status: ('A' for Active; 'I' for Inactive)
REMARK    1  A    between atoms: C_3  and  C_20
REMARK    2  A    between atoms: C_9  and  C_14
REMARK    3  A    between atoms: C_18  and  O_26
REMARK    4  A    between atoms: C_19  and  O_24
REMARK    5  A    between atoms: O_26  and  C_28
REMARK                            x       y       z     vdW  Elec       q    Type
REMARK                         _______ _______ _______ _____ _____    ______ ____
ROOT
ATOM      1  F   UNL     1      37.561 -22.180 -15.120  0.00  0.00    -0.204 F 
ATOM      2  N   UNL     1      36.499 -19.649 -19.139  0.00  0.00    -0.312 N 
ATOM      3  C   UNL     1      35.367 -19.603 -19.906  0.00  0.00    +0.051 C 
ATOM      4  C   UNL     1      35.035 -21.046 -18.200  0.00  0.00    +0.015 C 
ATOM      5  C   UNL     1      36.325 -20.524 -18.089  0.00  0.00    +0.051 C 
ATOM      6  C   UNL     1      34.443 -20.455 -19.351  0.00  0.00    +0.016 C 
ATOM      7  C   UNL     1      34.595 -21.977 -17.238  0.00  0.00    +0.006 C 
ATOM      8  C   UNL     1      37.201 -20.887 -17.060  0.00  0.00    +0.044 C 
ATOM      9  C   UNL     1      35.461 -22.350 -16.204  0.00  0.00    +0.058 C 
ATOM     10  C   UNL     1      36.744 -21.813 -16.118  0.00  0.00    +0.144 C 
ATOM     11  H   UNL     1      37.320 -19.133 -19.312  0.00  0.00    +0.152 HD
ENDROOT
BRANCH   9  14
ATOM     12  N   UNL     1      33.947 -23.027 -14.355  0.00  0.00    -0.343 N 
ATOM     13  N   UNL     1      35.617 -24.482 -15.104  0.00  0.00    -0.285 NA
ATOM     14  C   UNL     1      35.010 -23.313 -15.210  0.00  0.00    +0.119 C 
ATOM     15  H   UNL     1      33.658 -23.693 -13.690  0.00  0.00    +0.144 HD
ATOM     16  H   UNL     1      33.485 -22.161 -14.417  0.00  0.00    +0.144 HD
ATOM     17  H   UNL     1      35.314 -25.134 -14.432  0.00  0.00    +0.188 HD
ENDBRANCH   9  14
BRANCH   3  20
ATOM     18  C   UNL     1      35.322 -16.596 -22.129  0.00  0.00    +0.172 C 
ATOM     19  C   UNL     1      35.419 -17.381 -20.984  0.00  0.00    +0.169 C 
ATOM     20  C   UNL     1      35.272 -18.765 -21.078  0.00  0.00    +0.050 C 
ATOM     21  C   UNL     1      35.080 -17.182 -23.368  0.00  0.00    +0.040 C 
ATOM     22  C   UNL     1      35.028 -19.357 -22.317  0.00  0.00    +0.004 C 
ATOM     23  C   UNL     1      34.932 -18.566 -23.462  0.00  0.00    +0.003 C 
BRANCH  19  24
ATOM     24  O   UNL     1      35.658 -16.786 -19.778  0.00  0.00    -0.503 OA
ATOM     25  H   UNL     1      35.487 -15.872 -19.664  0.00  0.00    +0.292 HD
ENDBRANCH  19  24
BRANCH  18  26
ATOM     26  O   UNL     1      35.465 -15.236 -22.052  0.00  0.00    -0.476 OA
BRANCH  26  28
ATOM     27  C   UNL     1      34.149 -13.454 -23.023  0.00  0.00    +0.040 C 
ATOM     28  C   UNL     1      34.270 -14.478 -21.881  0.00  0.00    +0.166 C 
ATOM     29  C   UNL     1      32.948 -12.525 -22.800  0.00  0.00    +0.004 C 
ATOM     30  C   UNL     1      34.310 -13.792 -20.514  0.00  0.00    +0.044 C 
ATOM     31  C   UNL     1      32.998 -11.849 -21.433  0.00  0.00    +0.000 C 
ATOM     32  C   UNL     1      33.116 -12.870 -20.306  0.00  0.00    +0.004 C 
ATOM     33  C   UNL     1      34.042 -14.145 -24.385  0.00  0.00    +0.004 C 
ENDBRANCH  26  28
ENDBRANCH  18  26
ENDBRANCH   3  20
TORSDOF 5
ENDMDL
MODEL 5
REMARK VINA RESULT:     -11.3      7.826     13.119
REMARK  Name = 445849
REMARK  5 active torsions:
REMARK  status: ('A' for Active; 'I' for Inactive)
REMARK    1  A    between atoms: C_3  and  C_20
REMARK    2  A    between atoms: C_9  and  C_14
REMARK    3  A    between atoms: C_18  and  O_26
REMARK    4  A    between atoms: C_19  and  O_24
REMARK    5  A    between atoms: O_26  and  C_28
REMARK                            x       y       z     vdW  Elec       q    Type
REMARK                         _______ _______ _______ _____ _____    ______ ____
ROOT
ATOM      1  F   UNL     1      35.486 -18.663 -23.253  0.00  0.00    -0.204 F 
ATOM      2  N   UNL     1      34.338 -13.943 -23.532  0.00  0.00    -0.312 N 
ATOM      3  C   UNL     1      34.294 -12.964 -22.577  0.00  0.00    +0.051 C 
ATOM      4  C   UNL     1      34.929 -14.903 -21.607  0.00  0.00    +0.015 C 
ATOM      5  C   UNL     1      34.722 -15.139 -22.968  0.00  0.00    +0.051 C 
ATOM      6  C   UNL     1      34.655 -13.527 -21.376  0.00  0.00    +0.016 C 
ATOM      7  C   UNL     1      35.336 -15.975 -20.788  0.00  0.00    +0.006 C 
ATOM      8  C   UNL     1      34.902 -16.397 -23.553  0.00  0.00    +0.044 C 
ATOM      9  C   UNL     1      35.519 -17.239 -21.359  0.00  0.00    +0.058 C 
ATOM     10  C   UNL     1      35.305 -17.445 -22.721  0.00  0.00    +0.144 C 
ATOM     11  H   UNL     1      34.124 -13.811 -24.485  0.00  0.00    +0.152 HD
ENDROOT
BRANCH   9  14
ATOM     12  N   UNL     1      37.285 -18.624 -20.295  0.00  0.00    -0.343 N 
ATOM     13  N   UNL     1      35.028 -19.119 -19.944  0.00  0.00    -0.285 NA
ATOM     14  C   UNL     1      35.937 -18.348 -20.514  0.00  0.00    +0.119 C 
ATOM     15  H   UNL     1      37.546 -19.379 -19.720  0.00  0.00    +0.144 HD
ATOM     16  H   UNL     1      37.977 -18.063 -20.715  0.00  0.00    +0.144 HD
ATOM     17  H   UNL     1      35.308 -19.870 -19.372  0.00  0.00    +0.188 HD
ENDBRANCH   9  14
BRANCH   3  20
ATOM     18  C   UNL     1      32.701  -9.585 -22.388  0.00  0.00    +0.172 C 
ATOM     19  C   UNL     1      33.048 -10.893 -22.064  0.00  0.00    +0.169 C 
ATOM     20  C   UNL     1      33.917 -11.605 -22.890  0.00  0.00    +0.050 C 
ATOM     21  C   UNL     1      33.216  -8.982 -23.532  0.00  0.00    +0.040 C 
ATOM     22  C   UNL     1      34.435 -11.006 -24.038  0.00  0.00    +0.004 C 
ATOM     23  C   UNL     1      34.085  -9.695 -24.359  0.00  0.00    +0.003 C 
BRANCH  19  24
ATOM     24  O   UNL     1      32.533 -11.466 -20.936  0.00  0.00    -0.503 OA
ATOM     25  H   UNL     1      31.884 -11.014 -20.435  0.00  0.00    +0.292 HD
ENDBRANCH  19  24
BRANCH  18  26
ATOM     26  O   UNL     1      31.850  -8.874 -21.586  0.00  0.00    -0.476 OA
BRANCH  26  28
ATOM     27  C   UNL     1      31.993  -7.652 -19.503  0.00  0.00    +0.040 C 
ATOM     28  C   UNL     1      32.371  -7.687 -20.995  0.00  0.00    +0.166 C 
ATOM     29  C   UNL     1      32.418  -6.324 -18.862  0.00  0.00    +0.004 C 
ATOM     30  C   UNL     1      31.815  -6.475 -21.744  0.00  0.00    +0.044 C 
ATOM     31  C   UNL     1      31.859  -5.123 -19.620  0.00  0.00    +0.000 C 
ATOM     32  C   UNL     1      32.239  -5.163 -21.096  0.00  0.00    +0.004 C 
ATOM     33  C   UNL     1      32.608  -8.831 -18.744  0.00  0.00    +0.004 C 
ENDBRANCH  26  28
ENDBRANCH  18  26
ENDBRANCH   3  20
TORSDOF 5
ENDMDL
MODEL 6
REMARK VINA RESULT:     -10.8      9.709     13.726
REMARK  Name = 445849
REMARK  5 active torsions:
REMARK  status: ('A' for Active; 'I' for Inactive)
REMARK    1  A    between atoms: C_3  and  C_20
REMARK    2  A    between atoms: C_9  and  C_14
REMARK    3  A    between atoms: C_18  and  O_26
REMARK    4  A    between atoms: C_19  and  O_24
REMARK    5  A    between atoms: O_26  and  C_28
REMARK                            x       y       z     vdW  Elec       q    Type
REMARK                         _______ _______ _______ _____ _____    ______ ____
ROOT
ATOM      1  F   UNL     1      31.782  -3.685 -24.582  0.00  0.00    -0.204 F 
ATOM      2  N   UNL     1      32.297  -8.275 -23.051  0.00  0.00    -0.312 N 
ATOM      3  C   UNL     1      32.392  -8.804 -21.793  0.00  0.00    +0.051 C 
ATOM      4  C   UNL     1      32.170  -6.562 -21.628  0.00  0.00    +0.015 C 
ATOM      5  C   UNL     1      32.161  -6.907 -22.981  0.00  0.00    +0.051 C 
ATOM      6  C   UNL     1      32.315  -7.771 -20.891  0.00  0.00    +0.016 C 
ATOM      7  C   UNL     1      32.042  -5.205 -21.273  0.00  0.00    +0.006 C 
ATOM      8  C   UNL     1      32.032  -5.958 -24.002  0.00  0.00    +0.044 C 
ATOM      9  C   UNL     1      31.913  -4.245 -22.283  0.00  0.00    +0.058 C 
ATOM     10  C   UNL     1      31.908  -4.618 -23.626  0.00  0.00    +0.144 C 
ATOM     11  H   UNL     1      32.324  -8.797 -23.886  0.00  0.00    +0.152 HD
ENDROOT
BRANCH   9  14
ATOM     12  N   UNL     1      30.533  -2.247 -21.763  0.00  0.00    -0.343 N 
ATOM     13  N   UNL     1      32.866  -2.107 -21.736  0.00  0.00    -0.285 NA
ATOM     14  C   UNL     1      31.783  -2.842 -21.919  0.00  0.00    +0.119 C 
ATOM     15  H   UNL     1      30.468  -1.296 -21.516  0.00  0.00    +0.144 HD
ATOM     16  H   UNL     1      29.715  -2.777 -21.898  0.00  0.00    +0.144 HD
ATOM     17  H   UNL     1      32.781  -1.157 -21.491  0.00  0.00    +0.188 HD
ENDBRANCH   9  14
BRANCH   3  20
ATOM     18  C   UNL     1      33.595 -12.335 -22.065  0.00  0.00    +0.172 C 
ATOM     19  C   UNL     1      33.468 -10.969 -22.301  0.00  0.00    +0.169 C 
ATOM     20  C   UNL     1      32.544 -10.223 -21.569  0.00  0.00    +0.050 C 
ATOM     21  C   UNL     1      32.806 -12.962 -21.106  0.00  0.00    +0.040 C 
ATOM     22  C   UNL     1      31.750 -10.847 -20.607  0.00  0.00    +0.004 C 
ATOM     23  C   UNL     1      31.881 -12.216 -20.374  0.00  0.00    +0.003 C 
BRANCH  19  24
ATOM     24  O   UNL     1      34.252 -10.373 -23.246  0.00  0.00    -0.503 OA
ATOM     25  H   UNL     1      34.804 -10.895 -23.794  0.00  0.00    +0.292 HD
ENDBRANCH  19  24
BRANCH  18  26
ATOM     26  O   UNL     1      34.498 -13.080 -22.775  0.00  0.00    -0.476 OA
BRANCH  26  28
ATOM     27  C   UNL     1      35.155 -15.408 -22.773  0.00  0.00    +0.040 C 
ATOM     28  C   UNL     1      34.079 -14.383 -23.173  0.00  0.00    +0.166 C 
ATOM     29  C   UNL     1      34.804 -16.805 -23.306  0.00  0.00    +0.004 C 
ATOM     30  C   UNL     1      33.834 -14.385 -24.683  0.00  0.00    +0.044 C 
ATOM     31  C   UNL     1      34.560 -16.793 -24.813  0.00  0.00    +0.000 C 
ATOM     32  C   UNL     1      33.492 -15.777 -25.201  0.00  0.00    +0.004 C 
ATOM     33  C   UNL     1      35.349 -15.451 -21.255  0.00  0.00    +0.004 C 
ENDBRANCH  26  28
ENDBRANCH  18  26
ENDBRANCH   3  20
TORSDOF 5
ENDMDL
MODEL 7
REMARK VINA RESULT:     -10.5      8.878     13.748
REMARK  Name = 445849
REMARK  5 active torsions:
REMARK  status: ('A' for Active; 'I' for Inactive)
REMARK    1  A    between atoms: C_3  and  C_20
REMARK    2  A    between atoms: C_9  and  C_14
REMARK    3  A    between atoms: C_18  and  O_26
REMARK    4  A    between atoms: C_19  and  O_24
REMARK    5  A    between atoms: O_26  and  C_28
REMARK                            x       y       z     vdW  Elec       q    Type
REMARK                         _______ _______ _______ _____ _____    ______ ____
ROOT
ATOM      1  F   UNL     1      35.550 -17.514 -22.036  0.00  0.00    -0.204 F 
ATOM      2  N   UNL     1      34.828 -12.733 -22.589  0.00  0.00    -0.312 N 
ATOM      3  C   UNL     1      34.175 -12.023 -23.560  0.00  0.00    +0.051 C 
ATOM      4  C   UNL     1      34.047 -14.224 -24.054  0.00  0.00    +0.015 C 
ATOM      5  C   UNL     1      34.767 -14.081 -22.866  0.00  0.00    +0.051 C 
ATOM      6  C   UNL     1      33.680 -12.916 -24.479  0.00  0.00    +0.016 C 
ATOM      7  C   UNL     1      33.834 -15.519 -24.566  0.00  0.00    +0.006 C 
ATOM      8  C   UNL     1      35.287 -15.173 -22.162  0.00  0.00    +0.044 C 
ATOM      9  C   UNL     1      34.349 -16.620 -23.873  0.00  0.00    +0.058 C 
ATOM     10  C   UNL     1      35.064 -16.447 -22.689  0.00  0.00    +0.144 C 
ATOM     11  H   UNL     1      35.278 -12.338 -21.807  0.00  0.00    +0.152 HD
ENDROOT
BRANCH   9  14
ATOM     12  N   UNL     1      35.021 -18.997 -24.130  0.00  0.00    -0.343 N 
ATOM     13  N   UNL     1      33.078 -18.203 -25.159  0.00  0.00    -0.285 NA
ATOM     14  C   UNL     1      34.132 -17.959 -24.401  0.00  0.00    +0.119 C 
ATOM     15  H   UNL     1      34.855 -19.895 -24.498  0.00  0.00    +0.144 HD
ATOM     16  H   UNL     1      35.814 -18.833 -23.570  0.00  0.00    +0.144 HD
ATOM     17  H   UNL     1      32.929 -19.108 -25.518  0.00  0.00    +0.188 HD
ENDBRANCH   9  14
BRANCH   3  20
ATOM     18  C   UNL     1      33.066  -8.554 -22.707  0.00  0.00    +0.172 C 
ATOM     19  C   UNL     1      33.133  -9.944 -22.725  0.00  0.00    +0.169 C 
ATOM     20  C   UNL     1      34.084 -10.582 -23.522  0.00  0.00    +0.050 C 
ATOM     21  C   UNL     1      33.940  -7.796 -23.479  0.00  0.00    +0.040 C 
ATOM     22  C   UNL     1      34.961  -9.826 -24.299  0.00  0.00    +0.004 C 
ATOM     23  C   UNL     1      34.891  -8.434 -24.278  0.00  0.00    +0.003 C 
BRANCH  19  24
ATOM     24  O   UNL     1      32.267 -10.670 -21.958  0.00  0.00    -0.503 OA
ATOM     25  H   UNL     1      32.095 -10.413 -21.074  0.00  0.00    +0.292 HD
ENDBRANCH  19  24
BRANCH  18  26
ATOM     26  O   UNL     1      32.139  -7.915 -21.928  0.00  0.00    -0.476 OA
BRANCH  26  28
ATOM     27  C   UNL     1      32.199  -7.053 -19.669  0.00  0.00    +0.040 C 
ATOM     28  C   UNL     1      32.611  -6.829 -21.135  0.00  0.00    +0.166 C 
ATOM     29  C   UNL     1      32.570  -5.839 -18.805  0.00  0.00    +0.004 C 
ATOM     30  C   UNL     1      32.035  -5.524 -21.688  0.00  0.00    +0.044 C 
ATOM     31  C   UNL     1      31.991  -4.544 -19.369  0.00  0.00    +0.000 C 
ATOM     32  C   UNL     1      32.404  -4.328 -20.820  0.00  0.00    +0.004 C 
ATOM     33  C   UNL     1      32.832  -8.325 -19.098  0.00  0.00    +0.004 C 
ENDBRANCH  26  28
ENDBRANCH  18  26
ENDBRANCH   3  20
TORSDOF 5
ENDMDL
MODEL 8
REMARK VINA RESULT:     -10.5      4.286     10.333
REMARK  Name = 445849
REMARK  5 active torsions:
REMARK  status: ('A' for Active; 'I' for Inactive)
REMARK    1  A    between atoms: C_3  and  C_20
REMARK    2  A    between atoms: C_9  and  C_14
REMARK    3  A    between atoms: C_18  and  O_26
REMARK    4  A    between atoms: C_19  and  O_24
REMARK    5  A    between atoms: O_26  and  C_28
REMARK                            x       y       z     vdW  Elec       q    Type
REMARK                         _______ _______ _______ _____ _____    ______ ____
ROOT
ATOM      1  F   UNL     1      34.015 -22.735 -16.766  0.00  0.00    -0.204 F 
ATOM      2  N   UNL     1      34.290 -19.393 -20.293  0.00  0.00    -0.312 N 
ATOM      3  C   UNL     1      35.330 -18.614 -20.721  0.00  0.00    +0.051 C 
ATOM      4  C   UNL     1      36.045 -19.913 -19.017  0.00  0.00    +0.015 C 
ATOM      5  C   UNL     1      34.698 -20.197 -19.251  0.00  0.00    +0.051 C 
ATOM      6  C   UNL     1      36.429 -18.912 -19.953  0.00  0.00    +0.016 C 
ATOM      7  C   UNL     1      36.716 -20.608 -17.991  0.00  0.00    +0.006 C 
ATOM      8  C   UNL     1      33.985 -21.145 -18.508  0.00  0.00    +0.044 C 
ATOM      9  C   UNL     1      36.016 -21.558 -17.239  0.00  0.00    +0.058 C 
ATOM     10  C   UNL     1      34.671 -21.821 -17.495  0.00  0.00    +0.144 C 
ATOM     11  H   UNL     1      33.381 -19.381 -20.672  0.00  0.00    +0.152 HD
ENDROOT
BRANCH   9  14
ATOM     12  N   UNL     1      38.075 -22.120 -15.970  0.00  0.00    -0.343 N 
ATOM     13  N   UNL     1      36.031 -23.098 -15.394  0.00  0.00    -0.285 NA
ATOM     14  C   UNL     1      36.706 -22.275 -16.178  0.00  0.00    +0.119 C 
ATOM     15  H   UNL     1      38.522 -22.615 -15.246  0.00  0.00    +0.144 HD
ATOM     16  H   UNL     1      38.595 -21.514 -16.546  0.00  0.00    +0.144 HD
ATOM     17  H   UNL     1      36.496 -23.585 -14.675  0.00  0.00    +0.188 HD
ENDBRANCH   9  14
BRANCH   3  20
ATOM     18  C   UNL     1      35.082 -15.409 -22.634  0.00  0.00    +0.172 C 
ATOM     19  C   UNL     1      35.226 -16.297 -21.571  0.00  0.00    +0.169 C 
ATOM     20  C   UNL     1      35.183 -17.671 -21.805  0.00  0.00    +0.050 C 
ATOM     21  C   UNL     1      34.894 -15.884 -23.928  0.00  0.00    +0.040 C 
ATOM     22  C   UNL     1      34.994 -18.151 -23.101  0.00  0.00    +0.004 C 
ATOM     23  C   UNL     1      34.850 -17.259 -24.163  0.00  0.00    +0.003 C 
BRANCH  19  24
ATOM     24  O   UNL     1      35.411 -15.811 -20.309  0.00  0.00    -0.503 OA
ATOM     25  H   UNL     1      34.777 -15.233 -19.931  0.00  0.00    +0.292 HD
ENDBRANCH  19  24
BRANCH  18  26
ATOM     26  O   UNL     1      35.123 -14.058 -22.419  0.00  0.00    -0.476 OA
BRANCH  26  28
ATOM     27  C   UNL     1      33.984 -11.929 -22.564  0.00  0.00    +0.040 C 
ATOM     28  C   UNL     1      33.877 -13.413 -22.169  0.00  0.00    +0.166 C 
ATOM     29  C   UNL     1      32.706 -11.169 -22.182  0.00  0.00    +0.004 C 
ATOM     30  C   UNL     1      33.522 -13.577 -20.690  0.00  0.00    +0.044 C 
ATOM     31  C   UNL     1      32.362 -11.342 -20.706  0.00  0.00    +0.000 C 
ATOM     32  C   UNL     1      32.256 -12.814 -20.322  0.00  0.00    +0.004 C 
ATOM     33  C   UNL     1      34.272 -11.768 -24.059  0.00  0.00    +0.004 C 
ENDBRANCH  26  28
ENDBRANCH  18  26
ENDBRANCH   3  20
TORSDOF 5
ENDMDL
MODEL 9
REMARK VINA RESULT:     -10.4      5.329      8.939
REMARK  Name = 445849
REMARK  5 active torsions:
REMARK  status: ('A' for Active; 'I' for Inactive)
REMARK    1  A    between atoms: C_3  and  C_20
REMARK    2  A    between atoms: C_9  and  C_14
REMARK    3  A    between atoms: C_18  and  O_26
REMARK    4  A    between atoms: C_19  and  O_24
REMARK    5  A    between atoms: O_26  and  C_28
REMARK                            x       y       z     vdW  Elec       q    Type
REMARK                         _______ _______ _______ _____ _____    ______ ____
ROOT
ATOM      1  F   UNL     1      31.609  -9.271 -20.637  0.00  0.00    -0.204 F 
ATOM      2  N   UNL     1      33.273 -13.676 -21.865  0.00  0.00    -0.312 N 
ATOM      3  C   UNL     1      34.118 -14.077 -22.863  0.00  0.00    +0.051 C 
ATOM      4  C   UNL     1      33.857 -11.837 -22.986  0.00  0.00    +0.015 C 
ATOM      5  C   UNL     1      33.094 -12.311 -21.916  0.00  0.00    +0.051 C 
ATOM      6  C   UNL     1      34.498 -12.964 -23.573  0.00  0.00    +0.016 C 
ATOM      7  C   UNL     1      33.854 -10.455 -23.261  0.00  0.00    +0.006 C 
ATOM      8  C   UNL     1      32.325 -11.469 -21.105  0.00  0.00    +0.044 C 
ATOM      9  C   UNL     1      33.089  -9.602 -22.459  0.00  0.00    +0.058 C 
ATOM     10  C   UNL     1      32.337 -10.103 -21.398  0.00  0.00    +0.144 C 
ATOM     11  H   UNL     1      32.851 -14.275 -21.207  0.00  0.00    +0.152 HD
ENDROOT
BRANCH   9  14
ATOM     12  N   UNL     1      33.858  -7.285 -22.001  0.00  0.00    -0.343 N 
ATOM     13  N   UNL     1      32.325  -7.700 -23.716  0.00  0.00    -0.285 NA
ATOM     14  C   UNL     1      33.082  -8.174 -22.742  0.00  0.00    +0.119 C 
ATOM     15  H   UNL     1      33.839  -6.323 -22.209  0.00  0.00    +0.144 HD
ATOM     16  H   UNL     1      34.426  -7.619 -21.269  0.00  0.00    +0.144 HD
ATOM     17  H   UNL     1      32.319  -6.735 -23.909  0.00  0.00    +0.188 HD
ENDBRANCH   9  14
BRANCH   3  20
ATOM     18  C   UNL     1      35.458 -17.512 -22.233  0.00  0.00    +0.172 C 
ATOM     19  C   UNL     1      35.119 -16.178 -22.031  0.00  0.00    +0.169 C 
ATOM     20  C   UNL     1      34.481 -15.464 -23.046  0.00  0.00    +0.050 C 
ATOM     21  C   UNL     1      35.166 -18.139 -23.440  0.00  0.00    +0.040 C 
ATOM     22  C   UNL     1      34.187 -16.088 -24.258  0.00  0.00    +0.004 C 
ATOM     23  C   UNL     1      34.529 -17.425 -24.456  0.00  0.00    +0.003 C 
BRANCH  19  24
ATOM     24  O   UNL     1      35.414 -15.581 -20.839  0.00  0.00    -0.503 OA
ATOM     25  H   UNL     1      35.245 -14.667 -20.718  0.00  0.00    +0.292 HD
ENDBRANCH  19  24
BRANCH  18  26
ATOM     26  O   UNL     1      36.084 -18.225 -21.246  0.00  0.00    -0.476 OA
BRANCH  26  28
ATOM     27  C   UNL     1      35.900 -20.115 -19.748  0.00  0.00    +0.040 C 
ATOM     28  C   UNL     1      35.246 -18.820 -20.259  0.00  0.00    +0.166 C 
ATOM     29  C   UNL     1      34.965 -20.857 -18.783  0.00  0.00    +0.004 C 
ATOM     30  C   UNL     1      33.871 -19.089 -20.873  0.00  0.00    +0.044 C 
ATOM     31  C   UNL     1      33.596 -21.117 -19.406  0.00  0.00    +0.000 C 
ATOM     32  C   UNL     1      32.953 -19.829 -19.908  0.00  0.00    +0.004 C 
ATOM     33  C   UNL     1      37.245 -19.834 -19.073  0.00  0.00    +0.004 C 
ENDBRANCH  26  28
ENDBRANCH  18  26
ENDBRANCH   3  20
TORSDOF 5
ENDMDL
