MODEL 1
REMARK VINA RESULT:     -12.0      0.000      0.000
REMARK  Name = 5287459
REMARK  5 active torsions:
REMARK  status: ('A' for Active; 'I' for Inactive)
REMARK    1  A    between atoms: C_1  and  C_7
REMARK    2  A    between atoms: C_4  and  C_21
REMARK    3  A    between atoms: C_5  and  C_25
REMARK    4  A    between atoms: C_8  and  C_13
REMARK    5  A    between atoms: C_25  and  O_26
REMARK                            x       y       z     vdW  Elec       q    Type
REMARK                         _______ _______ _______ _____ _____    ______ ____
ROOT
ATOM      1  C   UNL     1      37.087 -23.125 -14.424  0.00  0.00    +0.000 C 
ATOM      2  C   UNL     1      36.432 -23.105 -13.193  0.00  0.00    +0.005 C 
ATOM      3  C   UNL     1      38.304 -23.792 -14.556  0.00  0.00    +0.006 C 
ATOM      4  C   UNL     1      36.995 -23.754 -12.094  0.00  0.00    +0.053 C 
ATOM      5  C   UNL     1      38.868 -24.440 -13.457  0.00  0.00    +0.076 C 
ATOM      6  C   UNL     1      38.212 -24.420 -12.225  0.00  0.00    +0.011 C 
ENDROOT
BRANCH   1   7
ATOM      7  C   UNL     1      36.504 -22.452 -15.565  0.00  0.00    +0.000 C 
ATOM      8  C   UNL     1      35.378 -21.156 -17.764  0.00  0.00    +0.000 C 
ATOM      9  C   UNL     1      35.163 -22.663 -15.888  0.00  0.00    +0.000 C 
ATOM     10  C   UNL     1      37.281 -21.593 -16.341  0.00  0.00    +0.000 C 
ATOM     11  C   UNL     1      34.600 -22.015 -16.988  0.00  0.00    +0.000 C 
ATOM     12  C   UNL     1      36.719 -20.945 -17.441  0.00  0.00    +0.000 C 
BRANCH   8  13
ATOM     13  C   UNL     1      34.795 -20.484 -18.905  0.00  0.00    +0.000 C 
ATOM     14  C   UNL     1      33.415 -20.510 -19.101  0.00  0.00    +0.000 C 
ATOM     15  C   UNL     1      35.616 -19.809 -19.809  0.00  0.00    +0.000 C 
ATOM     16  C   UNL     1      32.854 -19.862 -20.202  0.00  0.00    +0.000 C 
ATOM     17  C   UNL     1      35.055 -19.161 -20.910  0.00  0.00    +0.000 C 
ATOM     18  C   UNL     1      33.675 -19.187 -21.107  0.00  0.00    +0.000 C 
ENDBRANCH   8  13
ENDBRANCH   1   7
BRANCH   4  21
ATOM     19  O   UNL     1      35.289 -24.411 -10.609  0.00  0.00    -0.270 OA
ATOM     20  N   UNL     1      36.851 -22.939  -9.801  0.00  0.00    -0.325 N 
ATOM     21  C   UNL     1      36.312 -23.732 -10.810  0.00  0.00    +0.243 C 
ATOM     22  H   UNL     1      36.415 -22.899  -8.919  0.00  0.00    +0.145 HD
ATOM     23  H   UNL     1      37.668 -22.417  -9.970  0.00  0.00    +0.145 HD
ENDBRANCH   4  21
BRANCH   5  25
ATOM     24  O   UNL     1      40.272 -26.341 -13.827  0.00  0.00    -0.245 OA
ATOM     25  C   UNL     1      40.137 -25.135 -13.594  0.00  0.00    +0.338 C 
BRANCH  25  26
ATOM     26  O   UNL     1      41.205 -24.304 -13.437  0.00  0.00    -0.477 OA
ATOM     27  H   UNL     1      41.217 -23.684 -12.735  0.00  0.00    +0.295 HD
ENDBRANCH  25  26
ENDBRANCH   5  25
TORSDOF 5
ENDMDL
MODEL 2
REMARK VINA RESULT:     -11.8      1.387      3.133
REMARK  Name = 5287459
REMARK  5 active torsions:
REMARK  status: ('A' for Active; 'I' for Inactive)
REMARK    1  A    between atoms: C_1  and  C_7
REMARK    2  A    between atoms: C_4  and  C_21
REMARK    3  A    between atoms: C_5  and  C_25
REMARK    4  A    between atoms: C_8  and  C_13
REMARK    5  A    between atoms: C_25  and  O_26
REMARK                            x       y       z     vdW  Elec       q    Type
REMARK                         _______ _______ _______ _____ _____    ______ ____
ROOT
ATOM      1  C   UNL     1      36.856 -22.977 -14.571  0.00  0.00    +0.000 C 
ATOM      2  C   UNL     1      38.130 -23.545 -14.563  0.00  0.00    +0.005 C 
ATOM      3  C   UNL     1      36.044 -23.068 -13.441  0.00  0.00    +0.006 C 
ATOM      4  C   UNL     1      38.592 -24.203 -13.423  0.00  0.00    +0.053 C 
ATOM      5  C   UNL     1      36.506 -23.727 -12.302  0.00  0.00    +0.076 C 
ATOM      6  C   UNL     1      37.780 -24.295 -12.293  0.00  0.00    +0.011 C 
ENDROOT
BRANCH   1   7
ATOM      7  C   UNL     1      36.377 -22.294 -15.753  0.00  0.00    +0.000 C 
ATOM      8  C   UNL     1      35.451 -20.978 -18.032  0.00  0.00    +0.000 C 
ATOM      9  C   UNL     1      35.053 -22.457 -16.164  0.00  0.00    +0.000 C 
ATOM     10  C   UNL     1      37.237 -21.473 -16.482  0.00  0.00    +0.000 C 
ATOM     11  C   UNL     1      34.590 -21.799 -17.304  0.00  0.00    +0.000 C 
ATOM     12  C   UNL     1      36.774 -20.815 -17.622  0.00  0.00    +0.000 C 
BRANCH   8  13
ATOM     13  C   UNL     1      34.972 -20.296 -19.215  0.00  0.00    +0.000 C 
ATOM     14  C   UNL     1      33.605 -20.242 -19.484  0.00  0.00    +0.000 C 
ATOM     15  C   UNL     1      35.878 -19.692 -20.086  0.00  0.00    +0.000 C 
ATOM     16  C   UNL     1      33.143 -19.583 -20.624  0.00  0.00    +0.000 C 
ATOM     17  C   UNL     1      35.418 -19.034 -21.226  0.00  0.00    +0.000 C 
ATOM     18  C   UNL     1      34.051 -18.979 -21.496  0.00  0.00    +0.000 C 
ENDBRANCH   8  13
ENDBRANCH   1   7
BRANCH   4  21
ATOM     19  O   UNL     1      40.927 -24.125 -13.123  0.00  0.00    -0.270 OA
ATOM     20  N   UNL     1      40.030 -26.148 -13.726  0.00  0.00    -0.325 N 
ATOM     21  C   UNL     1      39.920 -24.796 -13.414  0.00  0.00    +0.243 C 
ATOM     22  H   UNL     1      40.913 -26.583 -13.731  0.00  0.00    +0.145 HD
ATOM     23  H   UNL     1      39.223 -26.670 -13.942  0.00  0.00    +0.145 HD
ENDBRANCH   4  21
BRANCH   5  25
ATOM     24  O   UNL     1      35.849 -24.576 -10.163  0.00  0.00    -0.245 OA
ATOM     25  C   UNL     1      35.659 -23.823 -11.123  0.00  0.00    +0.338 C 
BRANCH  25  26
ATOM     26  O   UNL     1      34.597 -22.973 -11.176  0.00  0.00    -0.477 OA
ATOM     27  H   UNL     1      34.637 -22.143 -10.743  0.00  0.00    +0.295 HD
ENDBRANCH  25  26
ENDBRANCH   5  25
TORSDOF 5
ENDMDL
MODEL 3
REMARK VINA RESULT:     -11.1      1.970      4.013
REMARK  Name = 5287459
REMARK  5 active torsions:
REMARK  status: ('A' for Active; 'I' for Inactive)
REMARK    1  A    between atoms: C_1  and  C_7
REMARK    2  A    between atoms: C_4  and  C_21
REMARK    3  A    between atoms: C_5  and  C_25
REMARK    4  A    between atoms: C_8  and  C_13
REMARK    5  A    between atoms: C_25  and  O_26
REMARK                            x       y       z     vdW  Elec       q    Type
REMARK                         _______ _______ _______ _____ _____    ______ ____
ROOT
ATOM      1  C   UNL     1      35.563 -22.503 -15.580  0.00  0.00    +0.000 C 
ATOM      2  C   UNL     1      36.737 -23.029 -15.043  0.00  0.00    +0.005 C 
ATOM      3  C   UNL     1      34.341 -22.744 -14.955  0.00  0.00    +0.006 C 
ATOM      4  C   UNL     1      36.689 -23.796 -13.879  0.00  0.00    +0.053 C 
ATOM      5  C   UNL     1      34.291 -23.512 -13.791  0.00  0.00    +0.076 C 
ATOM      6  C   UNL     1      35.467 -24.037 -13.253  0.00  0.00    +0.011 C 
ENDROOT
BRANCH   1   7
ATOM      7  C   UNL     1      35.613 -21.708 -16.788  0.00  0.00    +0.000 C 
ATOM      8  C   UNL     1      35.710 -20.173 -19.116  0.00  0.00    +0.000 C 
ATOM      9  C   UNL     1      36.784 -21.032 -17.131  0.00  0.00    +0.000 C 
ATOM     10  C   UNL     1      34.489 -21.616 -17.610  0.00  0.00    +0.000 C 
ATOM     11  C   UNL     1      36.833 -20.265 -18.294  0.00  0.00    +0.000 C 
ATOM     12  C   UNL     1      34.538 -20.849 -18.774  0.00  0.00    +0.000 C 
BRANCH   8  13
ATOM     13  C   UNL     1      35.758 -19.377 -20.324  0.00  0.00    +0.000 C 
ATOM     14  C   UNL     1      34.673 -19.368 -21.198  0.00  0.00    +0.000 C 
ATOM     15  C   UNL     1      36.893 -18.619 -20.612  0.00  0.00    +0.000 C 
ATOM     16  C   UNL     1      34.720 -18.599 -22.361  0.00  0.00    +0.000 C 
ATOM     17  C   UNL     1      36.941 -17.850 -21.775  0.00  0.00    +0.000 C 
ATOM     18  C   UNL     1      35.855 -17.840 -22.650  0.00  0.00    +0.000 C 
ENDBRANCH   8  13
ENDBRANCH   1   7
BRANCH   4  21
ATOM     19  O   UNL     1      39.032 -23.927 -13.672  0.00  0.00    -0.270 OA
ATOM     20  N   UNL     1      37.797 -25.346 -12.359  0.00  0.00    -0.325 N 
ATOM     21  C   UNL     1      37.914 -24.345 -13.319  0.00  0.00    +0.243 C 
ATOM     22  H   UNL     1      38.604 -25.741 -11.958  0.00  0.00    +0.145 HD
ATOM     23  H   UNL     1      36.905 -25.658 -12.080  0.00  0.00    +0.145 HD
ENDBRANCH   4  21
BRANCH   5  25
ATOM     24  O   UNL     1      32.449 -22.996 -12.354  0.00  0.00    -0.245 OA
ATOM     25  C   UNL     1      33.017 -23.764 -13.138  0.00  0.00    +0.338 C 
BRANCH  25  26
ATOM     26  O   UNL     1      32.484 -24.968 -13.485  0.00  0.00    -0.477 OA
ATOM     27  H   UNL     1      32.863 -25.465 -14.183  0.00  0.00    +0.295 HD
ENDBRANCH  25  26
ENDBRANCH   5  25
TORSDOF 5
ENDMDL
MODEL 4
REMARK VINA RESULT:     -11.1      4.178      5.600
REMARK  Name = 5287459
REMARK  5 active torsions:
REMARK  status: ('A' for Active; 'I' for Inactive)
REMARK    1  A    between atoms: C_1  and  C_7
REMARK    2  A    between atoms: C_4  and  C_21
REMARK    3  A    between atoms: C_5  and  C_25
REMARK    4  A    between atoms: C_8  and  C_13
REMARK    5  A    between atoms: C_25  and  O_26
REMARK                            x       y       z     vdW  Elec       q    Type
REMARK                         _______ _______ _______ _____ _____    ______ ____
ROOT
ATOM      1  C   UNL     1      34.624 -23.623 -13.471  0.00  0.00    +0.000 C 
ATOM      2  C   UNL     1      35.480 -24.377 -14.272  0.00  0.00    +0.005 C 
ATOM      3  C   UNL     1      35.054 -23.172 -12.223  0.00  0.00    +0.006 C 
ATOM      4  C   UNL     1      36.767 -24.679 -13.827  0.00  0.00    +0.053 C 
ATOM      5  C   UNL     1      36.340 -23.474 -11.777  0.00  0.00    +0.076 C 
ATOM      6  C   UNL     1      37.197 -24.228 -12.580  0.00  0.00    +0.011 C 
ENDROOT
BRANCH   1   7
ATOM      7  C   UNL     1      33.289 -23.310 -13.933  0.00  0.00    +0.000 C 
ATOM      8  C   UNL     1      30.716 -22.705 -14.825  0.00  0.00    +0.000 C 
ATOM      9  C   UNL     1      33.098 -22.797 -15.216  0.00  0.00    +0.000 C 
ATOM     10  C   UNL     1      32.194 -23.520 -13.096  0.00  0.00    +0.000 C 
ATOM     11  C   UNL     1      31.811 -22.494 -15.662  0.00  0.00    +0.000 C 
ATOM     12  C   UNL     1      30.907 -23.218 -13.541  0.00  0.00    +0.000 C 
BRANCH   8  13
ATOM     13  C   UNL     1      29.381 -22.390 -15.286  0.00  0.00    +0.000 C 
ATOM     14  C   UNL     1      28.474 -21.769 -14.428  0.00  0.00    +0.000 C 
ATOM     15  C   UNL     1      29.001 -22.709 -16.589  0.00  0.00    +0.000 C 
ATOM     16  C   UNL     1      27.188 -21.465 -14.873  0.00  0.00    +0.000 C 
ATOM     17  C   UNL     1      27.715 -22.406 -17.035  0.00  0.00    +0.000 C 
ATOM     18  C   UNL     1      26.807 -21.784 -16.177  0.00  0.00    +0.000 C 
ENDBRANCH   8  13
ENDBRANCH   1   7
BRANCH   4  21
ATOM     19  O   UNL     1      37.234 -26.400 -15.366  0.00  0.00    -0.270 OA
ATOM     20  N   UNL     1      39.010 -25.129 -14.667  0.00  0.00    -0.325 N 
ATOM     21  C   UNL     1      37.660 -25.466 -14.663  0.00  0.00    +0.243 C 
ATOM     22  H   UNL     1      39.644 -25.640 -15.220  0.00  0.00    +0.145 HD
ATOM     23  H   UNL     1      39.332 -24.379 -14.116  0.00  0.00    +0.145 HD
ENDBRANCH   4  21
BRANCH   5  25
ATOM     24  O   UNL     1      36.547 -23.551  -9.395  0.00  0.00    -0.245 OA
ATOM     25  C   UNL     1      36.788 -23.004 -10.476  0.00  0.00    +0.338 C 
BRANCH  25  26
ATOM     26  O   UNL     1      37.527 -21.863 -10.561  0.00  0.00    -0.477 OA
ATOM     27  H   UNL     1      37.122 -21.031 -10.419  0.00  0.00    +0.295 HD
ENDBRANCH  25  26
ENDBRANCH   5  25
TORSDOF 5
ENDMDL
MODEL 5
REMARK VINA RESULT:     -10.9      2.912      5.225
REMARK  Name = 5287459
REMARK  5 active torsions:
REMARK  status: ('A' for Active; 'I' for Inactive)
REMARK    1  A    between atoms: C_1  and  C_7
REMARK    2  A    between atoms: C_4  and  C_21
REMARK    3  A    between atoms: C_5  and  C_25
REMARK    4  A    between atoms: C_8  and  C_13
REMARK    5  A    between atoms: C_25  and  O_26
REMARK                            x       y       z     vdW  Elec       q    Type
REMARK                         _______ _______ _______ _____ _____    ______ ____
ROOT
ATOM      1  C   UNL     1      33.795 -22.385 -16.510  0.00  0.00    +0.000 C 
ATOM      2  C   UNL     1      34.808 -23.019 -15.791  0.00  0.00    +0.005 C 
ATOM      3  C   UNL     1      32.462 -22.569 -16.146  0.00  0.00    +0.006 C 
ATOM      4  C   UNL     1      34.487 -23.835 -14.706  0.00  0.00    +0.053 C 
ATOM      5  C   UNL     1      32.140 -23.386 -15.062  0.00  0.00    +0.076 C 
ATOM      6  C   UNL     1      33.154 -24.019 -14.342  0.00  0.00    +0.011 C 
ENDROOT
BRANCH   1   7
ATOM      7  C   UNL     1      34.127 -21.539 -17.636  0.00  0.00    +0.000 C 
ATOM      8  C   UNL     1      34.769 -19.906 -19.805  0.00  0.00    +0.000 C 
ATOM      9  C   UNL     1      35.463 -21.287 -17.948  0.00  0.00    +0.000 C 
ATOM     10  C   UNL     1      33.112 -20.974 -18.408  0.00  0.00    +0.000 C 
ATOM     11  C   UNL     1      35.784 -20.471 -19.033  0.00  0.00    +0.000 C 
ATOM     12  C   UNL     1      33.433 -20.158 -19.492  0.00  0.00    +0.000 C 
BRANCH   8  13
ATOM     13  C   UNL     1      35.101 -19.059 -20.930  0.00  0.00    +0.000 C 
ATOM     14  C   UNL     1      34.278 -19.038 -22.055  0.00  0.00    +0.000 C 
ATOM     15  C   UNL     1      36.245 -18.262 -20.887  0.00  0.00    +0.000 C 
ATOM     16  C   UNL     1      34.598 -18.220 -23.139  0.00  0.00    +0.000 C 
ATOM     17  C   UNL     1      36.566 -17.444 -21.971  0.00  0.00    +0.000 C 
ATOM     18  C   UNL     1      35.743 -17.423 -23.097  0.00  0.00    +0.000 C 
ENDBRANCH   8  13
ENDBRANCH   1   7
BRANCH   4  21
ATOM     19  O   UNL     1      36.033 -23.979 -12.934  0.00  0.00    -0.270 OA
ATOM     20  N   UNL     1      35.982 -25.736 -14.407  0.00  0.00    -0.325 N 
ATOM     21  C   UNL     1      35.544 -24.495 -13.956  0.00  0.00    +0.243 C 
ATOM     22  H   UNL     1      36.696 -26.212 -13.925  0.00  0.00    +0.145 HD
ATOM     23  H   UNL     1      35.577 -26.139 -15.210  0.00  0.00    +0.145 HD
ENDBRANCH   4  21
BRANCH   5  25
ATOM     24  O   UNL     1      29.900 -22.686 -14.600  0.00  0.00    -0.245 OA
ATOM     25  C   UNL     1      30.750 -23.578 -14.682  0.00  0.00    +0.338 C 
BRANCH  25  26
ATOM     26  O   UNL     1      30.458 -24.882 -14.418  0.00  0.00    -0.477 OA
ATOM     27  H   UNL     1      29.725 -25.098 -13.876  0.00  0.00    +0.295 HD
ENDBRANCH  25  26
ENDBRANCH   5  25
TORSDOF 5
ENDMDL
MODEL 6
REMARK VINA RESULT:     -10.6      2.740      5.284
REMARK  Name = 5287459
REMARK  5 active torsions:
REMARK  status: ('A' for Active; 'I' for Inactive)
REMARK    1  A    between atoms: C_1  and  C_7
REMARK    2  A    between atoms: C_4  and  C_21
REMARK    3  A    between atoms: C_5  and  C_25
REMARK    4  A    between atoms: C_8  and  C_13
REMARK    5  A    between atoms: C_25  and  O_26
REMARK                            x       y       z     vdW  Elec       q    Type
REMARK                         _______ _______ _______ _____ _____    ______ ____
ROOT
ATOM      1  C   UNL     1      34.837 -21.466 -17.470  0.00  0.00    +0.000 C 
ATOM      2  C   UNL     1      36.046 -21.729 -16.829  0.00  0.00    +0.005 C 
ATOM      3  C   UNL     1      33.648 -21.982 -16.957  0.00  0.00    +0.006 C 
ATOM      4  C   UNL     1      36.066 -22.508 -15.671  0.00  0.00    +0.053 C 
ATOM      5  C   UNL     1      33.667 -22.761 -15.800  0.00  0.00    +0.076 C 
ATOM      6  C   UNL     1      34.877 -23.024 -15.158  0.00  0.00    +0.011 C 
ENDROOT
BRANCH   1   7
ATOM      7  C   UNL     1      34.816 -20.658 -18.671  0.00  0.00    +0.000 C 
ATOM      8  C   UNL     1      34.777 -19.100 -20.985  0.00  0.00    +0.000 C 
ATOM      9  C   UNL     1      36.011 -20.187 -19.215  0.00  0.00    +0.000 C 
ATOM     10  C   UNL     1      33.601 -20.350 -19.284  0.00  0.00    +0.000 C 
ATOM     11  C   UNL     1      35.991 -19.407 -20.372  0.00  0.00    +0.000 C 
ATOM     12  C   UNL     1      33.582 -19.571 -20.441  0.00  0.00    +0.000 C 
BRANCH   8  13
ATOM     13  C   UNL     1      34.756 -18.291 -22.185  0.00  0.00    +0.000 C 
ATOM     14  C   UNL     1      34.189 -18.793 -23.355  0.00  0.00    +0.000 C 
ATOM     15  C   UNL     1      35.302 -17.008 -22.169  0.00  0.00    +0.000 C 
ATOM     16  C   UNL     1      34.168 -18.013 -24.511  0.00  0.00    +0.000 C 
ATOM     17  C   UNL     1      35.282 -16.227 -23.325  0.00  0.00    +0.000 C 
ATOM     18  C   UNL     1      34.715 -16.729 -24.496  0.00  0.00    +0.000 C 
ENDBRANCH   8  13
ENDBRANCH   1   7
BRANCH   4  21
ATOM     19  O   UNL     1      38.385 -22.235 -15.362  0.00  0.00    -0.270 OA
ATOM     20  N   UNL     1      37.313 -23.669 -13.929  0.00  0.00    -0.325 N 
ATOM     21  C   UNL     1      37.327 -22.783 -15.002  0.00  0.00    +0.243 C 
ATOM     22  H   UNL     1      38.148 -23.880 -13.452  0.00  0.00    +0.145 HD
ATOM     23  H   UNL     1      36.466 -24.086 -13.647  0.00  0.00    +0.145 HD
ENDBRANCH   4  21
BRANCH   5  25
ATOM     24  O   UNL     1      32.338 -24.091 -14.321  0.00  0.00    -0.245 OA
ATOM     25  C   UNL     1      32.427 -23.299 -15.265  0.00  0.00    +0.338 C 
BRANCH  25  26
ATOM     26  O   UNL     1      31.330 -22.832 -15.923  0.00  0.00    -0.477 OA
ATOM     27  H   UNL     1      30.720 -22.275 -15.482  0.00  0.00    +0.295 HD
ENDBRANCH  25  26
ENDBRANCH   5  25
TORSDOF 5
ENDMDL
MODEL 7
REMARK VINA RESULT:     -10.3      9.305     13.107
REMARK  Name = 5287459
REMARK  5 active torsions:
REMARK  status: ('A' for Active; 'I' for Inactive)
REMARK    1  A    between atoms: C_1  and  C_7
REMARK    2  A    between atoms: C_4  and  C_21
REMARK    3  A    between atoms: C_5  and  C_25
REMARK    4  A    between atoms: C_8  and  C_13
REMARK    5  A    between atoms: C_25  and  O_26
REMARK                            x       y       z     vdW  Elec       q    Type
REMARK                         _______ _______ _______ _____ _____    ______ ____
ROOT
ATOM      1  C   UNL     1      34.016 -12.778 -21.977  0.00  0.00    +0.000 C 
ATOM      2  C   UNL     1      33.030 -12.115 -21.247  0.00  0.00    +0.005 C 
ATOM      3  C   UNL     1      34.595 -12.163 -23.086  0.00  0.00    +0.006 C 
ATOM      4  C   UNL     1      32.623 -10.836 -21.627  0.00  0.00    +0.053 C 
ATOM      5  C   UNL     1      34.188 -10.885 -23.467  0.00  0.00    +0.076 C 
ATOM      6  C   UNL     1      33.202 -10.221 -22.736  0.00  0.00    +0.011 C 
ENDROOT
BRANCH   1   7
ATOM      7  C   UNL     1      34.438 -14.105 -21.583  0.00  0.00    +0.000 C 
ATOM      8  C   UNL     1      35.252 -16.664 -20.825  0.00  0.00    +0.000 C 
ATOM      9  C   UNL     1      34.788 -15.043 -22.555  0.00  0.00    +0.000 C 
ATOM     10  C   UNL     1      34.497 -14.447 -20.232  0.00  0.00    +0.000 C 
ATOM     11  C   UNL     1      35.194 -16.322 -22.176  0.00  0.00    +0.000 C 
ATOM     12  C   UNL     1      34.903 -15.726 -19.853  0.00  0.00    +0.000 C 
BRANCH   8  13
ATOM     13  C   UNL     1      35.672 -17.991 -20.431  0.00  0.00    +0.000 C 
ATOM     14  C   UNL     1      37.030 -18.291 -20.326  0.00  0.00    +0.000 C 
ATOM     15  C   UNL     1      34.719 -18.971 -20.156  0.00  0.00    +0.000 C 
ATOM     16  C   UNL     1      37.435 -19.570 -19.946  0.00  0.00    +0.000 C 
ATOM     17  C   UNL     1      35.123 -20.251 -19.776  0.00  0.00    +0.000 C 
ATOM     18  C   UNL     1      36.481 -20.551 -19.671  0.00  0.00    +0.000 C 
ENDBRANCH   8  13
ENDBRANCH   1   7
BRANCH   4  21
ATOM     19  O   UNL     1      31.753  -8.974 -20.476  0.00  0.00    -0.270 OA
ATOM     20  N   UNL     1      30.412 -10.830 -20.602  0.00  0.00    -0.325 N 
ATOM     21  C   UNL     1      31.594 -10.145 -20.867  0.00  0.00    +0.243 C 
ATOM     22  H   UNL     1      29.694 -10.394 -20.089  0.00  0.00    +0.145 HD
ATOM     23  H   UNL     1      30.295 -11.752 -20.927  0.00  0.00    +0.145 HD
ENDBRANCH   4  21
BRANCH   5  25
ATOM     24  O   UNL     1      34.409 -10.366 -25.792  0.00  0.00    -0.245 OA
ATOM     25  C   UNL     1      34.792 -10.243 -24.624  0.00  0.00    +0.338 C 
BRANCH  25  26
ATOM     26  O   UNL     1      35.857  -9.464 -24.290  0.00  0.00    -0.477 OA
ATOM     27  H   UNL     1      35.863  -8.555 -24.517  0.00  0.00    +0.295 HD
ENDBRANCH  25  26
ENDBRANCH   5  25
TORSDOF 5
ENDMDL
MODEL 8
REMARK VINA RESULT:     -10.3      9.403     13.455
REMARK  Name = 5287459
REMARK  5 active torsions:
REMARK  status: ('A' for Active; 'I' for Inactive)
REMARK    1  A    between atoms: C_1  and  C_7
REMARK    2  A    between atoms: C_4  and  C_21
REMARK    3  A    between atoms: C_5  and  C_25
REMARK    4  A    between atoms: C_8  and  C_13
REMARK    5  A    between atoms: C_25  and  O_26
REMARK                            x       y       z     vdW  Elec       q    Type
REMARK                         _______ _______ _______ _____ _____    ______ ____
ROOT
ATOM      1  C   UNL     1      34.016 -12.747 -22.003  0.00  0.00    +0.000 C 
ATOM      2  C   UNL     1      34.603 -12.129 -23.106  0.00  0.00    +0.005 C 
ATOM      3  C   UNL     1      33.025 -12.085 -21.279  0.00  0.00    +0.006 C 
ATOM      4  C   UNL     1      34.197 -10.850 -23.488  0.00  0.00    +0.053 C 
ATOM      5  C   UNL     1      32.620 -10.806 -21.659  0.00  0.00    +0.076 C 
ATOM      6  C   UNL     1      33.206 -10.189 -22.764  0.00  0.00    +0.011 C 
ENDROOT
BRANCH   1   7
ATOM      7  C   UNL     1      34.437 -14.073 -21.607  0.00  0.00    +0.000 C 
ATOM      8  C   UNL     1      35.249 -16.631 -20.843  0.00  0.00    +0.000 C 
ATOM      9  C   UNL     1      34.495 -14.413 -20.255  0.00  0.00    +0.000 C 
ATOM     10  C   UNL     1      34.784 -15.013 -22.577  0.00  0.00    +0.000 C 
ATOM     11  C   UNL     1      34.901 -15.691 -19.873  0.00  0.00    +0.000 C 
ATOM     12  C   UNL     1      35.191 -16.292 -22.196  0.00  0.00    +0.000 C 
BRANCH   8  13
ATOM     13  C   UNL     1      35.671 -17.958 -20.448  0.00  0.00    +0.000 C 
ATOM     14  C   UNL     1      37.029 -18.256 -20.346  0.00  0.00    +0.000 C 
ATOM     15  C   UNL     1      34.718 -18.937 -20.169  0.00  0.00    +0.000 C 
ATOM     16  C   UNL     1      37.435 -19.535 -19.964  0.00  0.00    +0.000 C 
ATOM     17  C   UNL     1      35.124 -20.216 -19.788  0.00  0.00    +0.000 C 
ATOM     18  C   UNL     1      36.482 -20.516 -19.685  0.00  0.00    +0.000 C 
ENDBRANCH   8  13
ENDBRANCH   1   7
BRANCH   4  21
ATOM     19  O   UNL     1      34.398 -10.418 -25.794  0.00  0.00    -0.270 OA
ATOM     20  N   UNL     1      35.864  -9.328 -24.407  0.00  0.00    -0.325 N 
ATOM     21  C   UNL     1      34.810 -10.206 -24.639  0.00  0.00    +0.243 C 
ATOM     22  H   UNL     1      36.303  -8.874 -25.162  0.00  0.00    +0.145 HD
ATOM     23  H   UNL     1      36.171  -9.160 -23.486  0.00  0.00    +0.145 HD
ENDBRANCH   4  21
BRANCH   5  25
ATOM     24  O   UNL     1      31.732  -9.049 -20.299  0.00  0.00    -0.245 OA
ATOM     25  C   UNL     1      31.586 -10.116 -20.904  0.00  0.00    +0.338 C 
BRANCH  25  26
ATOM     26  O   UNL     1      30.396 -10.778 -20.926  0.00  0.00    -0.477 OA
ATOM     27  H   UNL     1      29.648 -10.384 -21.329  0.00  0.00    +0.295 HD
ENDBRANCH  25  26
ENDBRANCH   5  25
TORSDOF 5
ENDMDL
MODEL 9
REMARK VINA RESULT:     -10.3     10.235     13.751
REMARK  Name = 5287459
REMARK  5 active torsions:
REMARK  status: ('A' for Active; 'I' for Inactive)
REMARK    1  A    between atoms: C_1  and  C_7
REMARK    2  A    between atoms: C_4  and  C_21
REMARK    3  A    between atoms: C_5  and  C_25
REMARK    4  A    between atoms: C_8  and  C_13
REMARK    5  A    between atoms: C_25  and  O_26
REMARK                            x       y       z     vdW  Elec       q    Type
REMARK                         _______ _______ _______ _____ _____    ______ ____
ROOT
ATOM      1  C   UNL     1      34.058 -13.227 -22.597  0.00  0.00    +0.000 C 
ATOM      2  C   UNL     1      34.517 -13.853 -21.439  0.00  0.00    +0.005 C 
ATOM      3  C   UNL     1      33.951 -13.950 -23.784  0.00  0.00    +0.006 C 
ATOM      4  C   UNL     1      34.867 -15.203 -21.467  0.00  0.00    +0.053 C 
ATOM      5  C   UNL     1      34.302 -15.299 -23.814  0.00  0.00    +0.076 C 
ATOM      6  C   UNL     1      34.760 -15.926 -22.654  0.00  0.00    +0.011 C 
ENDROOT
BRANCH   1   7
ATOM      7  C   UNL     1      33.695 -11.826 -22.568  0.00  0.00    +0.000 C 
ATOM      8  C   UNL     1      32.994  -9.127 -22.510  0.00  0.00    +0.000 C 
ATOM      9  C   UNL     1      32.714 -11.379 -21.683  0.00  0.00    +0.000 C 
ATOM     10  C   UNL     1      34.327 -10.924 -23.423  0.00  0.00    +0.000 C 
ATOM     11  C   UNL     1      32.363 -10.029 -21.654  0.00  0.00    +0.000 C 
ATOM     12  C   UNL     1      33.976  -9.574 -23.395  0.00  0.00    +0.000 C 
BRANCH   8  13
ATOM     13  C   UNL     1      32.631  -7.726 -22.482  0.00  0.00    +0.000 C 
ATOM     14  C   UNL     1      32.269  -7.075 -23.660  0.00  0.00    +0.000 C 
ATOM     15  C   UNL     1      32.642  -7.028 -21.274  0.00  0.00    +0.000 C 
ATOM     16  C   UNL     1      31.917  -5.726 -23.632  0.00  0.00    +0.000 C 
ATOM     17  C   UNL     1      32.291  -5.679 -21.246  0.00  0.00    +0.000 C 
ATOM     18  C   UNL     1      31.929  -5.027 -22.424  0.00  0.00    +0.000 C 
ENDBRANCH   8  13
ENDBRANCH   1   7
BRANCH   4  21
ATOM     19  O   UNL     1      35.358 -15.264 -19.164  0.00  0.00    -0.270 OA
ATOM     20  N   UNL     1      35.774 -17.175 -20.361  0.00  0.00    -0.325 N 
ATOM     21  C   UNL     1      35.345 -15.856 -20.259  0.00  0.00    +0.243 C 
ATOM     22  H   UNL     1      36.106 -17.649 -19.564  0.00  0.00    +0.145 HD
ATOM     23  H   UNL     1      35.747 -17.636 -21.231  0.00  0.00    +0.145 HD
ENDBRANCH   4  21
BRANCH   5  25
ATOM     24  O   UNL     1      34.361 -17.271 -25.168  0.00  0.00    -0.245 OA
ATOM     25  C   UNL     1      34.190 -16.053 -25.053  0.00  0.00    +0.338 C 
BRANCH  25  26
ATOM     26  O   UNL     1      33.867 -15.264 -26.114  0.00  0.00    -0.477 OA
ATOM     27  H   UNL     1      32.971 -15.047 -26.281  0.00  0.00    +0.295 HD
ENDBRANCH  25  26
ENDBRANCH   5  25
TORSDOF 5
ENDMDL
