MODEL 1
REMARK VINA RESULT:     -12.5      0.000      0.000
REMARK  Name = 54671008
REMARK  7 active torsions:
REMARK  status: ('A' for Active; 'I' for Inactive)
REMARK    1  A    between atoms: C_4  and  C_21
REMARK    2  A    between atoms: C_6  and  C_11
REMARK    3  A    between atoms: C_8  and  O_34
REMARK    4  A    between atoms: N_10  and  C_13
REMARK    5  A    between atoms: C_13  and  C_15
REMARK    6  A    between atoms: C_21  and  N_25
REMARK    7  A    between atoms: C_26  and  C_31
REMARK                            x       y       z     vdW  Elec       q    Type
REMARK                         _______ _______ _______ _____ _____    ______ ____
ROOT
ATOM      1  O   UNL     1      36.295 -22.613 -14.205  0.00  0.00    -0.271 OA
ATOM      2  N   UNL     1      33.977 -22.937 -14.155  0.00  0.00    -0.232 N 
ATOM      3  N   UNL     1      32.726 -22.660 -16.158  0.00  0.00    -0.386 NA
ATOM      4  C   UNL     1      32.794 -22.932 -14.891  0.00  0.00    +0.182 C 
ATOM      5  C   UNL     1      35.199 -22.638 -14.763  0.00  0.00    +0.265 C 
ATOM      6  C   UNL     1      33.900 -22.363 -16.794  0.00  0.00    +0.199 C 
ATOM      7  C   UNL     1      33.938 -23.260 -12.730  0.00  0.00    +0.122 C 
ATOM      8  C   UNL     1      35.110 -22.329 -16.217  0.00  0.00    +0.245 C 
ENDROOT
BRANCH   6  11
ATOM      9  O   UNL     1      33.945 -22.943 -19.069  0.00  0.00    -0.268 OA
ATOM     10  N   UNL     1      33.531 -20.727 -18.477  0.00  0.00    -0.295 N 
ATOM     11  C   UNL     1      33.798 -22.060 -18.229  0.00  0.00    +0.275 C 
ATOM     12  H   UNL     1      33.436 -20.118 -17.710  0.00  0.00    +0.150 HD
BRANCH  10  13
ATOM     13  C   UNL     1      33.386 -20.183 -19.808  0.00  0.00    +0.117 C 
BRANCH  13  15
ATOM     14  F   UNL     1      38.124 -17.739 -21.617  0.00  0.00    -0.204 F 
ATOM     15  C   UNL     1      34.649 -19.532 -20.291  0.00  0.00    -0.002 C 
ATOM     16  C   UNL     1      35.841 -19.716 -19.589  0.00  0.00    -0.000 C 
ATOM     17  C   UNL     1      34.632 -18.742 -21.440  0.00  0.00    -0.000 C 
ATOM     18  C   UNL     1      37.014 -19.110 -20.037  0.00  0.00    +0.029 C 
ATOM     19  C   UNL     1      35.806 -18.136 -21.888  0.00  0.00    +0.029 C 
ATOM     20  C   UNL     1      36.997 -18.320 -21.187  0.00  0.00    +0.140 C 
ENDBRANCH  13  15
ENDBRANCH  10  13
ENDBRANCH   6  11
BRANCH   4  21
ATOM     21  C   UNL     1      31.508 -23.263 -14.174  0.00  0.00    +0.117 C 
ATOM     22  C   UNL     1      31.414 -24.767 -13.955  0.00  0.00    +0.028 C 
ATOM     23  C   UNL     1      31.443 -22.504 -12.856  0.00  0.00    +0.028 C 
BRANCH  21  25
ATOM     24  O   UNL     1      28.736 -24.012 -14.172  0.00  0.00    -0.265 OA
ATOM     25  N   UNL     1      30.493 -22.807 -15.088  0.00  0.00    -0.293 N 
ATOM     26  C   UNL     1      29.172 -23.226 -15.008  0.00  0.00    +0.302 C 
ATOM     27  H   UNL     1      30.747 -22.171 -15.797  0.00  0.00    +0.150 HD
BRANCH  26  31
ATOM     28  O   UNL     1      27.528 -21.559 -15.784  0.00  0.00    -0.416 OA
ATOM     29  N   UNL     1      28.044 -23.180 -17.238  0.00  0.00    -0.102 NA
ATOM     30  N   UNL     1      27.118 -22.347 -17.838  0.00  0.00    -0.111 NA
ATOM     31  C   UNL     1      28.253 -22.682 -16.042  0.00  0.00    +0.304 A 
ATOM     32  C   UNL     1      26.846 -21.416 -16.953  0.00  0.00    +0.227 A 
ATOM     33  C   UNL     1      25.931 -20.272 -17.050  0.00  0.00    +0.097 C 
ENDBRANCH  26  31
ENDBRANCH  21  25
ENDBRANCH   4  21
BRANCH   8  34
ATOM     34  O   UNL     1      36.269 -22.025 -16.892  0.00  0.00    -0.370 OA
ATOM     35  H   UNL     1      36.248 -21.876 -17.817  0.00  0.00    +0.211 HD
ENDBRANCH   8  34
TORSDOF 7
ENDMDL
MODEL 2
REMARK VINA RESULT:     -10.6      2.062      2.942
REMARK  Name = 54671008
REMARK  7 active torsions:
REMARK  status: ('A' for Active; 'I' for Inactive)
REMARK    1  A    between atoms: C_4  and  C_21
REMARK    2  A    between atoms: C_6  and  C_11
REMARK    3  A    between atoms: C_8  and  O_34
REMARK    4  A    between atoms: N_10  and  C_13
REMARK    5  A    between atoms: C_13  and  C_15
REMARK    6  A    between atoms: C_21  and  N_25
REMARK    7  A    between atoms: C_26  and  C_31
REMARK                            x       y       z     vdW  Elec       q    Type
REMARK                         _______ _______ _______ _____ _____    ______ ____
ROOT
ATOM      1  O   UNL     1      38.322 -20.660 -15.949  0.00  0.00    -0.271 OA
ATOM      2  N   UNL     1      36.682 -22.102 -15.106  0.00  0.00    -0.232 N 
ATOM      3  N   UNL     1      34.781 -22.602 -16.444  0.00  0.00    -0.386 NA
ATOM      4  C   UNL     1      35.464 -22.733 -15.348  0.00  0.00    +0.182 C 
ATOM      5  C   UNL     1      37.257 -21.264 -16.064  0.00  0.00    +0.265 C 
ATOM      6  C   UNL     1      35.309 -21.791 -17.411  0.00  0.00    +0.199 C 
ATOM      7  C   UNL     1      37.367 -22.322 -13.834  0.00  0.00    +0.122 C 
ATOM      8  C   UNL     1      36.466 -21.122 -17.318  0.00  0.00    +0.245 C 
ENDROOT
BRANCH   6  11
ATOM      9  O   UNL     1      33.992 -22.642 -19.160  0.00  0.00    -0.268 OA
ATOM     10  N   UNL     1      34.459 -20.359 -19.106  0.00  0.00    -0.295 N 
ATOM     11  C   UNL     1      34.518 -21.660 -18.643  0.00  0.00    +0.275 C 
ATOM     12  H   UNL     1      34.927 -19.659 -18.597  0.00  0.00    +0.150 HD
BRANCH  10  13
ATOM     13  C   UNL     1      33.742 -19.975 -20.301  0.00  0.00    +0.117 C 
BRANCH  13  15
ATOM     14  F   UNL     1      36.202 -15.655 -22.942  0.00  0.00    -0.204 F 
ATOM     15  C   UNL     1      34.398 -18.823 -21.006  0.00  0.00    -0.002 C 
ATOM     16  C   UNL     1      35.031 -17.824 -20.267  0.00  0.00    -0.000 C 
ATOM     17  C   UNL     1      34.374 -18.752 -22.398  0.00  0.00    -0.000 C 
ATOM     18  C   UNL     1      35.640 -16.754 -20.921  0.00  0.00    +0.029 C 
ATOM     19  C   UNL     1      34.983 -17.681 -23.053  0.00  0.00    +0.029 C 
ATOM     20  C   UNL     1      35.617 -16.682 -22.314  0.00  0.00    +0.140 C 
ENDBRANCH  13  15
ENDBRANCH  10  13
ENDBRANCH   6  11
BRANCH   4  21
ATOM     21  C   UNL     1      34.898 -23.626 -14.271  0.00  0.00    +0.117 C 
ATOM     22  C   UNL     1      35.505 -25.017 -14.384  0.00  0.00    +0.028 C 
ATOM     23  C   UNL     1      35.162 -23.013 -12.902  0.00  0.00    +0.028 C 
BRANCH  21  25
ATOM     24  O   UNL     1      32.775 -24.306 -12.460  0.00  0.00    -0.265 OA
ATOM     25  N   UNL     1      33.488 -23.648 -14.567  0.00  0.00    -0.293 N 
ATOM     26  C   UNL     1      32.531 -23.991 -13.622  0.00  0.00    +0.302 C 
ATOM     27  H   UNL     1      33.193 -23.410 -15.476  0.00  0.00    +0.150 HD
BRANCH  26  31
ATOM     28  O   UNL     1      30.525 -22.821 -14.453  0.00  0.00    -0.416 OA
ATOM     29  N   UNL     1      30.339 -25.037 -14.211  0.00  0.00    -0.102 NA
ATOM     30  N   UNL     1      29.132 -24.556 -14.681  0.00  0.00    -0.111 NA
ATOM     31  C   UNL     1      31.122 -23.990 -14.093  0.00  0.00    +0.304 A 
ATOM     32  C   UNL     1      29.286 -23.259 -14.807  0.00  0.00    +0.227 A 
ATOM     33  C   UNL     1      28.331 -22.242 -15.265  0.00  0.00    +0.097 C 
ENDBRANCH  26  31
ENDBRANCH  21  25
ENDBRANCH   4  21
BRANCH   8  34
ATOM     34  O   UNL     1      36.963 -20.314 -18.315  0.00  0.00    -0.370 OA
ATOM     35  H   UNL     1      37.780 -19.871 -18.196  0.00  0.00    +0.211 HD
ENDBRANCH   8  34
TORSDOF 7
ENDMDL
MODEL 3
REMARK VINA RESULT:     -10.3      7.310     11.713
REMARK  Name = 54671008
REMARK  7 active torsions:
REMARK  status: ('A' for Active; 'I' for Inactive)
REMARK    1  A    between atoms: C_4  and  C_21
REMARK    2  A    between atoms: C_6  and  C_11
REMARK    3  A    between atoms: C_8  and  O_34
REMARK    4  A    between atoms: N_10  and  C_13
REMARK    5  A    between atoms: C_13  and  C_15
REMARK    6  A    between atoms: C_21  and  N_25
REMARK    7  A    between atoms: C_26  and  C_31
REMARK                            x       y       z     vdW  Elec       q    Type
REMARK                         _______ _______ _______ _____ _____    ______ ____
ROOT
ATOM      1  O   UNL     1      33.652 -16.325 -25.506  0.00  0.00    -0.271 OA
ATOM      2  N   UNL     1      33.906 -14.820 -23.730  0.00  0.00    -0.232 N 
ATOM      3  N   UNL     1      35.197 -15.466 -21.842  0.00  0.00    -0.386 NA
ATOM      4  C   UNL     1      34.468 -14.600 -22.475  0.00  0.00    +0.182 C 
ATOM      5  C   UNL     1      34.104 -16.030 -24.401  0.00  0.00    +0.265 C 
ATOM      6  C   UNL     1      35.418 -16.664 -22.463  0.00  0.00    +0.199 C 
ATOM      7  C   UNL     1      33.100 -13.772 -24.354  0.00  0.00    +0.122 C 
ATOM      8  C   UNL     1      34.943 -17.016 -23.666  0.00  0.00    +0.245 C 
ENDROOT
BRANCH   6  11
ATOM      9  O   UNL     1      37.475 -17.552 -21.755  0.00  0.00    -0.268 OA
ATOM     10  N   UNL     1      35.501 -18.569 -21.045  0.00  0.00    -0.295 N 
ATOM     11  C   UNL     1      36.249 -17.628 -21.727  0.00  0.00    +0.275 C 
ATOM     12  H   UNL     1      34.520 -18.520 -21.104  0.00  0.00    +0.150 HD
BRANCH  10  13
ATOM     13  C   UNL     1      36.089 -19.623 -20.249  0.00  0.00    +0.117 C 
BRANCH  13  15
ATOM     14  F   UNL     1      32.260 -22.238 -17.055  0.00  0.00    -0.204 F 
ATOM     15  C   UNL     1      35.068 -20.320 -19.397  0.00  0.00    -0.002 C 
ATOM     16  C   UNL     1      33.710 -20.060 -19.582  0.00  0.00    -0.000 C 
ATOM     17  C   UNL     1      35.477 -21.229 -18.421  0.00  0.00    -0.000 C 
ATOM     18  C   UNL     1      32.762 -20.707 -18.791  0.00  0.00    +0.029 C 
ATOM     19  C   UNL     1      34.528 -21.876 -17.629  0.00  0.00    +0.029 C 
ATOM     20  C   UNL     1      33.171 -21.615 -17.815  0.00  0.00    +0.140 C 
ENDBRANCH  13  15
ENDBRANCH  10  13
ENDBRANCH   6  11
BRANCH   4  21
ATOM     21  C   UNL     1      34.214 -13.271 -21.805  0.00  0.00    +0.117 C 
ATOM     22  C   UNL     1      32.727 -13.112 -21.525  0.00  0.00    +0.028 C 
ATOM     23  C   UNL     1      35.036 -13.173 -20.527  0.00  0.00    +0.028 C 
BRANCH  21  25
ATOM     24  O   UNL     1      33.205 -10.612 -22.197  0.00  0.00    -0.265 OA
ATOM     25  N   UNL     1      34.663 -12.317 -22.786  0.00  0.00    -0.293 N 
ATOM     26  C   UNL     1      34.112 -11.048 -22.900  0.00  0.00    +0.302 C 
ATOM     27  H   UNL     1      35.390 -12.575 -23.399  0.00  0.00    +0.150 HD
BRANCH  26  31
ATOM     28  O   UNL     1      34.900  -8.870 -23.749  0.00  0.00    -0.416 OA
ATOM     29  N   UNL     1      34.981 -10.575 -25.196  0.00  0.00    -0.102 NA
ATOM     30  N   UNL     1      35.456  -9.447 -25.838  0.00  0.00    -0.111 NA
ATOM     31  C   UNL     1      34.669 -10.191 -23.980  0.00  0.00    +0.304 A 
ATOM     32  C   UNL     1      35.391  -8.477 -24.956  0.00  0.00    +0.227 A 
ATOM     33  C   UNL     1      35.764  -7.063 -25.090  0.00  0.00    +0.097 C 
ENDBRANCH  26  31
ENDBRANCH  21  25
ENDBRANCH   4  21
BRANCH   8  34
ATOM     34  O   UNL     1      35.189 -18.234 -24.258  0.00  0.00    -0.370 OA
ATOM     35  H   UNL     1      34.483 -18.830 -24.413  0.00  0.00    +0.211 HD
ENDBRANCH   8  34
TORSDOF 7
ENDMDL
MODEL 4
REMARK VINA RESULT:      -9.7      4.039      8.335
REMARK  Name = 54671008
REMARK  7 active torsions:
REMARK  status: ('A' for Active; 'I' for Inactive)
REMARK    1  A    between atoms: C_4  and  C_21
REMARK    2  A    between atoms: C_6  and  C_11
REMARK    3  A    between atoms: C_8  and  O_34
REMARK    4  A    between atoms: N_10  and  C_13
REMARK    5  A    between atoms: C_13  and  C_15
REMARK    6  A    between atoms: C_21  and  N_25
REMARK    7  A    between atoms: C_26  and  C_31
REMARK                            x       y       z     vdW  Elec       q    Type
REMARK                         _______ _______ _______ _____ _____    ______ ____
ROOT
ATOM      1  O   UNL     1      31.599 -21.291 -17.876  0.00  0.00    -0.271 OA
ATOM      2  N   UNL     1      33.810 -20.950 -18.567  0.00  0.00    -0.232 N 
ATOM      3  N   UNL     1      35.583 -21.822 -17.247  0.00  0.00    -0.386 NA
ATOM      4  C   UNL     1      35.155 -21.171 -18.284  0.00  0.00    +0.182 C 
ATOM      5  C   UNL     1      32.811 -21.434 -17.719  0.00  0.00    +0.265 C 
ATOM      6  C   UNL     1      34.638 -22.316 -16.390  0.00  0.00    +0.199 C 
ATOM      7  C   UNL     1      33.439 -20.202 -19.768  0.00  0.00    +0.122 C 
ATOM      8  C   UNL     1      33.313 -22.180 -16.533  0.00  0.00    +0.245 C 
ENDROOT
BRANCH   6  11
ATOM      9  O   UNL     1      34.987 -24.264 -15.126  0.00  0.00    -0.268 OA
ATOM     10  N   UNL     1      35.788 -22.232 -14.312  0.00  0.00    -0.295 N 
ATOM     11  C   UNL     1      35.148 -23.050 -15.223  0.00  0.00    +0.275 C 
ATOM     12  H   UNL     1      35.850 -21.269 -14.509  0.00  0.00    +0.150 HD
BRANCH  10  13
ATOM     13  C   UNL     1      36.374 -22.720 -13.084  0.00  0.00    +0.117 C 
BRANCH  13  15
ATOM     14  F   UNL     1      41.005 -25.781 -14.025  0.00  0.00    -0.204 F 
ATOM     15  C   UNL     1      37.609 -23.536 -13.335  0.00  0.00    -0.002 C 
ATOM     16  C   UNL     1      37.942 -24.580 -12.471  0.00  0.00    -0.000 C 
ATOM     17  C   UNL     1      38.422 -23.252 -14.432  0.00  0.00    -0.000 C 
ATOM     18  C   UNL     1      39.090 -25.337 -12.704  0.00  0.00    +0.029 C 
ATOM     19  C   UNL     1      39.569 -24.010 -14.665  0.00  0.00    +0.029 C 
ATOM     20  C   UNL     1      39.903 -25.053 -13.801  0.00  0.00    +0.140 C 
ENDBRANCH  13  15
ENDBRANCH  10  13
ENDBRANCH   6  11
BRANCH   4  21
ATOM     21  C   UNL     1      36.184 -20.621 -19.242  0.00  0.00    +0.117 C 
ATOM     22  C   UNL     1      37.548 -20.584 -18.566  0.00  0.00    +0.028 C 
ATOM     23  C   UNL     1      36.213 -21.466 -20.508  0.00  0.00    +0.028 C 
BRANCH  21  25
ATOM     24  O   UNL     1      37.505 -18.608 -20.806  0.00  0.00    -0.265 OA
ATOM     25  N   UNL     1      35.703 -19.291 -19.515  0.00  0.00    -0.293 N 
ATOM     26  C   UNL     1      36.415 -18.383 -20.286  0.00  0.00    +0.302 C 
ATOM     27  H   UNL     1      34.835 -19.017 -19.140  0.00  0.00    +0.150 HD
BRANCH  26  31
ATOM     28  O   UNL     1      35.591 -16.537 -21.700  0.00  0.00    -0.416 OA
ATOM     29  N   UNL     1      35.396 -16.244 -19.491  0.00  0.00    -0.102 NA
ATOM     30  N   UNL     1      34.888 -15.121 -20.117  0.00  0.00    -0.111 NA
ATOM     31  C   UNL     1      35.794 -17.043 -20.453  0.00  0.00    +0.304 A 
ATOM     32  C   UNL     1      35.023 -15.336 -21.405  0.00  0.00    +0.227 A 
ATOM     33  C   UNL     1      34.654 -14.482 -22.541  0.00  0.00    +0.097 C 
ENDBRANCH  26  31
ENDBRANCH  21  25
ENDBRANCH   4  21
BRANCH   8  34
ATOM     34  O   UNL     1      32.393 -22.692 -15.646  0.00  0.00    -0.370 OA
ATOM     35  H   UNL     1      31.800 -22.118 -15.202  0.00  0.00    +0.211 HD
ENDBRANCH   8  34
TORSDOF 7
ENDMDL
