MODEL 1
REMARK VINA RESULT:     -12.4      0.000      0.000
REMARK  Name = 44629554
REMARK  5 active torsions:
REMARK  status: ('A' for Active; 'I' for Inactive)
REMARK    1  A    between atoms: C_5  and  C_30
REMARK    2  A    between atoms: C_6  and  N_18
REMARK    3  A    between atoms: C_7  and  C_12
REMARK    4  A    between atoms: N_18  and  C_20
REMARK    5  A    between atoms: C_20  and  C_24
REMARK                            x       y       z     vdW  Elec       q    Type
REMARK                         _______ _______ _______ _____ _____    ______ ____
ROOT
ATOM      1  N   UNL     1      32.997 -22.604 -15.915  0.00  0.00    -0.152 N 
ATOM      2  N   UNL     1      35.359 -23.053 -15.778  0.00  0.00    -0.389 NA
ATOM      3  N   UNL     1      32.100 -22.007 -16.750  0.00  0.00    -0.174 NA
ATOM      4  C   UNL     1      34.291 -22.525 -16.434  0.00  0.00    +0.189 C 
ATOM      5  C   UNL     1      34.194 -21.854 -17.631  0.00  0.00    +0.112 C 
ATOM      6  C   UNL     1      32.741 -23.229 -14.684  0.00  0.00    +0.126 C 
ATOM      7  C   UNL     1      35.121 -23.645 -14.643  0.00  0.00    +0.140 C 
ATOM      8  C   UNL     1      33.771 -23.763 -14.007  0.00  0.00    +0.064 C 
ATOM      9  C   UNL     1      32.832 -21.565 -17.771  0.00  0.00    +0.100 C 
ENDROOT
BRANCH   7  12
ATOM     10  F   UNL     1      36.286 -26.116 -15.353  0.00  0.00    -0.204 F 
ATOM     11  F   UNL     1      36.288 -22.398 -12.397  0.00  0.00    -0.204 F 
ATOM     12  C   UNL     1      36.258 -24.242 -13.894  0.00  0.00    +0.085 C 
ATOM     13  C   UNL     1      36.792 -25.466 -14.295  0.00  0.00    +0.145 C 
ATOM     14  C   UNL     1      36.793 -23.576 -12.791  0.00  0.00    +0.145 C 
ATOM     15  C   UNL     1      37.859 -26.026 -13.592  0.00  0.00    +0.030 C 
ATOM     16  C   UNL     1      37.860 -24.135 -12.089  0.00  0.00    +0.030 C 
ATOM     17  C   UNL     1      38.393 -25.360 -12.489  0.00  0.00    +0.005 C 
ENDBRANCH   7  12
BRANCH   6  18
ATOM     18  N   UNL     1      31.447 -23.248 -14.244  0.00  0.00    -0.316 N 
ATOM     19  H   UNL     1      31.194 -22.639 -13.514  0.00  0.00    +0.148 HD
BRANCH  18  20
ATOM     20  C   UNL     1      30.438 -24.114 -14.794  0.00  0.00    +0.114 C 
BRANCH  20  24
ATOM     21  N   UNL     1      27.613 -23.081 -17.090  0.00  0.00    -0.181 NA
ATOM     22  N   UNL     1      28.038 -21.284 -15.543  0.00  0.00    -0.204 NA
ATOM     23  N   UNL     1      26.359 -21.099 -17.170  0.00  0.00    -0.303 N 
ATOM     24  C   UNL     1      29.342 -23.305 -15.432  0.00  0.00    +0.020 C 
ATOM     25  C   UNL     1      28.601 -23.780 -16.494  0.00  0.00    +0.106 C 
ATOM     26  C   UNL     1      29.014 -22.037 -14.994  0.00  0.00    +0.163 C 
ATOM     27  C   UNL     1      27.387 -21.859 -16.572  0.00  0.00    +0.084 C 
ATOM     28  H   UNL     1      25.850 -21.469 -17.927  0.00  0.00    +0.154 HD
ATOM     29  H   UNL     1      26.151 -20.198 -16.832  0.00  0.00    +0.154 HD
ENDBRANCH  20  24
ENDBRANCH  18  20
ENDBRANCH   6  18
BRANCH   5  30
ATOM     30  C   UNL     1      35.282 -21.517 -18.563  0.00  0.00    +0.015 C 
ATOM     31  C   UNL     1      34.957 -20.312 -19.454  0.00  0.00    +0.001 C 
ENDBRANCH   5  30
TORSDOF 5
ENDMDL
MODEL 2
REMARK VINA RESULT:     -11.7      2.848      7.478
REMARK  Name = 44629554
REMARK  5 active torsions:
REMARK  status: ('A' for Active; 'I' for Inactive)
REMARK    1  A    between atoms: C_5  and  C_30
REMARK    2  A    between atoms: C_6  and  N_18
REMARK    3  A    between atoms: C_7  and  C_12
REMARK    4  A    between atoms: N_18  and  C_20
REMARK    5  A    between atoms: C_20  and  C_24
REMARK                            x       y       z     vdW  Elec       q    Type
REMARK                         _______ _______ _______ _____ _____    ______ ____
ROOT
ATOM      1  N   UNL     1      35.632 -22.319 -14.704  0.00  0.00    -0.152 N 
ATOM      2  N   UNL     1      33.604 -22.496 -15.991  0.00  0.00    -0.389 NA
ATOM      3  N   UNL     1      36.931 -21.939 -14.862  0.00  0.00    -0.174 NA
ATOM      4  C   UNL     1      34.923 -22.179 -15.899  0.00  0.00    +0.189 C 
ATOM      5  C   UNL     1      35.814 -21.697 -16.830  0.00  0.00    +0.112 C 
ATOM      6  C   UNL     1      35.012 -22.802 -13.541  0.00  0.00    +0.126 C 
ATOM      7  C   UNL     1      33.024 -22.930 -14.908  0.00  0.00    +0.140 C 
ATOM      8  C   UNL     1      33.709 -23.125 -13.592  0.00  0.00    +0.064 C 
ATOM      9  C   UNL     1      37.023 -21.569 -16.137  0.00  0.00    +0.100 C 
ENDROOT
BRANCH   7  12
ATOM     10  F   UNL     1      31.903 -24.994 -13.345  0.00  0.00    -0.204 F 
ATOM     11  F   UNL     1      31.186 -21.589 -16.579  0.00  0.00    -0.204 F 
ATOM     12  C   UNL     1      31.581 -23.283 -14.961  0.00  0.00    +0.085 C 
ATOM     13  C   UNL     1      31.086 -24.313 -14.162  0.00  0.00    +0.145 C 
ATOM     14  C   UNL     1      30.722 -22.582 -15.807  0.00  0.00    +0.145 C 
ATOM     15  C   UNL     1      29.731 -24.644 -14.210  0.00  0.00    +0.030 C 
ATOM     16  C   UNL     1      29.367 -22.913 -15.855  0.00  0.00    +0.030 C 
ATOM     17  C   UNL     1      28.873 -23.944 -15.057  0.00  0.00    +0.005 C 
ENDBRANCH   7  12
BRANCH   6  18
ATOM     18  N   UNL     1      35.784 -22.923 -12.419  0.00  0.00    -0.316 N 
ATOM     19  H   UNL     1      36.089 -22.101 -11.971  0.00  0.00    +0.148 HD
BRANCH  18  20
ATOM     20  C   UNL     1      36.173 -24.191 -11.860  0.00  0.00    +0.114 C 
BRANCH  20  24
ATOM     21  N   UNL     1      38.673 -26.298 -13.767  0.00  0.00    -0.181 NA
ATOM     22  N   UNL     1      39.807 -24.353 -12.908  0.00  0.00    -0.204 NA
ATOM     23  N   UNL     1      40.961 -25.961 -14.166  0.00  0.00    -0.303 N 
ATOM     24  C   UNL     1      37.458 -24.666 -12.480  0.00  0.00    +0.020 C 
ATOM     25  C   UNL     1      37.537 -25.841 -13.198  0.00  0.00    +0.106 C 
ATOM     26  C   UNL     1      38.636 -23.956 -12.365  0.00  0.00    +0.163 C 
ATOM     27  C   UNL     1      39.753 -25.515 -13.585  0.00  0.00    +0.084 C 
ATOM     28  H   UNL     1      40.981 -26.805 -14.673  0.00  0.00    +0.154 HD
ATOM     29  H   UNL     1      41.782 -25.429 -14.065  0.00  0.00    +0.154 HD
ENDBRANCH  20  24
ENDBRANCH  18  20
ENDBRANCH   6  18
BRANCH   5  30
ATOM     30  C   UNL     1      35.554 -21.381 -18.244  0.00  0.00    +0.015 C 
ATOM     31  C   UNL     1      36.676 -20.561 -18.892  0.00  0.00    +0.001 C 
ENDBRANCH   5  30
TORSDOF 5
ENDMDL
MODEL 3
REMARK VINA RESULT:     -11.7      2.847      7.550
REMARK  Name = 44629554
REMARK  5 active torsions:
REMARK  status: ('A' for Active; 'I' for Inactive)
REMARK    1  A    between atoms: C_5  and  C_30
REMARK    2  A    between atoms: C_6  and  N_18
REMARK    3  A    between atoms: C_7  and  C_12
REMARK    4  A    between atoms: N_18  and  C_20
REMARK    5  A    between atoms: C_20  and  C_24
REMARK                            x       y       z     vdW  Elec       q    Type
REMARK                         _______ _______ _______ _____ _____    ______ ____
ROOT
ATOM      1  N   UNL     1      35.637 -22.318 -14.714  0.00  0.00    -0.152 N 
ATOM      2  N   UNL     1      33.606 -22.495 -15.996  0.00  0.00    -0.389 NA
ATOM      3  N   UNL     1      36.936 -21.937 -14.874  0.00  0.00    -0.174 NA
ATOM      4  C   UNL     1      34.925 -22.178 -15.907  0.00  0.00    +0.189 C 
ATOM      5  C   UNL     1      35.814 -21.696 -16.840  0.00  0.00    +0.112 C 
ATOM      6  C   UNL     1      35.020 -22.801 -13.549  0.00  0.00    +0.126 C 
ATOM      7  C   UNL     1      33.029 -22.929 -14.912  0.00  0.00    +0.140 C 
ATOM      8  C   UNL     1      33.717 -23.123 -13.597  0.00  0.00    +0.064 C 
ATOM      9  C   UNL     1      37.025 -21.568 -16.150  0.00  0.00    +0.100 C 
ENDROOT
BRANCH   7  12
ATOM     10  F   UNL     1      31.187 -21.588 -16.577  0.00  0.00    -0.204 F 
ATOM     11  F   UNL     1      31.912 -24.995 -13.347  0.00  0.00    -0.204 F 
ATOM     12  C   UNL     1      31.586 -23.283 -14.961  0.00  0.00    +0.085 C 
ATOM     13  C   UNL     1      30.725 -22.583 -15.805  0.00  0.00    +0.145 C 
ATOM     14  C   UNL     1      31.093 -24.315 -14.163  0.00  0.00    +0.145 C 
ATOM     15  C   UNL     1      29.370 -22.915 -15.852  0.00  0.00    +0.030 C 
ATOM     16  C   UNL     1      29.740 -24.647 -14.209  0.00  0.00    +0.030 C 
ATOM     17  C   UNL     1      28.878 -23.947 -15.054  0.00  0.00    +0.005 C 
ENDBRANCH   7  12
BRANCH   6  18
ATOM     18  N   UNL     1      35.795 -22.921 -12.429  0.00  0.00    -0.316 N 
ATOM     19  H   UNL     1      36.103 -22.099 -11.984  0.00  0.00    +0.148 HD
BRANCH  18  20
ATOM     20  C   UNL     1      36.182 -24.188 -11.868  0.00  0.00    +0.114 C 
BRANCH  20  24
ATOM     21  N   UNL     1      39.815 -24.357 -12.913  0.00  0.00    -0.181 NA
ATOM     22  N   UNL     1      38.679 -26.298 -13.775  0.00  0.00    -0.204 NA
ATOM     23  N   UNL     1      40.966 -25.968 -14.172  0.00  0.00    -0.303 N 
ATOM     24  C   UNL     1      37.467 -24.666 -12.486  0.00  0.00    +0.020 C 
ATOM     25  C   UNL     1      38.645 -23.958 -12.371  0.00  0.00    +0.106 C 
ATOM     26  C   UNL     1      37.543 -25.841 -13.207  0.00  0.00    +0.163 C 
ATOM     27  C   UNL     1      39.761 -25.519 -13.591  0.00  0.00    +0.084 C 
ATOM     28  H   UNL     1      41.790 -25.437 -14.070  0.00  0.00    +0.154 HD
ATOM     29  H   UNL     1      40.985 -26.811 -14.680  0.00  0.00    +0.154 HD
ENDBRANCH  20  24
ENDBRANCH  18  20
ENDBRANCH   6  18
BRANCH   5  30
ATOM     30  C   UNL     1      35.550 -21.380 -18.253  0.00  0.00    +0.015 C 
ATOM     31  C   UNL     1      36.670 -20.557 -18.903  0.00  0.00    +0.001 C 
ENDBRANCH   5  30
TORSDOF 5
ENDMDL
MODEL 4
REMARK VINA RESULT:     -11.5      2.556      7.412
REMARK  Name = 44629554
REMARK  5 active torsions:
REMARK  status: ('A' for Active; 'I' for Inactive)
REMARK    1  A    between atoms: C_5  and  C_30
REMARK    2  A    between atoms: C_6  and  N_18
REMARK    3  A    between atoms: C_7  and  C_12
REMARK    4  A    between atoms: N_18  and  C_20
REMARK    5  A    between atoms: C_20  and  C_24
REMARK                            x       y       z     vdW  Elec       q    Type
REMARK                         _______ _______ _______ _____ _____    ______ ____
ROOT
ATOM      1  N   UNL     1      32.955 -23.644 -13.525  0.00  0.00    -0.152 N 
ATOM      2  N   UNL     1      32.939 -22.471 -15.628  0.00  0.00    -0.389 NA
ATOM      3  N   UNL     1      32.078 -24.141 -12.607  0.00  0.00    -0.174 NA
ATOM      4  C   UNL     1      32.277 -23.040 -14.586  0.00  0.00    +0.189 C 
ATOM      5  C   UNL     1      30.934 -23.165 -14.316  0.00  0.00    +0.112 C 
ATOM      6  C   UNL     1      34.358 -23.685 -13.484  0.00  0.00    +0.126 C 
ATOM      7  C   UNL     1      34.240 -22.521 -15.599  0.00  0.00    +0.140 C 
ATOM      8  C   UNL     1      35.047 -23.133 -14.498  0.00  0.00    +0.064 C 
ATOM      9  C   UNL     1      30.875 -23.848 -13.095  0.00  0.00    +0.100 C 
ENDROOT
BRANCH   7  12
ATOM     10  F   UNL     1      33.166 -22.222 -18.192  0.00  0.00    -0.204 F 
ATOM     11  F   UNL     1      36.885 -21.579 -15.306  0.00  0.00    -0.204 F 
ATOM     12  C   UNL     1      35.006 -21.916 -16.721  0.00  0.00    +0.085 C 
ATOM     13  C   UNL     1      34.419 -21.795 -17.980  0.00  0.00    +0.145 C 
ATOM     14  C   UNL     1      36.310 -21.468 -16.513  0.00  0.00    +0.145 C 
ATOM     15  C   UNL     1      35.137 -21.226 -19.033  0.00  0.00    +0.030 C 
ATOM     16  C   UNL     1      37.029 -20.900 -17.565  0.00  0.00    +0.030 C 
ATOM     17  C   UNL     1      36.442 -20.780 -18.825  0.00  0.00    +0.005 C 
ENDBRANCH   7  12
BRANCH   6  18
ATOM     18  N   UNL     1      34.940 -24.282 -12.402  0.00  0.00    -0.316 N 
ATOM     19  H   UNL     1      34.545 -25.116 -12.060  0.00  0.00    +0.148 HD
BRANCH  18  20
ATOM     20  C   UNL     1      36.101 -23.752 -11.737  0.00  0.00    +0.114 C 
BRANCH  20  24
ATOM     21  N   UNL     1      39.670 -24.086 -12.949  0.00  0.00    -0.181 NA
ATOM     22  N   UNL     1      38.520 -26.160 -13.372  0.00  0.00    -0.204 NA
ATOM     23  N   UNL     1      40.775 -25.893 -13.959  0.00  0.00    -0.303 N 
ATOM     24  C   UNL     1      37.356 -24.326 -12.333  0.00  0.00    +0.020 C 
ATOM     25  C   UNL     1      38.527 -23.602 -12.420  0.00  0.00    +0.106 C 
ATOM     26  C   UNL     1      37.411 -25.613 -12.830  0.00  0.00    +0.163 C 
ATOM     27  C   UNL     1      39.597 -25.352 -13.399  0.00  0.00    +0.084 C 
ATOM     28  H   UNL     1      41.594 -25.347 -14.005  0.00  0.00    +0.154 HD
ATOM     29  H   UNL     1      40.779 -26.815 -14.305  0.00  0.00    +0.154 HD
ENDBRANCH  20  24
ENDBRANCH  18  20
ENDBRANCH   6  18
BRANCH   5  30
ATOM     30  C   UNL     1      29.805 -22.690 -15.132  0.00  0.00    +0.015 C 
ATOM     31  C   UNL     1      28.908 -23.828 -15.636  0.00  0.00    +0.001 C 
ENDBRANCH   5  30
TORSDOF 5
ENDMDL
MODEL 5
REMARK VINA RESULT:     -11.4      2.487      5.576
REMARK  Name = 44629554
REMARK  5 active torsions:
REMARK  status: ('A' for Active; 'I' for Inactive)
REMARK    1  A    between atoms: C_5  and  C_30
REMARK    2  A    between atoms: C_6  and  N_18
REMARK    3  A    between atoms: C_7  and  C_12
REMARK    4  A    between atoms: N_18  and  C_20
REMARK    5  A    between atoms: C_20  and  C_24
REMARK                            x       y       z     vdW  Elec       q    Type
REMARK                         _______ _______ _______ _____ _____    ______ ____
ROOT
ATOM      1  N   UNL     1      33.159 -22.531 -16.032  0.00  0.00    -0.152 N 
ATOM      2  N   UNL     1      33.880 -23.807 -14.121  0.00  0.00    -0.389 NA
ATOM      3  N   UNL     1      32.008 -22.072 -16.600  0.00  0.00    -0.174 NA
ATOM      4  C   UNL     1      32.888 -23.250 -14.866  0.00  0.00    +0.189 C 
ATOM      5  C   UNL     1      31.522 -23.237 -14.706  0.00  0.00    +0.112 C 
ATOM      6  C   UNL     1      34.473 -22.357 -16.493  0.00  0.00    +0.126 C 
ATOM      7  C   UNL     1      35.100 -23.634 -14.540  0.00  0.00    +0.140 C 
ATOM      8  C   UNL     1      35.481 -22.892 -15.783  0.00  0.00    +0.064 C 
ATOM      9  C   UNL     1      31.039 -22.502 -15.794  0.00  0.00    +0.100 C 
ENDROOT
BRANCH   7  12
ATOM     10  F   UNL     1      36.331 -26.078 -15.231  0.00  0.00    -0.204 F 
ATOM     11  F   UNL     1      36.161 -22.393 -12.237  0.00  0.00    -0.204 F 
ATOM     12  C   UNL     1      36.218 -24.221 -13.754  0.00  0.00    +0.085 C 
ATOM     13  C   UNL     1      36.786 -25.432 -14.147  0.00  0.00    +0.145 C 
ATOM     14  C   UNL     1      36.699 -23.559 -12.625  0.00  0.00    +0.145 C 
ATOM     15  C   UNL     1      37.835 -25.983 -13.410  0.00  0.00    +0.030 C 
ATOM     16  C   UNL     1      37.748 -24.109 -11.887  0.00  0.00    +0.030 C 
ATOM     17  C   UNL     1      38.315 -25.322 -12.280  0.00  0.00    +0.005 C 
ENDBRANCH   7  12
BRANCH   6  18
ATOM     18  N   UNL     1      34.647 -21.653 -17.651  0.00  0.00    -0.316 N 
ATOM     19  H   UNL     1      33.854 -21.444 -18.194  0.00  0.00    +0.148 HD
BRANCH  18  20
ATOM     20  C   UNL     1      35.933 -21.202 -18.117  0.00  0.00    +0.114 C 
BRANCH  20  24
ATOM     21  N   UNL     1      34.377 -19.114 -20.863  0.00  0.00    -0.181 NA
ATOM     22  N   UNL     1      36.705 -18.526 -20.679  0.00  0.00    -0.204 NA
ATOM     23  N   UNL     1      35.322 -17.483 -22.260  0.00  0.00    -0.303 N 
ATOM     24  C   UNL     1      35.768 -20.203 -19.229  0.00  0.00    +0.020 C 
ATOM     25  C   UNL     1      34.559 -20.001 -19.862  0.00  0.00    +0.106 C 
ATOM     26  C   UNL     1      36.818 -19.431 -19.684  0.00  0.00    +0.163 C 
ATOM     27  C   UNL     1      35.475 -18.421 -21.216  0.00  0.00    +0.084 C 
ATOM     28  H   UNL     1      34.444 -17.364 -22.690  0.00  0.00    +0.154 HD
ATOM     29  H   UNL     1      36.092 -16.948 -22.560  0.00  0.00    +0.154 HD
ENDBRANCH  20  24
ENDBRANCH  18  20
ENDBRANCH   6  18
BRANCH   5  30
ATOM     30  C   UNL     1      30.738 -23.858 -13.626  0.00  0.00    +0.015 C 
ATOM     31  C   UNL     1      29.560 -24.693 -14.143  0.00  0.00    +0.001 C 
ENDBRANCH   5  30
TORSDOF 5
ENDMDL
MODEL 6
REMARK VINA RESULT:     -11.2      2.601      7.514
REMARK  Name = 44629554
REMARK  5 active torsions:
REMARK  status: ('A' for Active; 'I' for Inactive)
REMARK    1  A    between atoms: C_5  and  C_30
REMARK    2  A    between atoms: C_6  and  N_18
REMARK    3  A    between atoms: C_7  and  C_12
REMARK    4  A    between atoms: N_18  and  C_20
REMARK    5  A    between atoms: C_20  and  C_24
REMARK                            x       y       z     vdW  Elec       q    Type
REMARK                         _______ _______ _______ _____ _____    ______ ____
ROOT
ATOM      1  N   UNL     1      32.733 -23.526 -14.698  0.00  0.00    -0.152 N 
ATOM      2  N   UNL     1      32.661 -22.108 -16.644  0.00  0.00    -0.389 NA
ATOM      3  N   UNL     1      31.883 -24.123 -13.817  0.00  0.00    -0.174 NA
ATOM      4  C   UNL     1      32.027 -22.793 -15.655  0.00  0.00    +0.189 C 
ATOM      5  C   UNL     1      30.693 -22.940 -15.355  0.00  0.00    +0.112 C 
ATOM      6  C   UNL     1      34.136 -23.583 -14.712  0.00  0.00    +0.126 C 
ATOM      7  C   UNL     1      33.961 -22.172 -16.666  0.00  0.00    +0.140 C 
ATOM      8  C   UNL     1      34.797 -22.919 -15.675  0.00  0.00    +0.064 C 
ATOM      9  C   UNL     1      30.667 -23.763 -14.223  0.00  0.00    +0.100 C 
ENDROOT
BRANCH   7  12
ATOM     10  F   UNL     1      36.762 -21.830 -16.628  0.00  0.00    -0.204 F 
ATOM     11  F   UNL     1      32.667 -21.018 -18.893  0.00  0.00    -0.204 F 
ATOM     12  C   UNL     1      34.696 -21.443 -17.733  0.00  0.00    +0.085 C 
ATOM     13  C   UNL     1      36.082 -21.308 -17.659  0.00  0.00    +0.145 C 
ATOM     14  C   UNL     1      33.999 -20.895 -18.810  0.00  0.00    +0.145 C 
ATOM     15  C   UNL     1      36.772 -20.625 -18.660  0.00  0.00    +0.030 C 
ATOM     16  C   UNL     1      34.689 -20.211 -19.812  0.00  0.00    +0.030 C 
ATOM     17  C   UNL     1      36.075 -20.076 -19.736  0.00  0.00    +0.005 C 
ENDBRANCH   7  12
BRANCH   6  18
ATOM     18  N   UNL     1      34.747 -24.310 -13.730  0.00  0.00    -0.316 N 
ATOM     19  H   UNL     1      34.500 -25.257 -13.627  0.00  0.00    +0.148 HD
BRANCH  18  20
ATOM     20  C   UNL     1      35.734 -23.761 -12.838  0.00  0.00    +0.114 C 
BRANCH  20  24
ATOM     21  N   UNL     1      38.474 -25.915 -14.314  0.00  0.00    -0.181 NA
ATOM     22  N   UNL     1      39.480 -24.306 -12.830  0.00  0.00    -0.204 NA
ATOM     23  N   UNL     1      40.797 -25.867 -13.984  0.00  0.00    -0.303 N 
ATOM     24  C   UNL     1      37.093 -24.326 -13.146  0.00  0.00    +0.020 C 
ATOM     25  C   UNL     1      37.270 -25.383 -14.015  0.00  0.00    +0.106 C 
ATOM     26  C   UNL     1      38.246 -23.823 -12.576  0.00  0.00    +0.163 C 
ATOM     27  C   UNL     1      39.520 -25.336 -13.696  0.00  0.00    +0.084 C 
ATOM     28  H   UNL     1      40.886 -26.622 -14.610  0.00  0.00    +0.154 HD
ATOM     29  H   UNL     1      41.597 -25.483 -13.559  0.00  0.00    +0.154 HD
ENDBRANCH  20  24
ENDBRANCH  18  20
ENDBRANCH   6  18
BRANCH   5  30
ATOM     30  C   UNL     1      29.542 -22.361 -16.068  0.00  0.00    +0.015 C 
ATOM     31  C   UNL     1      28.225 -22.503 -15.295  0.00  0.00    +0.001 C 
ENDBRANCH   5  30
TORSDOF 5
ENDMDL
MODEL 7
REMARK VINA RESULT:     -11.1      2.689      7.415
REMARK  Name = 44629554
REMARK  5 active torsions:
REMARK  status: ('A' for Active; 'I' for Inactive)
REMARK    1  A    between atoms: C_5  and  C_30
REMARK    2  A    between atoms: C_6  and  N_18
REMARK    3  A    between atoms: C_7  and  C_12
REMARK    4  A    between atoms: N_18  and  C_20
REMARK    5  A    between atoms: C_20  and  C_24
REMARK                            x       y       z     vdW  Elec       q    Type
REMARK                         _______ _______ _______ _____ _____    ______ ____
ROOT
ATOM      1  N   UNL     1      35.273 -21.981 -15.775  0.00  0.00    -0.152 N 
ATOM      2  N   UNL     1      33.076 -22.464 -16.635  0.00  0.00    -0.389 NA
ATOM      3  N   UNL     1      36.480 -21.522 -16.211  0.00  0.00    -0.174 NA
ATOM      4  C   UNL     1      34.353 -22.037 -16.824  0.00  0.00    +0.189 C 
ATOM      5  C   UNL     1      35.013 -21.601 -17.950  0.00  0.00    +0.112 C 
ATOM      6  C   UNL     1      34.920 -22.369 -14.474  0.00  0.00    +0.126 C 
ATOM      7  C   UNL     1      32.743 -22.811 -15.425  0.00  0.00    +0.140 C 
ATOM      8  C   UNL     1      33.665 -22.795 -14.247  0.00  0.00    +0.064 C 
ATOM      9  C   UNL     1      36.308 -21.299 -17.512  0.00  0.00    +0.100 C 
ENDROOT
BRANCH   7  12
ATOM     10  F   UNL     1      32.152 -24.968 -13.704  0.00  0.00    -0.204 F 
ATOM     11  F   UNL     1      30.486 -21.611 -16.624  0.00  0.00    -0.204 F 
ATOM     12  C   UNL     1      31.354 -23.278 -15.170  0.00  0.00    +0.085 C 
ATOM     13  C   UNL     1      31.127 -24.349 -14.308  0.00  0.00    +0.145 C 
ATOM     14  C   UNL     1      30.280 -22.643 -15.792  0.00  0.00    +0.145 C 
ATOM     15  C   UNL     1      29.824 -24.788 -14.067  0.00  0.00    +0.030 C 
ATOM     16  C   UNL     1      28.977 -23.081 -15.553  0.00  0.00    +0.030 C 
ATOM     17  C   UNL     1      28.750 -24.154 -14.690  0.00  0.00    +0.005 C 
ENDBRANCH   7  12
BRANCH   6  18
ATOM     18  N   UNL     1      35.886 -22.297 -13.510  0.00  0.00    -0.316 N 
ATOM     19  H   UNL     1      36.409 -21.467 -13.435  0.00  0.00    +0.148 HD
BRANCH  18  20
ATOM     20  C   UNL     1      36.176 -23.373 -12.599  0.00  0.00    +0.114 C 
BRANCH  20  24
ATOM     21  N   UNL     1      38.865 -26.016 -12.919  0.00  0.00    -0.181 NA
ATOM     22  N   UNL     1      39.522 -24.095 -14.214  0.00  0.00    -0.204 NA
ATOM     23  N   UNL     1      40.887 -25.999 -14.110  0.00  0.00    -0.303 N 
ATOM     24  C   UNL     1      37.440 -24.078 -13.005  0.00  0.00    +0.020 C 
ATOM     25  C   UNL     1      37.740 -25.354 -12.575  0.00  0.00    +0.106 C 
ATOM     26  C   UNL     1      38.378 -23.490 -13.831  0.00  0.00    +0.163 C 
ATOM     27  C   UNL     1      39.699 -25.338 -13.728  0.00  0.00    +0.084 C 
ATOM     28  H   UNL     1      41.069 -26.911 -13.784  0.00  0.00    +0.154 HD
ATOM     29  H   UNL     1      41.533 -25.550 -14.700  0.00  0.00    +0.154 HD
ENDBRANCH  20  24
ENDBRANCH  18  20
ENDBRANCH   6  18
BRANCH   5  30
ATOM     30  C   UNL     1      34.477 -21.475 -19.315  0.00  0.00    +0.015 C 
ATOM     31  C   UNL     1      33.426 -20.366 -19.446  0.00  0.00    +0.001 C 
ENDBRANCH   5  30
TORSDOF 5
ENDMDL
MODEL 8
REMARK VINA RESULT:     -10.8      2.138      5.172
REMARK  Name = 44629554
REMARK  5 active torsions:
REMARK  status: ('A' for Active; 'I' for Inactive)
REMARK    1  A    between atoms: C_5  and  C_30
REMARK    2  A    between atoms: C_6  and  N_18
REMARK    3  A    between atoms: C_7  and  C_12
REMARK    4  A    between atoms: N_18  and  C_20
REMARK    5  A    between atoms: C_20  and  C_24
REMARK                            x       y       z     vdW  Elec       q    Type
REMARK                         _______ _______ _______ _____ _____    ______ ____
ROOT
ATOM      1  N   UNL     1      35.835 -23.977 -13.034  0.00  0.00    -0.152 N 
ATOM      2  N   UNL     1      37.020 -23.040 -14.910  0.00  0.00    -0.389 NA
ATOM      3  N   UNL     1      36.090 -24.654 -11.879  0.00  0.00    -0.174 NA
ATOM      4  C   UNL     1      37.018 -23.708 -13.726  0.00  0.00    +0.189 C 
ATOM      5  C   UNL     1      38.041 -24.237 -12.974  0.00  0.00    +0.112 C 
ATOM      6  C   UNL     1      34.588 -23.574 -13.537  0.00  0.00    +0.126 C 
ATOM      7  C   UNL     1      35.865 -22.652 -15.370  0.00  0.00    +0.140 C 
ATOM      8  C   UNL     1      34.550 -22.910 -14.705  0.00  0.00    +0.064 C 
ATOM      9  C   UNL     1      37.413 -24.801 -11.858  0.00  0.00    +0.100 C 
ENDROOT
BRANCH   7  12
ATOM     10  F   UNL     1      37.953 -20.961 -16.233  0.00  0.00    -0.204 F 
ATOM     11  F   UNL     1      33.682 -22.826 -17.150  0.00  0.00    -0.204 F 
ATOM     12  C   UNL     1      35.819 -21.912 -16.659  0.00  0.00    +0.085 C 
ATOM     13  C   UNL     1      36.884 -21.093 -17.031  0.00  0.00    +0.145 C 
ATOM     14  C   UNL     1      34.712 -22.041 -17.497  0.00  0.00    +0.145 C 
ATOM     15  C   UNL     1      36.842 -20.399 -18.241  0.00  0.00    +0.030 C 
ATOM     16  C   UNL     1      34.669 -21.347 -18.707  0.00  0.00    +0.030 C 
ATOM     17  C   UNL     1      35.734 -20.526 -19.078  0.00  0.00    +0.005 C 
ENDBRANCH   7  12
BRANCH   6  18
ATOM     18  N   UNL     1      33.480 -23.892 -12.804  0.00  0.00    -0.316 N 
ATOM     19  H   UNL     1      33.425 -24.791 -12.407  0.00  0.00    +0.148 HD
BRANCH  18  20
ATOM     20  C   UNL     1      32.389 -22.979 -12.583  0.00  0.00    +0.114 C 
BRANCH  20  24
ATOM     21  N   UNL     1      29.826 -22.362 -15.298  0.00  0.00    -0.181 NA
ATOM     22  N   UNL     1      29.748 -24.691 -14.685  0.00  0.00    -0.204 NA
ATOM     23  N   UNL     1      28.327 -23.834 -16.343  0.00  0.00    -0.303 N 
ATOM     24  C   UNL     1      31.299 -23.209 -13.593  0.00  0.00    +0.020 C 
ATOM     25  C   UNL     1      30.804 -22.192 -14.383  0.00  0.00    +0.106 C 
ATOM     26  C   UNL     1      30.727 -24.450 -13.789  0.00  0.00    +0.163 C 
ATOM     27  C   UNL     1      29.351 -23.618 -15.396  0.00  0.00    +0.084 C 
ATOM     28  H   UNL     1      27.997 -23.085 -16.891  0.00  0.00    +0.154 HD
ATOM     29  H   UNL     1      27.942 -24.733 -16.457  0.00  0.00    +0.154 HD
ENDBRANCH  20  24
ENDBRANCH  18  20
ENDBRANCH   6  18
BRANCH   5  30
ATOM     30  C   UNL     1      39.482 -24.215 -13.274  0.00  0.00    +0.015 C 
ATOM     31  C   UNL     1      40.017 -25.571 -13.753  0.00  0.00    +0.001 C 
ENDBRANCH   5  30
TORSDOF 5
ENDMDL
MODEL 9
REMARK VINA RESULT:     -10.5      3.146      7.140
REMARK  Name = 44629554
REMARK  5 active torsions:
REMARK  status: ('A' for Active; 'I' for Inactive)
REMARK    1  A    between atoms: C_5  and  C_30
REMARK    2  A    between atoms: C_6  and  N_18
REMARK    3  A    between atoms: C_7  and  C_12
REMARK    4  A    between atoms: N_18  and  C_20
REMARK    5  A    between atoms: C_20  and  C_24
REMARK                            x       y       z     vdW  Elec       q    Type
REMARK                         _______ _______ _______ _____ _____    ______ ____
ROOT
ATOM      1  N   UNL     1      35.667 -22.239 -15.535  0.00  0.00    -0.152 N 
ATOM      2  N   UNL     1      33.904 -23.039 -14.104  0.00  0.00    -0.389 NA
ATOM      3  N   UNL     1      37.002 -21.968 -15.486  0.00  0.00    -0.174 NA
ATOM      4  C   UNL     1      35.206 -22.701 -14.301  0.00  0.00    +0.189 C 
ATOM      5  C   UNL     1      36.291 -22.715 -13.457  0.00  0.00    +0.112 C 
ATOM      6  C   UNL     1      34.801 -22.096 -16.631  0.00  0.00    +0.126 C 
ATOM      7  C   UNL     1      33.102 -22.921 -15.123  0.00  0.00    +0.140 C 
ATOM      8  C   UNL     1      33.506 -22.421 -16.474  0.00  0.00    +0.064 C 
ATOM      9  C   UNL     1      37.360 -22.258 -14.237  0.00  0.00    +0.100 C 
ENDROOT
BRANCH   7  12
ATOM     10  F   UNL     1      31.024 -21.615 -16.515  0.00  0.00    -0.204 F 
ATOM     11  F   UNL     1      32.244 -24.974 -13.386  0.00  0.00    -0.204 F 
ATOM     12  C   UNL     1      31.670 -23.285 -14.955  0.00  0.00    +0.085 C 
ATOM     13  C   UNL     1      30.689 -22.603 -15.673  0.00  0.00    +0.145 C 
ATOM     14  C   UNL     1      31.309 -24.310 -14.081  0.00  0.00    +0.145 C 
ATOM     15  C   UNL     1      29.345 -22.944 -15.516  0.00  0.00    +0.030 C 
ATOM     16  C   UNL     1      29.966 -24.652 -13.924  0.00  0.00    +0.030 C 
ATOM     17  C   UNL     1      28.984 -23.968 -14.641  0.00  0.00    +0.005 C 
ENDBRANCH   7  12
BRANCH   6  18
ATOM     18  N   UNL     1      35.332 -21.622 -17.797  0.00  0.00    -0.316 N 
ATOM     19  H   UNL     1      36.305 -21.481 -17.844  0.00  0.00    +0.148 HD
BRANCH  18  20
ATOM     20  C   UNL     1      34.541 -21.320 -18.961  0.00  0.00    +0.114 C 
BRANCH  20  24
ATOM     21  N   UNL     1      37.070 -18.836 -20.286  0.00  0.00    -0.181 NA
ATOM     22  N   UNL     1      34.942 -18.391 -21.324  0.00  0.00    -0.204 NA
ATOM     23  N   UNL     1      36.827 -17.095 -21.840  0.00  0.00    -0.303 N 
ATOM     24  C   UNL     1      35.155 -20.186 -19.734  0.00  0.00    +0.020 C 
ATOM     25  C   UNL     1      36.487 -19.847 -19.608  0.00  0.00    +0.106 C 
ATOM     26  C   UNL     1      34.423 -19.415 -20.615  0.00  0.00    +0.163 C 
ATOM     27  C   UNL     1      36.252 -18.160 -21.114  0.00  0.00    +0.084 C 
ATOM     28  H   UNL     1      37.782 -16.880 -21.726  0.00  0.00    +0.154 HD
ATOM     29  H   UNL     1      36.276 -16.565 -22.460  0.00  0.00    +0.154 HD
ENDBRANCH  20  24
ENDBRANCH  18  20
ENDBRANCH   6  18
BRANCH   5  30
ATOM     30  C   UNL     1      36.325 -23.124 -12.043  0.00  0.00    +0.015 C 
ATOM     31  C   UNL     1      37.751 -23.301 -11.503  0.00  0.00    +0.001 C 
ENDBRANCH   5  30
TORSDOF 5
ENDMDL
