MODEL 1
REMARK VINA RESULT:     -11.6      0.000      0.000
REMARK  Name = 10050566
REMARK  9 active torsions:
REMARK  status: ('A' for Active; 'I' for Inactive)
REMARK    1  A    between atoms: C_2  and  N_11
REMARK    2  A    between atoms: C_3  and  O_22
REMARK    3  A    between atoms: C_12  and  C_14
REMARK    4  A    between atoms: C_19  and  O_20
REMARK    5  A    between atoms: O_22  and  C_24
REMARK    6  A    between atoms: C_24  and  C_25
REMARK    7  A    between atoms: C_30  and  C_32
REMARK    8  A    between atoms: C_32  and  C_33
REMARK    9  A    between atoms: C_34  and  O_39
REMARK                            x       y       z     vdW  Elec       q    Type
REMARK                         _______ _______ _______ _____ _____    ______ ____
ROOT
ATOM      1  N   UNL     1      32.762 -21.596 -13.965  0.00  0.00    +0.385 N 
ATOM      2  C   UNL     1      34.851 -22.454 -15.040  0.00  0.00    +0.091 C 
ATOM      3  C   UNL     1      34.128 -23.020 -16.276  0.00  0.00    +0.185 C 
ATOM      4  C   UNL     1      32.896 -23.891 -16.007  0.00  0.00    +0.043 C 
ATOM      5  C   UNL     1      34.017 -22.318 -13.762  0.00  0.00    -0.058 C 
ATOM      6  C   UNL     1      31.630 -23.130 -15.606  0.00  0.00    -0.020 C 
ATOM      7  C   UNL     1      31.650 -22.516 -14.211  0.00  0.00    -0.082 C 
ATOM      8  H   UNL     1      32.862 -20.975 -14.768  0.00  0.00    -0.084 HD
ATOM      9  H   UNL     1      32.557 -21.065 -13.119  0.00  0.00    -0.084 HD
ENDROOT
BRANCH   2  11
ATOM     10  O   UNL     1      37.583 -21.580 -15.099  0.00  0.00    -0.270 OA
ATOM     11  N   UNL     1      36.023 -23.258 -14.749  0.00  0.00    -0.301 N 
ATOM     12  C   UNL     1      37.302 -22.739 -14.806  0.00  0.00    +0.246 C 
ATOM     13  H   UNL     1      35.904 -24.204 -14.504  0.00  0.00    +0.150 HD
BRANCH  12  14
ATOM     14  C   UNL     1      38.397 -23.698 -14.506  0.00  0.00    +0.054 C 
ATOM     15  C   UNL     1      39.611 -23.542 -15.143  0.00  0.00    +0.008 C 
ATOM     16  C   UNL     1      38.166 -24.714 -13.603  0.00  0.00    +0.008 C 
ATOM     17  C   UNL     1      40.639 -24.441 -14.863  0.00  0.00    +0.037 C 
ATOM     18  C   UNL     1      39.194 -25.613 -13.322  0.00  0.00    +0.037 C 
ATOM     19  C   UNL     1      40.431 -25.477 -13.953  0.00  0.00    +0.134 C 
BRANCH  19  20
ATOM     20  O   UNL     1      41.435 -26.353 -13.677  0.00  0.00    -0.506 OA
ATOM     21  H   UNL     1      42.309 -26.039 -13.551  0.00  0.00    +0.292 HD
ENDBRANCH  19  20
ENDBRANCH  12  14
ENDBRANCH   2  11
BRANCH   3  22
ATOM     22  O   UNL     1      33.785 -21.945 -17.156  0.00  0.00    -0.448 OA
BRANCH  22  24
ATOM     23  O   UNL     1      33.719 -23.217 -19.073  0.00  0.00    -0.245 OA
ATOM     24  C   UNL     1      33.981 -22.184 -18.477  0.00  0.00    +0.341 C 
BRANCH  24  25
ATOM     25  C   UNL     1      34.578 -20.995 -19.133  0.00  0.00    +0.076 C 
ATOM     26  C   UNL     1      33.751 -20.122 -19.811  0.00  0.00    +0.007 C 
ATOM     27  C   UNL     1      35.941 -20.798 -19.047  0.00  0.00    +0.007 C 
ATOM     28  C   UNL     1      34.313 -19.004 -20.429  0.00  0.00    +0.003 C 
ATOM     29  C   UNL     1      36.502 -19.681 -19.664  0.00  0.00    +0.003 C 
ATOM     30  C   UNL     1      35.688 -18.783 -20.356  0.00  0.00    +0.039 C 
BRANCH  30  32
ATOM     31  O   UNL     1      37.407 -17.682 -21.497  0.00  0.00    -0.286 OA
ATOM     32  C   UNL     1      36.273 -17.618 -21.000  0.00  0.00    +0.198 C 
BRANCH  32  33
ATOM     33  C   UNL     1      35.555 -16.311 -21.093  0.00  0.00    +0.073 C 
ATOM     34  C   UNL     1      35.289 -15.769 -22.330  0.00  0.00    +0.137 C 
ATOM     35  C   UNL     1      35.186 -15.697 -19.918  0.00  0.00    +0.006 C 
ATOM     36  C   UNL     1      34.619 -14.549 -22.395  0.00  0.00    +0.037 C 
ATOM     37  C   UNL     1      34.515 -14.476 -19.983  0.00  0.00    +0.000 C 
ATOM     38  C   UNL     1      34.232 -13.902 -21.221  0.00  0.00    +0.003 C 
BRANCH  34  39
ATOM     39  O   UNL     1      35.659 -16.386 -23.488  0.00  0.00    -0.505 OA
ATOM     40  H   UNL     1      35.318 -16.087 -24.308  0.00  0.00    +0.292 HD
ENDBRANCH  34  39
ENDBRANCH  32  33
ENDBRANCH  30  32
ENDBRANCH  24  25
ENDBRANCH  22  24
ENDBRANCH   3  22
TORSDOF 9
ENDMDL
MODEL 2
REMARK VINA RESULT:     -11.2      6.726     14.165
REMARK  Name = 10050566
REMARK  9 active torsions:
REMARK  status: ('A' for Active; 'I' for Inactive)
REMARK    1  A    between atoms: C_2  and  N_11
REMARK    2  A    between atoms: C_3  and  O_22
REMARK    3  A    between atoms: C_12  and  C_14
REMARK    4  A    between atoms: C_19  and  O_20
REMARK    5  A    between atoms: O_22  and  C_24
REMARK    6  A    between atoms: C_24  and  C_25
REMARK    7  A    between atoms: C_30  and  C_32
REMARK    8  A    between atoms: C_32  and  C_33
REMARK    9  A    between atoms: C_34  and  O_39
REMARK                            x       y       z     vdW  Elec       q    Type
REMARK                         _______ _______ _______ _____ _____    ______ ____
ROOT
ATOM      1  N   UNL     1      36.294  -9.621 -25.105  0.00  0.00    +0.385 N 
ATOM      2  C   UNL     1      34.535  -9.292 -23.357  0.00  0.00    +0.091 C 
ATOM      3  C   UNL     1      33.728 -10.539 -23.760  0.00  0.00    +0.185 C 
ATOM      4  C   UNL     1      33.418 -10.698 -25.253  0.00  0.00    +0.043 C 
ATOM      5  C   UNL     1      35.410  -8.661 -24.445  0.00  0.00    -0.058 C 
ATOM      6  C   UNL     1      34.588 -11.167 -26.120  0.00  0.00    -0.020 C 
ATOM      7  C   UNL     1      35.695 -10.141 -26.335  0.00  0.00    -0.082 C 
ATOM      8  H   UNL     1      36.473 -10.399 -24.469  0.00  0.00    -0.084 HD
ATOM      9  H   UNL     1      37.161  -9.144 -25.348  0.00  0.00    -0.084 HD
ENDROOT
BRANCH   2  11
ATOM     10  O   UNL     1      35.249  -7.086 -21.667  0.00  0.00    -0.270 OA
ATOM     11  N   UNL     1      33.639  -8.278 -22.833  0.00  0.00    -0.301 N 
ATOM     12  C   UNL     1      34.085  -7.251 -22.023  0.00  0.00    +0.246 C 
ATOM     13  H   UNL     1      32.682  -8.323 -23.061  0.00  0.00    +0.150 HD
BRANCH  12  14
ATOM     14  C   UNL     1      33.039  -6.310 -21.546  0.00  0.00    +0.054 C 
ATOM     15  C   UNL     1      32.427  -5.477 -22.460  0.00  0.00    +0.008 C 
ATOM     16  C   UNL     1      32.712  -6.298 -20.206  0.00  0.00    +0.008 C 
ATOM     17  C   UNL     1      31.444  -4.593 -22.014  0.00  0.00    +0.037 C 
ATOM     18  C   UNL     1      31.730  -5.415 -19.760  0.00  0.00    +0.037 C 
ATOM     19  C   UNL     1      31.096  -4.562 -20.664  0.00  0.00    +0.134 C 
BRANCH  19  20
ATOM     20  O   UNL     1      30.136  -3.702 -20.229  0.00  0.00    -0.506 OA
ATOM     21  H   UNL     1      29.816  -3.763 -19.350  0.00  0.00    +0.292 HD
ENDBRANCH  19  20
ENDBRANCH  12  14
ENDBRANCH   2  11
BRANCH   3  22
ATOM     22  O   UNL     1      34.389 -11.709 -23.271  0.00  0.00    -0.448 OA
BRANCH  22  24
ATOM     23  O   UNL     1      32.894 -11.876 -21.529  0.00  0.00    -0.245 OA
ATOM     24  C   UNL     1      33.783 -12.334 -22.231  0.00  0.00    +0.341 C 
BRANCH  24  25
ATOM     25  C   UNL     1      34.353 -13.691 -22.040  0.00  0.00    +0.076 C 
ATOM     26  C   UNL     1      34.640 -14.456 -23.152  0.00  0.00    +0.007 C 
ATOM     27  C   UNL     1      34.577 -14.146 -20.757  0.00  0.00    +0.007 C 
ATOM     28  C   UNL     1      35.174 -15.732 -22.973  0.00  0.00    +0.003 C 
ATOM     29  C   UNL     1      35.112 -15.421 -20.577  0.00  0.00    +0.003 C 
ATOM     30  C   UNL     1      35.411 -16.215 -21.686  0.00  0.00    +0.039 C 
BRANCH  30  32
ATOM     31  O   UNL     1      37.071 -17.835 -21.986  0.00  0.00    -0.286 OA
ATOM     32  C   UNL     1      35.968 -17.544 -21.499  0.00  0.00    +0.198 C 
BRANCH  32  33
ATOM     33  C   UNL     1      35.257 -18.609 -20.727  0.00  0.00    +0.073 C 
ATOM     34  C   UNL     1      35.949 -19.348 -19.795  0.00  0.00    +0.137 C 
ATOM     35  C   UNL     1      33.920 -18.804 -20.988  0.00  0.00    +0.006 C 
ATOM     36  C   UNL     1      35.267 -20.335 -19.086  0.00  0.00    +0.037 C 
ATOM     37  C   UNL     1      33.237 -19.792 -20.279  0.00  0.00    +0.000 C 
ATOM     38  C   UNL     1      33.911 -20.558 -19.328  0.00  0.00    +0.003 C 
BRANCH  34  39
ATOM     39  O   UNL     1      37.273 -19.146 -19.544  0.00  0.00    -0.505 OA
ATOM     40  H   UNL     1      37.909 -19.324 -20.210  0.00  0.00    +0.292 HD
ENDBRANCH  34  39
ENDBRANCH  32  33
ENDBRANCH  30  32
ENDBRANCH  24  25
ENDBRANCH  22  24
ENDBRANCH   3  22
TORSDOF 9
ENDMDL
MODEL 3
REMARK VINA RESULT:     -10.6      6.136     13.471
REMARK  Name = 10050566
REMARK  9 active torsions:
REMARK  status: ('A' for Active; 'I' for Inactive)
REMARK    1  A    between atoms: C_2  and  N_11
REMARK    2  A    between atoms: C_3  and  O_22
REMARK    3  A    between atoms: C_12  and  C_14
REMARK    4  A    between atoms: C_19  and  O_20
REMARK    5  A    between atoms: O_22  and  C_24
REMARK    6  A    between atoms: C_24  and  C_25
REMARK    7  A    between atoms: C_30  and  C_32
REMARK    8  A    between atoms: C_32  and  C_33
REMARK    9  A    between atoms: C_34  and  O_39
REMARK                            x       y       z     vdW  Elec       q    Type
REMARK                         _______ _______ _______ _____ _____    ______ ____
ROOT
ATOM      1  N   UNL     1      34.647 -11.534 -25.694  0.00  0.00    +0.385 N 
ATOM      2  C   UNL     1      34.227 -10.457 -23.475  0.00  0.00    +0.091 C 
ATOM      3  C   UNL     1      33.725 -11.748 -22.806  0.00  0.00    +0.185 C 
ATOM      4  C   UNL     1      32.665 -12.547 -23.573  0.00  0.00    +0.043 C 
ATOM      5  C   UNL     1      34.087 -10.375 -24.999  0.00  0.00    -0.058 C 
ATOM      6  C   UNL     1      33.187 -13.358 -24.762  0.00  0.00    -0.020 C 
ATOM      7  C   UNL     1      33.621 -12.539 -25.972  0.00  0.00    -0.082 C 
ATOM      8  H   UNL     1      35.372 -11.953 -25.110  0.00  0.00    -0.084 HD
ATOM      9  H   UNL     1      35.036 -11.218 -26.582  0.00  0.00    -0.084 HD
ENDROOT
BRANCH   2  11
ATOM     10  O   UNL     1      35.412  -7.910 -22.886  0.00  0.00    -0.270 OA
ATOM     11  N   UNL     1      33.564  -9.310 -22.884  0.00  0.00    -0.301 N 
ATOM     12  C   UNL     1      34.228  -8.123 -22.640  0.00  0.00    +0.246 C 
ATOM     13  H   UNL     1      32.611  -9.380 -22.649  0.00  0.00    +0.150 HD
BRANCH  12  14
ATOM     14  C   UNL     1      33.415  -7.053 -22.005  0.00  0.00    +0.054 C 
ATOM     15  C   UNL     1      32.739  -6.163 -22.814  0.00  0.00    +0.008 C 
ATOM     16  C   UNL     1      33.362  -6.983 -20.629  0.00  0.00    +0.008 C 
ATOM     17  C   UNL     1      31.975  -5.158 -22.219  0.00  0.00    +0.037 C 
ATOM     18  C   UNL     1      32.598  -5.979 -20.033  0.00  0.00    +0.037 C 
ATOM     19  C   UNL     1      31.905  -5.067 -20.829  0.00  0.00    +0.134 C 
BRANCH  19  20
ATOM     20  O   UNL     1      31.158  -4.088 -20.248  0.00  0.00    -0.506 OA
ATOM     21  H   UNL     1      31.529  -3.556 -19.571  0.00  0.00    +0.292 HD
ENDBRANCH  19  20
ENDBRANCH  12  14
ENDBRANCH   2  11
BRANCH   3  22
ATOM     22  O   UNL     1      34.843 -12.588 -22.499  0.00  0.00    -0.448 OA
BRANCH  22  24
ATOM     23  O   UNL     1      34.758 -12.513 -20.201  0.00  0.00    -0.245 OA
ATOM     24  C   UNL     1      34.847 -13.125 -21.254  0.00  0.00    +0.341 C 
BRANCH  24  25
ATOM     25  C   UNL     1      34.982 -14.601 -21.329  0.00  0.00    +0.076 C 
ATOM     26  C   UNL     1      34.991 -15.331 -20.157  0.00  0.00    +0.007 C 
ATOM     27  C   UNL     1      35.096 -15.199 -22.567  0.00  0.00    +0.007 C 
ATOM     28  C   UNL     1      35.119 -16.718 -20.228  0.00  0.00    +0.003 C 
ATOM     29  C   UNL     1      35.224 -16.586 -22.638  0.00  0.00    +0.003 C 
ATOM     30  C   UNL     1      35.235 -17.346 -21.468  0.00  0.00    +0.039 C 
BRANCH  30  32
ATOM     31  O   UNL     1      35.469 -19.355 -22.641  0.00  0.00    -0.286 OA
ATOM     32  C   UNL     1      35.369 -18.792 -21.541  0.00  0.00    +0.198 C 
BRANCH  32  33
ATOM     33  C   UNL     1      35.390 -19.657 -20.323  0.00  0.00    +0.073 C 
ATOM     34  C   UNL     1      34.208 -20.153 -19.822  0.00  0.00    +0.137 C 
ATOM     35  C   UNL     1      36.612 -19.924 -19.748  0.00  0.00    +0.006 C 
ATOM     36  C   UNL     1      34.250 -20.958 -18.685  0.00  0.00    +0.037 C 
ATOM     37  C   UNL     1      36.654 -20.729 -18.610  0.00  0.00    +0.000 C 
ATOM     38  C   UNL     1      35.473 -21.246 -18.078  0.00  0.00    +0.003 C 
BRANCH  34  39
ATOM     39  O   UNL     1      33.004 -19.882 -20.400  0.00  0.00    -0.505 OA
ATOM     40  H   UNL     1      32.242 -19.771 -19.866  0.00  0.00    +0.292 HD
ENDBRANCH  34  39
ENDBRANCH  32  33
ENDBRANCH  30  32
ENDBRANCH  24  25
ENDBRANCH  22  24
ENDBRANCH   3  22
TORSDOF 9
ENDMDL
MODEL 4
REMARK VINA RESULT:     -10.6      2.662      8.397
REMARK  Name = 10050566
REMARK  9 active torsions:
REMARK  status: ('A' for Active; 'I' for Inactive)
REMARK    1  A    between atoms: C_2  and  N_11
REMARK    2  A    between atoms: C_3  and  O_22
REMARK    3  A    between atoms: C_12  and  C_14
REMARK    4  A    between atoms: C_19  and  O_20
REMARK    5  A    between atoms: O_22  and  C_24
REMARK    6  A    between atoms: C_24  and  C_25
REMARK    7  A    between atoms: C_30  and  C_32
REMARK    8  A    between atoms: C_32  and  C_33
REMARK    9  A    between atoms: C_34  and  O_39
REMARK                            x       y       z     vdW  Elec       q    Type
REMARK                         _______ _______ _______ _____ _____    ______ ____
ROOT
ATOM      1  N   UNL     1      28.882 -22.870 -16.152  0.00  0.00    +0.385 N 
ATOM      2  C   UNL     1      31.335 -22.614 -16.570  0.00  0.00    +0.091 C 
ATOM      3  C   UNL     1      31.717 -22.660 -15.079  0.00  0.00    +0.185 C 
ATOM      4  C   UNL     1      30.919 -21.748 -14.141  0.00  0.00    +0.043 C 
ATOM      5  C   UNL     1      29.912 -22.149 -16.897  0.00  0.00    -0.058 C 
ATOM      6  C   UNL     1      29.507 -22.231 -13.800  0.00  0.00    -0.020 C 
ATOM      7  C   UNL     1      28.496 -22.149 -14.938  0.00  0.00    -0.082 C 
ATOM      8  H   UNL     1      29.242 -23.788 -15.891  0.00  0.00    -0.084 HD
ATOM      9  H   UNL     1      28.058 -22.959 -16.747  0.00  0.00    -0.084 HD
ENDROOT
BRANCH   2  11
ATOM     10  O   UNL     1      33.775 -23.467 -17.814  0.00  0.00    -0.270 OA
ATOM     11  N   UNL     1      32.277 -21.778 -17.290  0.00  0.00    -0.301 N 
ATOM     12  C   UNL     1      33.429 -22.290 -17.856  0.00  0.00    +0.246 C 
ATOM     13  H   UNL     1      32.089 -20.816 -17.379  0.00  0.00    +0.150 HD
BRANCH  12  14
ATOM     14  C   UNL     1      34.303 -21.299 -18.537  0.00  0.00    +0.054 C 
ATOM     15  C   UNL     1      35.650 -21.287 -18.241  0.00  0.00    +0.008 C 
ATOM     16  C   UNL     1      33.740 -20.423 -19.441  0.00  0.00    +0.008 C 
ATOM     17  C   UNL     1      36.472 -20.358 -18.880  0.00  0.00    +0.037 C 
ATOM     18  C   UNL     1      34.561 -19.495 -20.081  0.00  0.00    +0.037 C 
ATOM     19  C   UNL     1      35.927 -19.462 -19.799  0.00  0.00    +0.134 C 
BRANCH  19  20
ATOM     20  O   UNL     1      36.728 -18.557 -20.425  0.00  0.00    -0.506 OA
ATOM     21  H   UNL     1      37.603 -18.417 -20.120  0.00  0.00    +0.292 HD
ENDBRANCH  19  20
ENDBRANCH  12  14
ENDBRANCH   2  11
BRANCH   3  22
ATOM     22  O   UNL     1      31.655 -24.012 -14.616  0.00  0.00    -0.448 OA
BRANCH  22  24
ATOM     23  O   UNL     1      31.409 -24.608 -12.407  0.00  0.00    -0.245 OA
ATOM     24  C   UNL     1      32.084 -24.217 -13.346  0.00  0.00    +0.341 C 
BRANCH  24  25
ATOM     25  C   UNL     1      33.529 -23.894 -13.232  0.00  0.00    +0.076 C 
ATOM     26  C   UNL     1      34.329 -24.011 -14.351  0.00  0.00    +0.007 C 
ATOM     27  C   UNL     1      34.027 -23.488 -12.011  0.00  0.00    +0.007 C 
ATOM     28  C   UNL     1      35.687 -23.709 -14.243  0.00  0.00    +0.003 C 
ATOM     29  C   UNL     1      35.384 -23.186 -11.903  0.00  0.00    +0.003 C 
ATOM     30  C   UNL     1      36.215 -23.296 -13.020  0.00  0.00    +0.039 C 
BRANCH  30  32
ATOM     31  O   UNL     1      37.998 -21.968 -12.295  0.00  0.00    -0.286 OA
ATOM     32  C   UNL     1      37.629 -22.981 -12.907  0.00  0.00    +0.198 C 
BRANCH  32  33
ATOM     33  C   UNL     1      38.691 -23.842 -13.511  0.00  0.00    +0.073 C 
ATOM     34  C   UNL     1      39.188 -23.534 -14.757  0.00  0.00    +0.137 C 
ATOM     35  C   UNL     1      39.133 -24.922 -12.781  0.00  0.00    +0.006 C 
ATOM     36  C   UNL     1      40.178 -24.349 -15.302  0.00  0.00    +0.037 C 
ATOM     37  C   UNL     1      40.124 -25.738 -13.326  0.00  0.00    +0.000 C 
ATOM     38  C   UNL     1      40.646 -25.452 -14.587  0.00  0.00    +0.003 C 
BRANCH  34  39
ATOM     39  O   UNL     1      38.744 -22.462 -15.471  0.00  0.00    -0.505 OA
ATOM     40  H   UNL     1      38.814 -21.598 -15.113  0.00  0.00    +0.292 HD
ENDBRANCH  34  39
ENDBRANCH  32  33
ENDBRANCH  30  32
ENDBRANCH  24  25
ENDBRANCH  22  24
ENDBRANCH   3  22
TORSDOF 9
ENDMDL
MODEL 5
REMARK VINA RESULT:     -10.5      1.483      2.328
REMARK  Name = 10050566
REMARK  9 active torsions:
REMARK  status: ('A' for Active; 'I' for Inactive)
REMARK    1  A    between atoms: C_2  and  N_11
REMARK    2  A    between atoms: C_3  and  O_22
REMARK    3  A    between atoms: C_12  and  C_14
REMARK    4  A    between atoms: C_19  and  O_20
REMARK    5  A    between atoms: O_22  and  C_24
REMARK    6  A    between atoms: C_24  and  C_25
REMARK    7  A    between atoms: C_30  and  C_32
REMARK    8  A    between atoms: C_32  and  C_33
REMARK    9  A    between atoms: C_34  and  O_39
REMARK                            x       y       z     vdW  Elec       q    Type
REMARK                         _______ _______ _______ _____ _____    ______ ____
ROOT
ATOM      1  N   UNL     1      32.185 -22.518 -12.369  0.00  0.00    +0.385 N 
ATOM      2  C   UNL     1      34.196 -22.888 -13.809  0.00  0.00    +0.091 C 
ATOM      3  C   UNL     1      33.383 -23.283 -15.055  0.00  0.00    +0.185 C 
ATOM      4  C   UNL     1      32.285 -24.333 -14.848  0.00  0.00    +0.043 C 
ATOM      5  C   UNL     1      33.520 -23.108 -12.452  0.00  0.00    -0.058 C 
ATOM      6  C   UNL     1      31.011 -23.826 -14.169  0.00  0.00    -0.020 C 
ATOM      7  C   UNL     1      31.146 -23.499 -12.686  0.00  0.00    -0.082 C 
ATOM      8  H   UNL     1      32.122 -21.744 -13.030  0.00  0.00    -0.084 HD
ATOM      9  H   UNL     1      32.037 -22.192 -11.414  0.00  0.00    -0.084 HD
ENDROOT
BRANCH   2  11
ATOM     10  O   UNL     1      36.728 -21.821 -14.635  0.00  0.00    -0.270 OA
ATOM     11  N   UNL     1      35.468 -23.586 -13.815  0.00  0.00    -0.301 N 
ATOM     12  C   UNL     1      36.637 -22.978 -14.234  0.00  0.00    +0.246 C 
ATOM     13  H   UNL     1      35.501 -24.522 -13.511  0.00  0.00    +0.150 HD
BRANCH  12  14
ATOM     14  C   UNL     1      37.851 -23.835 -14.205  0.00  0.00    +0.054 C 
ATOM     15  C   UNL     1      37.823 -25.003 -13.471  0.00  0.00    +0.008 C 
ATOM     16  C   UNL     1      38.966 -23.437 -14.913  0.00  0.00    +0.008 C 
ATOM     17  C   UNL     1      38.962 -25.808 -13.443  0.00  0.00    +0.037 C 
ATOM     18  C   UNL     1      40.104 -24.242 -14.886  0.00  0.00    +0.037 C 
ATOM     19  C   UNL     1      40.102 -25.428 -14.151  0.00  0.00    +0.134 C 
BRANCH  19  20
ATOM     20  O   UNL     1      41.212 -26.214 -14.126  0.00  0.00    -0.506 OA
ATOM     21  H   UNL     1      41.654 -26.425 -14.926  0.00  0.00    +0.292 HD
ENDBRANCH  19  20
ENDBRANCH  12  14
ENDBRANCH   2  11
BRANCH   3  22
ATOM     22  O   UNL     1      32.828 -22.107 -15.650  0.00  0.00    -0.448 OA
BRANCH  22  24
ATOM     23  O   UNL     1      31.502 -22.847 -17.380  0.00  0.00    -0.245 OA
ATOM     24  C   UNL     1      32.462 -22.226 -16.951  0.00  0.00    +0.341 C 
BRANCH  24  25
ATOM     25  C   UNL     1      33.407 -21.483 -17.823  0.00  0.00    +0.076 C 
ATOM     26  C   UNL     1      34.763 -21.644 -17.625  0.00  0.00    +0.007 C 
ATOM     27  C   UNL     1      32.900 -20.655 -18.802  0.00  0.00    +0.007 C 
ATOM     28  C   UNL     1      35.651 -20.946 -18.443  0.00  0.00    +0.003 C 
ATOM     29  C   UNL     1      33.788 -19.956 -19.621  0.00  0.00    +0.003 C 
ATOM     30  C   UNL     1      35.164 -20.102 -19.441  0.00  0.00    +0.039 C 
BRANCH  30  32
ATOM     31  O   UNL     1      37.311 -19.568 -20.201  0.00  0.00    -0.286 OA
ATOM     32  C   UNL     1      36.090 -19.374 -20.294  0.00  0.00    +0.198 C 
BRANCH  32  33
ATOM     33  C   UNL     1      35.629 -18.373 -21.304  0.00  0.00    +0.073 C 
ATOM     34  C   UNL     1      35.577 -17.041 -20.965  0.00  0.00    +0.137 C 
ATOM     35  C   UNL     1      35.272 -18.838 -22.550  0.00  0.00    +0.006 C 
ATOM     36  C   UNL     1      35.145 -16.124 -21.922  0.00  0.00    +0.037 C 
ATOM     37  C   UNL     1      34.840 -17.921 -23.507  0.00  0.00    +0.000 C 
ATOM     38  C   UNL     1      34.776 -16.564 -23.193  0.00  0.00    +0.003 C 
BRANCH  34  39
ATOM     39  O   UNL     1      35.933 -16.592 -19.728  0.00  0.00    -0.505 OA
ATOM     40  H   UNL     1      36.749 -16.856 -19.350  0.00  0.00    +0.292 HD
ENDBRANCH  34  39
ENDBRANCH  32  33
ENDBRANCH  30  32
ENDBRANCH  24  25
ENDBRANCH  22  24
ENDBRANCH   3  22
TORSDOF 9
ENDMDL
MODEL 6
REMARK VINA RESULT:     -10.3      4.835     12.321
REMARK  Name = 10050566
REMARK  9 active torsions:
REMARK  status: ('A' for Active; 'I' for Inactive)
REMARK    1  A    between atoms: C_2  and  N_11
REMARK    2  A    between atoms: C_3  and  O_22
REMARK    3  A    between atoms: C_12  and  C_14
REMARK    4  A    between atoms: C_19  and  O_20
REMARK    5  A    between atoms: O_22  and  C_24
REMARK    6  A    between atoms: C_24  and  C_25
REMARK    7  A    between atoms: C_30  and  C_32
REMARK    8  A    between atoms: C_32  and  C_33
REMARK    9  A    between atoms: C_34  and  O_39
REMARK                            x       y       z     vdW  Elec       q    Type
REMARK                         _______ _______ _______ _____ _____    ______ ____
ROOT
ATOM      1  N   UNL     1      31.762 -13.030 -20.605  0.00  0.00    +0.385 N 
ATOM      2  C   UNL     1      33.224 -12.256 -22.482  0.00  0.00    +0.091 C 
ATOM      3  C   UNL     1      34.339 -13.279 -22.197  0.00  0.00    +0.185 C 
ATOM      4  C   UNL     1      34.813 -13.383 -20.743  0.00  0.00    +0.043 C 
ATOM      5  C   UNL     1      32.327 -11.874 -21.300  0.00  0.00    -0.058 C 
ATOM      6  C   UNL     1      33.873 -14.136 -19.798  0.00  0.00    -0.020 C 
ATOM      7  C   UNL     1      32.577 -13.411 -19.451  0.00  0.00    -0.082 C 
ATOM      8  H   UNL     1      31.717 -13.817 -21.253  0.00  0.00    -0.084 HD
ATOM      9  H   UNL     1      30.831 -12.780 -20.272  0.00  0.00    -0.084 HD
ENDROOT
BRANCH   2  11
ATOM     10  O   UNL     1      33.887 -11.791 -25.235  0.00  0.00    -0.270 OA
ATOM     11  N   UNL     1      33.801 -11.048 -23.041  0.00  0.00    -0.301 N 
ATOM     12  C   UNL     1      34.084 -10.924 -24.387  0.00  0.00    +0.246 C 
ATOM     13  H   UNL     1      33.997 -10.292 -22.441  0.00  0.00    +0.150 HD
BRANCH  12  14
ATOM     14  C   UNL     1      34.696  -9.634 -24.797  0.00  0.00    +0.054 C 
ATOM     15  C   UNL     1      35.550  -9.617 -25.881  0.00  0.00    +0.008 C 
ATOM     16  C   UNL     1      34.394  -8.494 -24.082  0.00  0.00    +0.008 C 
ATOM     17  C   UNL     1      36.126  -8.407 -26.267  0.00  0.00    +0.037 C 
ATOM     18  C   UNL     1      34.968  -7.283 -24.468  0.00  0.00    +0.037 C 
ATOM     19  C   UNL     1      35.835  -7.240 -25.560  0.00  0.00    +0.134 C 
BRANCH  19  20
ATOM     20  O   UNL     1      36.394  -6.058 -25.937  0.00  0.00    -0.506 OA
ATOM     21  H   UNL     1      36.177  -5.682 -26.768  0.00  0.00    +0.292 HD
ENDBRANCH  19  20
ENDBRANCH  12  14
ENDBRANCH   2  11
BRANCH   3  22
ATOM     22  O   UNL     1      33.935 -14.566 -22.673  0.00  0.00    -0.448 OA
BRANCH  22  24
ATOM     23  O   UNL     1      35.491 -15.065 -24.293  0.00  0.00    -0.245 OA
ATOM     24  C   UNL     1      34.911 -15.311 -23.247  0.00  0.00    +0.341 C 
BRANCH  24  25
ATOM     25  C   UNL     1      35.199 -16.510 -22.419  0.00  0.00    +0.076 C 
ATOM     26  C   UNL     1      35.706 -16.335 -21.148  0.00  0.00    +0.007 C 
ATOM     27  C   UNL     1      34.952 -17.760 -22.947  0.00  0.00    +0.007 C 
ATOM     28  C   UNL     1      35.978 -17.462 -20.370  0.00  0.00    +0.003 C 
ATOM     29  C   UNL     1      35.223 -18.886 -22.170  0.00  0.00    +0.003 C 
ATOM     30  C   UNL     1      35.737 -18.737 -20.880  0.00  0.00    +0.039 C 
BRANCH  30  32
ATOM     31  O   UNL     1      37.148 -20.425 -20.088  0.00  0.00    -0.286 OA
ATOM     32  C   UNL     1      36.020 -19.910 -20.071  0.00  0.00    +0.198 C 
BRANCH  32  33
ATOM     33  C   UNL     1      34.989 -20.546 -19.195  0.00  0.00    +0.073 C 
ATOM     34  C   UNL     1      35.388 -21.305 -18.118  0.00  0.00    +0.137 C 
ATOM     35  C   UNL     1      33.665 -20.339 -19.510  0.00  0.00    +0.006 C 
ATOM     36  C   UNL     1      34.411 -21.889 -17.314  0.00  0.00    +0.037 C 
ATOM     37  C   UNL     1      32.687 -20.923 -18.705  0.00  0.00    +0.000 C 
ATOM     38  C   UNL     1      33.060 -21.699 -17.607  0.00  0.00    +0.003 C 
BRANCH  34  39
ATOM     39  O   UNL     1      36.702 -21.503 -17.816  0.00  0.00    -0.505 OA
ATOM     40  H   UNL     1      37.141 -22.275 -18.116  0.00  0.00    +0.292 HD
ENDBRANCH  34  39
ENDBRANCH  32  33
ENDBRANCH  30  32
ENDBRANCH  24  25
ENDBRANCH  22  24
ENDBRANCH   3  22
TORSDOF 9
ENDMDL
MODEL 7
REMARK VINA RESULT:      -9.5      8.380     13.719
REMARK  Name = 10050566
REMARK  9 active torsions:
REMARK  status: ('A' for Active; 'I' for Inactive)
REMARK    1  A    between atoms: C_2  and  N_11
REMARK    2  A    between atoms: C_3  and  O_22
REMARK    3  A    between atoms: C_12  and  C_14
REMARK    4  A    between atoms: C_19  and  O_20
REMARK    5  A    between atoms: O_22  and  C_24
REMARK    6  A    between atoms: C_24  and  C_25
REMARK    7  A    between atoms: C_30  and  C_32
REMARK    8  A    between atoms: C_32  and  C_33
REMARK    9  A    between atoms: C_34  and  O_39
REMARK                            x       y       z     vdW  Elec       q    Type
REMARK                         _______ _______ _______ _____ _____    ______ ____
ROOT
ATOM      1  N   UNL     1      33.839 -11.114 -25.876  0.00  0.00    +0.385 N 
ATOM      2  C   UNL     1      33.703 -12.192 -23.622  0.00  0.00    +0.091 C 
ATOM      3  C   UNL     1      33.881 -10.874 -22.847  0.00  0.00    +0.185 C 
ATOM      4  C   UNL     1      35.042  -9.975 -23.286  0.00  0.00    +0.043 C 
ATOM      5  C   UNL     1      34.276 -12.233 -25.043  0.00  0.00    -0.058 C 
ATOM      6  C   UNL     1      34.812  -9.190 -24.579  0.00  0.00    -0.020 C 
ATOM      7  C   UNL     1      34.812 -10.021 -25.858  0.00  0.00    -0.082 C 
ATOM      8  H   UNL     1      32.945 -10.768 -25.525  0.00  0.00    -0.084 HD
ATOM      9  H   UNL     1      33.747 -11.445 -26.836  0.00  0.00    -0.084 HD
ENDROOT
BRANCH   2  11
ATOM     10  O   UNL     1      33.902 -14.931 -24.454  0.00  0.00    -0.270 OA
ATOM     11  N   UNL     1      34.268 -13.289 -22.859  0.00  0.00    -0.301 N 
ATOM     12  C   UNL     1      34.316 -14.578 -23.353  0.00  0.00    +0.246 C 
ATOM     13  H   UNL     1      34.628 -13.108 -21.961  0.00  0.00    +0.150 HD
BRANCH  12  14
ATOM     14  C   UNL     1      34.901 -15.593 -22.437  0.00  0.00    +0.054 C 
ATOM     15  C   UNL     1      34.909 -15.339 -21.081  0.00  0.00    +0.008 C 
ATOM     16  C   UNL     1      35.416 -16.755 -22.972  0.00  0.00    +0.008 C 
ATOM     17  C   UNL     1      35.457 -16.291 -20.222  0.00  0.00    +0.037 C 
ATOM     18  C   UNL     1      35.963 -17.708 -22.112  0.00  0.00    +0.037 C 
ATOM     19  C   UNL     1      35.984 -17.475 -20.737  0.00  0.00    +0.134 C 
BRANCH  19  20
ATOM     20  O   UNL     1      36.517 -18.405 -19.898  0.00  0.00    -0.506 OA
ATOM     21  H   UNL     1      37.047 -19.096 -20.243  0.00  0.00    +0.292 HD
ENDBRANCH  19  20
ENDBRANCH  12  14
ENDBRANCH   2  11
BRANCH   3  22
ATOM     22  O   UNL     1      32.655 -10.138 -22.876  0.00  0.00    -0.448 OA
BRANCH  22  24
ATOM     23  O   UNL     1      32.215  -9.853 -20.635  0.00  0.00    -0.245 OA
ATOM     24  C   UNL     1      32.379  -9.414 -21.763  0.00  0.00    +0.341 C 
BRANCH  24  25
ATOM     25  C   UNL     1      32.297  -7.969 -22.094  0.00  0.00    +0.076 C 
ATOM     26  C   UNL     1      32.824  -7.051 -21.209  0.00  0.00    +0.007 C 
ATOM     27  C   UNL     1      31.694  -7.589 -23.276  0.00  0.00    +0.007 C 
ATOM     28  C   UNL     1      32.745  -5.693 -21.520  0.00  0.00    +0.003 C 
ATOM     29  C   UNL     1      31.616  -6.232 -23.587  0.00  0.00    +0.003 C 
ATOM     30  C   UNL     1      32.142  -5.283 -22.709  0.00  0.00    +0.039 C 
BRANCH  30  32
ATOM     31  O   UNL     1      31.940  -3.026 -22.131  0.00  0.00    -0.286 OA
ATOM     32  C   UNL     1      32.059  -3.868 -23.033  0.00  0.00    +0.198 C 
BRANCH  32  33
ATOM     33  C   UNL     1      32.111  -3.365 -24.439  0.00  0.00    +0.073 C 
ATOM     34  C   UNL     1      31.198  -2.425 -24.858  0.00  0.00    +0.137 C 
ATOM     35  C   UNL     1      33.088  -3.872 -25.265  0.00  0.00    +0.006 C 
ATOM     36  C   UNL     1      31.264  -1.968 -26.173  0.00  0.00    +0.037 C 
ATOM     37  C   UNL     1      33.155  -3.415 -26.581  0.00  0.00    +0.000 C 
ATOM     38  C   UNL     1      32.242  -2.463 -27.035  0.00  0.00    +0.003 C 
BRANCH  34  39
ATOM     39  O   UNL     1      30.234  -1.929 -24.031  0.00  0.00    -0.505 OA
ATOM     40  H   UNL     1      29.736  -1.178 -24.288  0.00  0.00    +0.292 HD
ENDBRANCH  34  39
ENDBRANCH  32  33
ENDBRANCH  30  32
ENDBRANCH  24  25
ENDBRANCH  22  24
ENDBRANCH   3  22
TORSDOF 9
ENDMDL
MODEL 8
REMARK VINA RESULT:      -9.4      1.315      2.006
REMARK  Name = 10050566
REMARK  9 active torsions:
REMARK  status: ('A' for Active; 'I' for Inactive)
REMARK    1  A    between atoms: C_2  and  N_11
REMARK    2  A    between atoms: C_3  and  O_22
REMARK    3  A    between atoms: C_12  and  C_14
REMARK    4  A    between atoms: C_19  and  O_20
REMARK    5  A    between atoms: O_22  and  C_24
REMARK    6  A    between atoms: C_24  and  C_25
REMARK    7  A    between atoms: C_30  and  C_32
REMARK    8  A    between atoms: C_32  and  C_33
REMARK    9  A    between atoms: C_34  and  O_39
REMARK                            x       y       z     vdW  Elec       q    Type
REMARK                         _______ _______ _______ _____ _____    ______ ____
ROOT
ATOM      1  N   UNL     1      32.977 -21.739 -14.475  0.00  0.00    +0.385 N 
ATOM      2  C   UNL     1      35.214 -22.403 -15.375  0.00  0.00    +0.091 C 
ATOM      3  C   UNL     1      34.706 -22.624 -16.811  0.00  0.00    +0.185 C 
ATOM      4  C   UNL     1      33.445 -23.481 -16.964  0.00  0.00    +0.043 C 
ATOM      5  C   UNL     1      34.179 -22.541 -14.254  0.00  0.00    -0.058 C 
ATOM      6  C   UNL     1      32.131 -22.785 -16.600  0.00  0.00    -0.020 C 
ATOM      7  C   UNL     1      31.919 -22.524 -15.113  0.00  0.00    -0.082 C 
ATOM      8  H   UNL     1      33.211 -20.948 -15.076  0.00  0.00    -0.084 HD
ATOM      9  H   UNL     1      32.635 -21.418 -13.569  0.00  0.00    -0.084 HD
ENDROOT
BRANCH   2  11
ATOM     10  O   UNL     1      37.807 -21.678 -14.383  0.00  0.00    -0.270 OA
ATOM     11  N   UNL     1      36.319 -23.303 -15.104  0.00  0.00    -0.301 N 
ATOM     12  C   UNL     1      37.534 -22.850 -14.624  0.00  0.00    +0.246 C 
ATOM     13  H   UNL     1      36.200 -24.267 -15.266  0.00  0.00    +0.150 HD
BRANCH  12  14
ATOM     14  C   UNL     1      38.572 -23.894 -14.423  0.00  0.00    +0.054 C 
ATOM     15  C   UNL     1      38.193 -25.122 -13.922  0.00  0.00    +0.008 C 
ATOM     16  C   UNL     1      39.882 -23.603 -14.744  0.00  0.00    +0.008 C 
ATOM     17  C   UNL     1      39.167 -26.102 -13.733  0.00  0.00    +0.037 C 
ATOM     18  C   UNL     1      40.856 -24.583 -14.556  0.00  0.00    +0.037 C 
ATOM     19  C   UNL     1      40.498 -25.833 -14.049  0.00  0.00    +0.134 C 
BRANCH  19  20
ATOM     20  O   UNL     1      41.449 -26.790 -13.867  0.00  0.00    -0.506 OA
ATOM     21  H   UNL     1      41.206 -27.695 -13.862  0.00  0.00    +0.292 HD
ENDBRANCH  19  20
ENDBRANCH  12  14
ENDBRANCH   2  11
BRANCH   3  22
ATOM     22  O   UNL     1      34.517 -21.356 -17.447  0.00  0.00    -0.448 OA
BRANCH  22  24
ATOM     23  O   UNL     1      36.704 -20.671 -17.236  0.00  0.00    -0.245 OA
ATOM     24  C   UNL     1      35.649 -20.728 -17.850  0.00  0.00    +0.341 C 
BRANCH  24  25
ATOM     25  C   UNL     1      35.443 -20.093 -19.175  0.00  0.00    +0.076 C 
ATOM     26  C   UNL     1      36.542 -19.628 -19.870  0.00  0.00    +0.007 C 
ATOM     27  C   UNL     1      34.161 -19.986 -19.672  0.00  0.00    +0.007 C 
ATOM     28  C   UNL     1      36.348 -19.030 -21.115  0.00  0.00    +0.003 C 
ATOM     29  C   UNL     1      33.967 -19.388 -20.917  0.00  0.00    +0.003 C 
ATOM     30  C   UNL     1      35.061 -18.910 -21.639  0.00  0.00    +0.039 C 
BRANCH  30  32
ATOM     31  O   UNL     1      34.749 -18.985 -23.956  0.00  0.00    -0.286 OA
ATOM     32  C   UNL     1      34.859 -18.287 -22.937  0.00  0.00    +0.198 C 
BRANCH  32  33
ATOM     33  C   UNL     1      34.777 -16.804 -23.109  0.00  0.00    +0.073 C 
ATOM     34  C   UNL     1      34.255 -16.283 -24.271  0.00  0.00    +0.137 C 
ATOM     35  C   UNL     1      35.234 -16.014 -22.079  0.00  0.00    +0.006 C 
ATOM     36  C   UNL     1      34.187 -14.898 -24.411  0.00  0.00    +0.037 C 
ATOM     37  C   UNL     1      35.166 -14.628 -22.218  0.00  0.00    +0.000 C 
ATOM     38  C   UNL     1      34.643 -14.070 -23.385  0.00  0.00    +0.003 C 
BRANCH  34  39
ATOM     39  O   UNL     1      33.805 -17.076 -25.284  0.00  0.00    -0.505 OA
ATOM     40  H   UNL     1      33.667 -16.713 -26.137  0.00  0.00    +0.292 HD
ENDBRANCH  34  39
ENDBRANCH  32  33
ENDBRANCH  30  32
ENDBRANCH  24  25
ENDBRANCH  22  24
ENDBRANCH   3  22
TORSDOF 9
ENDMDL
MODEL 9
REMARK VINA RESULT:      -9.3      6.147     13.582
REMARK  Name = 10050566
REMARK  9 active torsions:
REMARK  status: ('A' for Active; 'I' for Inactive)
REMARK    1  A    between atoms: C_2  and  N_11
REMARK    2  A    between atoms: C_3  and  O_22
REMARK    3  A    between atoms: C_12  and  C_14
REMARK    4  A    between atoms: C_19  and  O_20
REMARK    5  A    between atoms: O_22  and  C_24
REMARK    6  A    between atoms: C_24  and  C_25
REMARK    7  A    between atoms: C_30  and  C_32
REMARK    8  A    between atoms: C_32  and  C_33
REMARK    9  A    between atoms: C_34  and  O_39
REMARK                            x       y       z     vdW  Elec       q    Type
REMARK                         _______ _______ _______ _____ _____    ______ ____
ROOT
ATOM      1  N   UNL     1      30.529 -11.530 -19.857  0.00  0.00    +0.385 N 
ATOM      2  C   UNL     1      31.497 -10.364 -21.847  0.00  0.00    +0.091 C 
ATOM      3  C   UNL     1      32.842 -11.111 -21.784  0.00  0.00    +0.185 C 
ATOM      4  C   UNL     1      33.530 -11.161 -20.415  0.00  0.00    +0.043 C 
ATOM      5  C   UNL     1      30.715 -10.248 -20.535  0.00  0.00    -0.058 C 
ATOM      6  C   UNL     1      32.927 -12.148 -19.413  0.00  0.00    -0.020 C 
ATOM      7  C   UNL     1      31.565 -11.758 -18.849  0.00  0.00    -0.082 C 
ATOM      8  H   UNL     1      30.569 -12.280 -20.548  0.00  0.00    -0.084 HD
ATOM      9  H   UNL     1      29.623 -11.517 -19.388  0.00  0.00    -0.084 HD
ENDROOT
BRANCH   2  11
ATOM     10  O   UNL     1      32.353  -8.041 -20.397  0.00  0.00    -0.270 OA
ATOM     11  N   UNL     1      31.702  -9.034 -22.388  0.00  0.00    -0.301 N 
ATOM     12  C   UNL     1      32.118  -7.977 -21.601  0.00  0.00    +0.246 C 
ATOM     13  H   UNL     1      31.539  -8.878 -23.346  0.00  0.00    +0.150 HD
BRANCH  12  14
ATOM     14  C   UNL     1      32.255  -6.672 -22.299  0.00  0.00    +0.054 C 
ATOM     15  C   UNL     1      32.699  -6.661 -23.605  0.00  0.00    +0.008 C 
ATOM     16  C   UNL     1      31.935  -5.515 -21.620  0.00  0.00    +0.008 C 
ATOM     17  C   UNL     1      32.828  -5.437 -24.261  0.00  0.00    +0.037 C 
ATOM     18  C   UNL     1      32.063  -4.292 -22.276  0.00  0.00    +0.037 C 
ATOM     19  C   UNL     1      32.510  -4.252 -23.597  0.00  0.00    +0.134 C 
BRANCH  19  20
ATOM     20  O   UNL     1      32.634  -3.058 -24.238  0.00  0.00    -0.506 OA
ATOM     21  H   UNL     1      33.185  -2.987 -24.992  0.00  0.00    +0.292 HD
ENDBRANCH  19  20
ENDBRANCH  12  14
ENDBRANCH   2  11
BRANCH   3  22
ATOM     22  O   UNL     1      32.672 -12.436 -22.295  0.00  0.00    -0.448 OA
BRANCH  22  24
ATOM     23  O   UNL     1      33.841 -12.225 -24.266  0.00  0.00    -0.245 OA
ATOM     24  C   UNL     1      33.570 -12.821 -23.235  0.00  0.00    +0.341 C 
BRANCH  24  25
ATOM     25  C   UNL     1      34.207 -14.105 -22.845  0.00  0.00    +0.076 C 
ATOM     26  C   UNL     1      34.625 -14.272 -21.540  0.00  0.00    +0.007 C 
ATOM     27  C   UNL     1      34.362 -15.089 -23.799  0.00  0.00    +0.007 C 
ATOM     28  C   UNL     1      35.225 -15.478 -21.175  0.00  0.00    +0.003 C 
ATOM     29  C   UNL     1      34.960 -16.295 -23.433  0.00  0.00    +0.003 C 
ATOM     30  C   UNL     1      35.392 -16.489 -22.120  0.00  0.00    +0.039 C 
BRANCH  30  32
ATOM     31  O   UNL     1      37.153 -18.028 -22.148  0.00  0.00    -0.286 OA
ATOM     32  C   UNL     1      36.017 -17.745 -21.739  0.00  0.00    +0.198 C 
BRANCH  32  33
ATOM     33  C   UNL     1      35.338 -18.741 -20.856  0.00  0.00    +0.073 C 
ATOM     34  C   UNL     1      36.080 -19.460 -19.947  0.00  0.00    +0.137 C 
ATOM     35  C   UNL     1      33.976 -18.896 -20.992  0.00  0.00    +0.006 C 
ATOM     36  C   UNL     1      35.427 -20.384 -19.132  0.00  0.00    +0.037 C 
ATOM     37  C   UNL     1      33.323 -19.820 -20.177  0.00  0.00    +0.000 C 
ATOM     38  C   UNL     1      34.049 -20.564 -19.247  0.00  0.00    +0.003 C 
BRANCH  34  39
ATOM     39  O   UNL     1      37.427 -19.298 -19.820  0.00  0.00    -0.505 OA
ATOM     40  H   UNL     1      37.966 -19.232 -20.584  0.00  0.00    +0.292 HD
ENDBRANCH  34  39
ENDBRANCH  32  33
ENDBRANCH  30  32
ENDBRANCH  24  25
ENDBRANCH  22  24
ENDBRANCH   3  22
TORSDOF 9
ENDMDL
