MODEL 1
REMARK VINA RESULT:     -12.2      0.000      0.000
REMARK  Name = 3478
REMARK  7 active torsions:
REMARK  status: ('A' for Active; 'I' for Inactive)
REMARK    1  A    between atoms: C_1  and  S_7
REMARK    2  A    between atoms: C_2  and  C_22
REMARK    3  A    between atoms: S_7  and  N_12
REMARK    4  A    between atoms: N_11  and  C_16
REMARK    5  A    between atoms: C_22  and  C_23
REMARK    6  A    between atoms: C_23  and  N_25
REMARK    7  A    between atoms: C_26  and  C_30
REMARK                            x       y       z     vdW  Elec       q    Type
REMARK                         _______ _______ _______ _____ _____    ______ ____
ROOT
ATOM      1  C   UNL     1      34.563 -21.273 -18.361  0.00  0.00    +0.125 C 
ATOM      2  C   UNL     1      35.771 -19.395 -20.032  0.00  0.00    -0.020 C 
ATOM      3  C   UNL     1      35.950 -21.123 -18.354  0.00  0.00    +0.020 C 
ATOM      4  C   UNL     1      33.780 -20.485 -19.203  0.00  0.00    +0.020 C 
ATOM      5  C   UNL     1      36.554 -20.185 -19.190  0.00  0.00    -0.003 C 
ATOM      6  C   UNL     1      34.385 -19.546 -20.039  0.00  0.00    -0.003 C 
ENDROOT
BRANCH   1   7
ATOM      7  S   UNL     1      33.798 -22.464 -17.301  0.00  0.00    +0.077 S 
ATOM      8  O   UNL     1      33.785 -23.739 -17.990  0.00  0.00    -0.150 OA
ATOM      9  O   UNL     1      32.562 -21.870 -16.828  0.00  0.00    -0.150 OA
BRANCH   7  12
ATOM     10  O   UNL     1      33.804 -24.031 -14.620  0.00  0.00    -0.251 OA
ATOM     11  N   UNL     1      35.841 -23.161 -13.959  0.00  0.00    -0.289 N 
ATOM     12  N   UNL     1      34.920 -22.526 -16.014  0.00  0.00    -0.169 N 
ATOM     13  C   UNL     1      34.776 -23.309 -14.825  0.00  0.00    +0.319 C 
ATOM     14  H   UNL     1      36.575 -22.556 -14.216  0.00  0.00    +0.151 HD
ATOM     15  H   UNL     1      35.734 -21.978 -16.098  0.00  0.00    +0.178 HD
BRANCH  11  16
ATOM     16  C   UNL     1      35.928 -23.853 -12.693  0.00  0.00    +0.073 C 
ATOM     17  C   UNL     1      36.226 -22.878 -11.549  0.00  0.00    +0.020 C 
ATOM     18  C   UNL     1      36.970 -24.976 -12.750  0.00  0.00    +0.020 C 
ATOM     19  C   UNL     1      37.660 -22.349 -11.591  0.00  0.00    +0.002 C 
ATOM     20  C   UNL     1      38.402 -24.445 -12.790  0.00  0.00    +0.002 C 
ATOM     21  C   UNL     1      38.678 -23.485 -11.636  0.00  0.00    +0.000 C 
ENDBRANCH  11  16
ENDBRANCH   7  12
ENDBRANCH   1   7
BRANCH   2  22
ATOM     22  C   UNL     1      36.417 -18.391 -20.926  0.00  0.00    +0.048 C 
BRANCH  22  23
ATOM     23  C   UNL     1      35.624 -18.115 -22.210  0.00  0.00    +0.094 C 
BRANCH  23  25
ATOM     24  O   UNL     1      34.409 -16.880 -24.500  0.00  0.00    -0.269 OA
ATOM     25  N   UNL     1      35.304 -16.722 -22.366  0.00  0.00    -0.300 N 
ATOM     26  C   UNL     1      34.714 -16.211 -23.516  0.00  0.00    +0.261 C 
ATOM     27  H   UNL     1      35.512 -16.104 -21.627  0.00  0.00    +0.150 HD
BRANCH  26  30
ATOM     28  N   UNL     1      34.812 -14.066 -22.418  0.00  0.00    -0.262 NA
ATOM     29  N   UNL     1      33.704 -12.790 -24.657  0.00  0.00    -0.270 NA
ATOM     30  C   UNL     1      34.472 -14.745 -23.531  0.00  0.00    +0.132 C 
ATOM     31  C   UNL     1      33.928 -14.119 -24.631  0.00  0.00    +0.174 C 
ATOM     32  C   UNL     1      34.043 -12.110 -23.544  0.00  0.00    +0.057 C 
ATOM     33  C   UNL     1      34.588 -12.737 -22.444  0.00  0.00    +0.166 C 
ATOM     34  C   UNL     1      33.810 -10.640 -23.538  0.00  0.00    +0.049 C 
ENDBRANCH  26  30
ENDBRANCH  23  25
ENDBRANCH  22  23
ENDBRANCH   2  22
TORSDOF 7
ENDMDL
MODEL 2
REMARK VINA RESULT:     -11.5      1.611      1.849
REMARK  Name = 3478
REMARK  7 active torsions:
REMARK  status: ('A' for Active; 'I' for Inactive)
REMARK    1  A    between atoms: C_1  and  S_7
REMARK    2  A    between atoms: C_2  and  C_22
REMARK    3  A    between atoms: S_7  and  N_12
REMARK    4  A    between atoms: N_11  and  C_16
REMARK    5  A    between atoms: C_22  and  C_23
REMARK    6  A    between atoms: C_23  and  N_25
REMARK    7  A    between atoms: C_26  and  C_30
REMARK                            x       y       z     vdW  Elec       q    Type
REMARK                         _______ _______ _______ _____ _____    ______ ____
ROOT
ATOM      1  C   UNL     1      34.177 -21.271 -18.446  0.00  0.00    +0.125 C 
ATOM      2  C   UNL     1      34.967 -19.344 -20.301  0.00  0.00    -0.020 C 
ATOM      3  C   UNL     1      35.532 -21.023 -18.661  0.00  0.00    +0.020 C 
ATOM      4  C   UNL     1      33.216 -20.555 -19.159  0.00  0.00    +0.020 C 
ATOM      5  C   UNL     1      35.928 -20.060 -19.589  0.00  0.00    -0.003 C 
ATOM      6  C   UNL     1      33.611 -19.591 -20.087  0.00  0.00    -0.003 C 
ENDROOT
BRANCH   1   7
ATOM      7  S   UNL     1      33.676 -22.492 -17.270  0.00  0.00    +0.077 S 
ATOM      8  O   UNL     1      33.773 -23.794 -17.902  0.00  0.00    -0.150 OA
ATOM      9  O   UNL     1      32.419 -22.040 -16.705  0.00  0.00    -0.150 OA
BRANCH   7  12
ATOM     10  O   UNL     1      33.874 -23.457 -14.325  0.00  0.00    -0.251 OA
ATOM     11  N   UNL     1      35.991 -22.574 -14.034  0.00  0.00    -0.289 N 
ATOM     12  N   UNL     1      34.909 -22.340 -16.096  0.00  0.00    -0.169 N 
ATOM     13  C   UNL     1      34.847 -22.846 -14.759  0.00  0.00    +0.319 C 
ATOM     14  H   UNL     1      36.718 -22.075 -14.475  0.00  0.00    +0.151 HD
ATOM     15  H   UNL     1      35.729 -21.864 -16.361  0.00  0.00    +0.178 HD
BRANCH  11  16
ATOM     16  C   UNL     1      36.169 -22.987 -12.661  0.00  0.00    +0.073 C 
ATOM     17  C   UNL     1      37.539 -22.552 -12.127  0.00  0.00    +0.020 C 
ATOM     18  C   UNL     1      35.969 -24.499 -12.510  0.00  0.00    +0.020 C 
ATOM     19  C   UNL     1      38.685 -23.361 -12.734  0.00  0.00    +0.002 C 
ATOM     20  C   UNL     1      37.118 -25.305 -13.116  0.00  0.00    +0.002 C 
ATOM     21  C   UNL     1      38.469 -24.862 -12.561  0.00  0.00    +0.000 C 
ENDBRANCH  11  16
ENDBRANCH   7  12
ENDBRANCH   1   7
BRANCH   2  22
ATOM     22  C   UNL     1      35.388 -18.313 -21.294  0.00  0.00    +0.048 C 
BRANCH  22  23
ATOM     23  C   UNL     1      36.033 -17.076 -20.656  0.00  0.00    +0.094 C 
BRANCH  23  25
ATOM     24  O   UNL     1      35.705 -14.966 -22.575  0.00  0.00    -0.269 OA
ATOM     25  N   UNL     1      35.120 -15.968 -20.567  0.00  0.00    -0.300 N 
ATOM     26  C   UNL     1      35.030 -14.989 -21.550  0.00  0.00    +0.261 C 
ATOM     27  H   UNL     1      34.534 -15.901 -19.778  0.00  0.00    +0.150 HD
BRANCH  26  30
ATOM     28  N   UNL     1      33.322 -13.992 -20.170  0.00  0.00    -0.262 NA
ATOM     29  N   UNL     1      33.036 -11.845 -21.953  0.00  0.00    -0.270 NA
ATOM     30  C   UNL     1      34.056 -13.897 -21.296  0.00  0.00    +0.132 C 
ATOM     31  C   UNL     1      33.916 -12.843 -22.172  0.00  0.00    +0.174 C 
ATOM     32  C   UNL     1      32.301 -11.940 -20.827  0.00  0.00    +0.057 C 
ATOM     33  C   UNL     1      32.442 -12.994 -19.951  0.00  0.00    +0.166 C 
ATOM     34  C   UNL     1      31.320 -10.855 -20.552  0.00  0.00    +0.049 C 
ENDBRANCH  26  30
ENDBRANCH  23  25
ENDBRANCH  22  23
ENDBRANCH   2  22
TORSDOF 7
ENDMDL
MODEL 3
REMARK VINA RESULT:     -11.4      1.653      2.109
REMARK  Name = 3478
REMARK  7 active torsions:
REMARK  status: ('A' for Active; 'I' for Inactive)
REMARK    1  A    between atoms: C_1  and  S_7
REMARK    2  A    between atoms: C_2  and  C_22
REMARK    3  A    between atoms: S_7  and  N_12
REMARK    4  A    between atoms: N_11  and  C_16
REMARK    5  A    between atoms: C_22  and  C_23
REMARK    6  A    between atoms: C_23  and  N_25
REMARK    7  A    between atoms: C_26  and  C_30
REMARK                            x       y       z     vdW  Elec       q    Type
REMARK                         _______ _______ _______ _____ _____    ______ ____
ROOT
ATOM      1  C   UNL     1      34.227 -21.424 -18.233  0.00  0.00    +0.125 C 
ATOM      2  C   UNL     1      34.976 -19.477 -20.085  0.00  0.00    -0.020 C 
ATOM      3  C   UNL     1      33.252 -20.730 -18.949  0.00  0.00    +0.020 C 
ATOM      4  C   UNL     1      35.577 -21.145 -18.443  0.00  0.00    +0.020 C 
ATOM      5  C   UNL     1      33.626 -19.756 -19.875  0.00  0.00    -0.003 C 
ATOM      6  C   UNL     1      35.952 -20.170 -19.369  0.00  0.00    -0.003 C 
ENDROOT
BRANCH   1   7
ATOM      7  S   UNL     1      33.753 -22.658 -17.060  0.00  0.00    +0.077 S 
ATOM      8  O   UNL     1      33.596 -23.915 -17.766  0.00  0.00    -0.150 OA
ATOM      9  O   UNL     1      32.655 -22.105 -16.290  0.00  0.00    -0.150 OA
BRANCH   7  12
ATOM     10  O   UNL     1      34.336 -24.107 -14.375  0.00  0.00    -0.251 OA
ATOM     11  N   UNL     1      36.510 -23.328 -14.270  0.00  0.00    -0.289 N 
ATOM     12  N   UNL     1      35.149 -22.730 -16.078  0.00  0.00    -0.169 N 
ATOM     13  C   UNL     1      35.261 -23.452 -14.847  0.00  0.00    +0.319 C 
ATOM     14  H   UNL     1      37.187 -22.777 -14.729  0.00  0.00    +0.151 HD
ATOM     15  H   UNL     1      35.943 -22.234 -16.384  0.00  0.00    +0.178 HD
BRANCH  11  16
ATOM     16  C   UNL     1      36.869 -23.969 -13.026  0.00  0.00    +0.073 C 
ATOM     17  C   UNL     1      38.175 -23.394 -12.465  0.00  0.00    +0.020 C 
ATOM     18  C   UNL     1      36.959 -25.489 -13.195  0.00  0.00    +0.020 C 
ATOM     19  C   UNL     1      39.398 -23.824 -13.276  0.00  0.00    +0.002 C 
ATOM     20  C   UNL     1      38.184 -25.916 -14.004  0.00  0.00    +0.002 C 
ATOM     21  C   UNL     1      39.472 -25.342 -13.421  0.00  0.00    +0.000 C 
ENDBRANCH  11  16
ENDBRANCH   7  12
ENDBRANCH   1   7
BRANCH   2  22
ATOM     22  C   UNL     1      35.377 -18.436 -21.075  0.00  0.00    +0.048 C 
BRANCH  22  23
ATOM     23  C   UNL     1      36.016 -17.196 -20.435  0.00  0.00    +0.094 C 
BRANCH  23  25
ATOM     24  O   UNL     1      35.772 -15.175 -22.459  0.00  0.00    -0.269 OA
ATOM     25  N   UNL     1      35.123 -16.068 -20.420  0.00  0.00    -0.300 N 
ATOM     26  C   UNL     1      35.075 -15.136 -21.449  0.00  0.00    +0.261 C 
ATOM     27  H   UNL     1      34.523 -15.952 -19.648  0.00  0.00    +0.150 HD
BRANCH  26  30
ATOM     28  N   UNL     1      33.371 -14.031 -20.149  0.00  0.00    -0.262 NA
ATOM     29  N   UNL     1      33.143 -11.986 -22.055  0.00  0.00    -0.270 NA
ATOM     30  C   UNL     1      34.118 -14.014 -21.270  0.00  0.00    +0.132 C 
ATOM     31  C   UNL     1      34.007 -13.009 -22.206  0.00  0.00    +0.174 C 
ATOM     32  C   UNL     1      32.394 -12.003 -20.934  0.00  0.00    +0.057 C 
ATOM     33  C   UNL     1      32.507 -13.008 -19.997  0.00  0.00    +0.166 C 
ATOM     34  C   UNL     1      31.429 -10.887 -20.733  0.00  0.00    +0.049 C 
ENDBRANCH  26  30
ENDBRANCH  23  25
ENDBRANCH  22  23
ENDBRANCH   2  22
TORSDOF 7
ENDMDL
MODEL 4
REMARK VINA RESULT:     -10.9      3.255      5.135
REMARK  Name = 3478
REMARK  7 active torsions:
REMARK  status: ('A' for Active; 'I' for Inactive)
REMARK    1  A    between atoms: C_1  and  S_7
REMARK    2  A    between atoms: C_2  and  C_22
REMARK    3  A    between atoms: S_7  and  N_12
REMARK    4  A    between atoms: N_11  and  C_16
REMARK    5  A    between atoms: C_22  and  C_23
REMARK    6  A    between atoms: C_23  and  N_25
REMARK    7  A    between atoms: C_26  and  C_30
REMARK                            x       y       z     vdW  Elec       q    Type
REMARK                         _______ _______ _______ _____ _____    ______ ____
ROOT
ATOM      1  C   UNL     1      36.046 -22.831 -14.982  0.00  0.00    +0.125 C 
ATOM      2  C   UNL     1      36.585 -21.210 -17.187  0.00  0.00    -0.020 C 
ATOM      3  C   UNL     1      35.048 -22.577 -15.923  0.00  0.00    +0.020 C 
ATOM      4  C   UNL     1      37.314 -22.274 -15.143  0.00  0.00    +0.020 C 
ATOM      5  C   UNL     1      35.317 -21.767 -17.025  0.00  0.00    -0.003 C 
ATOM      6  C   UNL     1      37.583 -21.463 -16.246  0.00  0.00    -0.003 C 
ENDROOT
BRANCH   1   7
ATOM      7  S   UNL     1      35.704 -23.859 -13.585  0.00  0.00    +0.077 S 
ATOM      8  O   UNL     1      35.716 -23.025 -12.398  0.00  0.00    -0.150 OA
ATOM      9  O   UNL     1      36.581 -25.009 -13.685  0.00  0.00    -0.150 OA
BRANCH   7  12
ATOM     10  O   UNL     1      32.957 -22.724 -12.682  0.00  0.00    -0.251 OA
ATOM     11  N   UNL     1      31.760 -24.317 -13.855  0.00  0.00    -0.289 N 
ATOM     12  N   UNL     1      34.099 -24.343 -13.920  0.00  0.00    -0.169 N 
ATOM     13  C   UNL     1      32.920 -23.707 -13.417  0.00  0.00    +0.319 C 
ATOM     14  H   UNL     1      31.837 -25.103 -14.444  0.00  0.00    +0.151 HD
ATOM     15  H   UNL     1      33.976 -25.124 -14.506  0.00  0.00    +0.178 HD
BRANCH  11  16
ATOM     16  C   UNL     1      30.441 -23.856 -13.488  0.00  0.00    +0.073 C 
ATOM     17  C   UNL     1      29.355 -24.761 -14.078  0.00  0.00    +0.020 C 
ATOM     18  C   UNL     1      30.233 -22.395 -13.903  0.00  0.00    +0.020 C 
ATOM     19  C   UNL     1      29.214 -24.594 -15.591  0.00  0.00    +0.002 C 
ATOM     20  C   UNL     1      30.091 -22.232 -15.416  0.00  0.00    +0.002 C 
ATOM     21  C   UNL     1      28.997 -23.135 -15.979  0.00  0.00    +0.000 C 
ENDBRANCH  11  16
ENDBRANCH   7  12
ENDBRANCH   1   7
BRANCH   2  22
ATOM     22  C   UNL     1      36.875 -20.343 -18.366  0.00  0.00    +0.048 C 
BRANCH  22  23
ATOM     23  C   UNL     1      35.763 -20.356 -19.423  0.00  0.00    +0.094 C 
BRANCH  23  25
ATOM     24  O   UNL     1      37.383 -18.487 -20.881  0.00  0.00    -0.269 OA
ATOM     25  N   UNL     1      35.386 -19.030 -19.834  0.00  0.00    -0.300 N 
ATOM     26  C   UNL     1      36.240 -18.192 -20.540  0.00  0.00    +0.261 C 
ATOM     27  H   UNL     1      34.485 -18.703 -19.605  0.00  0.00    +0.150 HD
BRANCH  26  30
ATOM     28  N   UNL     1      35.272 -16.100 -19.832  0.00  0.00    -0.262 NA
ATOM     29  N   UNL     1      35.195 -15.161 -22.474  0.00  0.00    -0.270 NA
ATOM     30  C   UNL     1      35.710 -16.843 -20.867  0.00  0.00    +0.132 C 
ATOM     31  C   UNL     1      35.673 -16.382 -22.165  0.00  0.00    +0.174 C 
ATOM     32  C   UNL     1      34.755 -14.417 -21.440  0.00  0.00    +0.057 C 
ATOM     33  C   UNL     1      34.793 -14.878 -20.142  0.00  0.00    +0.166 C 
ATOM     34  C   UNL     1      34.221 -13.061 -21.745  0.00  0.00    +0.049 C 
ENDBRANCH  26  30
ENDBRANCH  23  25
ENDBRANCH  22  23
ENDBRANCH   2  22
TORSDOF 7
ENDMDL
MODEL 5
REMARK VINA RESULT:     -10.9      2.691      3.929
REMARK  Name = 3478
REMARK  7 active torsions:
REMARK  status: ('A' for Active; 'I' for Inactive)
REMARK    1  A    between atoms: C_1  and  S_7
REMARK    2  A    between atoms: C_2  and  C_22
REMARK    3  A    between atoms: S_7  and  N_12
REMARK    4  A    between atoms: N_11  and  C_16
REMARK    5  A    between atoms: C_22  and  C_23
REMARK    6  A    between atoms: C_23  and  N_25
REMARK    7  A    between atoms: C_26  and  C_30
REMARK                            x       y       z     vdW  Elec       q    Type
REMARK                         _______ _______ _______ _____ _____    ______ ____
ROOT
ATOM      1  C   UNL     1      32.599 -22.987 -14.975  0.00  0.00    +0.125 C 
ATOM      2  C   UNL     1      33.022 -21.919 -17.517  0.00  0.00    -0.020 C 
ATOM      3  C   UNL     1      33.879 -22.990 -15.530  0.00  0.00    +0.020 C 
ATOM      4  C   UNL     1      31.530 -22.450 -15.691  0.00  0.00    +0.020 C 
ATOM      5  C   UNL     1      34.090 -22.457 -16.801  0.00  0.00    -0.003 C 
ATOM      6  C   UNL     1      31.741 -21.917 -16.964  0.00  0.00    -0.003 C 
ENDROOT
BRANCH   1   7
ATOM      7  S   UNL     1      32.331 -23.663 -13.364  0.00  0.00    +0.077 S 
ATOM      8  O   UNL     1      31.259 -24.635 -13.455  0.00  0.00    -0.150 OA
ATOM      9  O   UNL     1      32.232 -22.542 -12.450  0.00  0.00    -0.150 OA
BRANCH   7  12
ATOM     10  O   UNL     1      35.062 -22.701 -12.240  0.00  0.00    -0.251 OA
ATOM     11  N   UNL     1      36.044 -24.781 -12.467  0.00  0.00    -0.289 N 
ATOM     12  N   UNL     1      33.812 -24.476 -13.100  0.00  0.00    -0.169 N 
ATOM     13  C   UNL     1      35.000 -23.882 -12.568  0.00  0.00    +0.319 C 
ATOM     14  H   UNL     1      35.893 -25.710 -12.758  0.00  0.00    +0.151 HD
ATOM     15  H   UNL     1      33.850 -25.432 -13.334  0.00  0.00    +0.178 HD
BRANCH  11  16
ATOM     16  C   UNL     1      37.346 -24.421 -11.953  0.00  0.00    +0.073 C 
ATOM     17  C   UNL     1      37.904 -23.191 -12.678  0.00  0.00    +0.020 C 
ATOM     18  C   UNL     1      38.317 -25.603 -12.037  0.00  0.00    +0.020 C 
ATOM     19  C   UNL     1      38.331 -23.502 -14.112  0.00  0.00    +0.002 C 
ATOM     20  C   UNL     1      38.743 -25.910 -13.472  0.00  0.00    +0.002 C 
ATOM     21  C   UNL     1      39.306 -24.674 -14.169  0.00  0.00    +0.000 C 
ENDBRANCH  11  16
ENDBRANCH   7  12
ENDBRANCH   1   7
BRANCH   2  22
ATOM     22  C   UNL     1      33.247 -21.348 -18.877  0.00  0.00    +0.048 C 
BRANCH  22  23
ATOM     23  C   UNL     1      34.494 -20.460 -18.969  0.00  0.00    +0.094 C 
BRANCH  23  25
ATOM     24  O   UNL     1      36.576 -18.686 -19.840  0.00  0.00    -0.269 OA
ATOM     25  N   UNL     1      34.444 -19.564 -20.093  0.00  0.00    -0.300 N 
ATOM     26  C   UNL     1      35.506 -18.738 -20.441  0.00  0.00    +0.261 C 
ATOM     27  H   UNL     1      33.624 -19.535 -20.638  0.00  0.00    +0.150 HD
BRANCH  26  30
ATOM     28  N   UNL     1      34.769 -18.426 -22.716  0.00  0.00    -0.262 NA
ATOM     29  N   UNL     1      35.405 -15.695 -22.622  0.00  0.00    -0.270 NA
ATOM     30  C   UNL     1      35.287 -17.851 -21.613  0.00  0.00    +0.132 C 
ATOM     31  C   UNL     1      35.599 -16.510 -21.566  0.00  0.00    +0.174 C 
ATOM     32  C   UNL     1      34.887 -16.269 -23.726  0.00  0.00    +0.057 C 
ATOM     33  C   UNL     1      34.575 -17.611 -23.772  0.00  0.00    +0.166 C 
ATOM     34  C   UNL     1      34.658 -15.398 -24.912  0.00  0.00    +0.049 C 
ENDBRANCH  26  30
ENDBRANCH  23  25
ENDBRANCH  22  23
ENDBRANCH   2  22
TORSDOF 7
ENDMDL
MODEL 6
REMARK VINA RESULT:     -10.6      3.561     11.173
REMARK  Name = 3478
REMARK  7 active torsions:
REMARK  status: ('A' for Active; 'I' for Inactive)
REMARK    1  A    between atoms: C_1  and  S_7
REMARK    2  A    between atoms: C_2  and  C_22
REMARK    3  A    between atoms: S_7  and  N_12
REMARK    4  A    between atoms: N_11  and  C_16
REMARK    5  A    between atoms: C_22  and  C_23
REMARK    6  A    between atoms: C_23  and  N_25
REMARK    7  A    between atoms: C_26  and  C_30
REMARK                            x       y       z     vdW  Elec       q    Type
REMARK                         _______ _______ _______ _____ _____    ______ ____
ROOT
ATOM      1  C   UNL     1      34.746 -16.945 -23.383  0.00  0.00    +0.125 C 
ATOM      2  C   UNL     1      35.625 -18.470 -21.219  0.00  0.00    -0.020 C 
ATOM      3  C   UNL     1      35.652 -16.405 -22.470  0.00  0.00    +0.020 C 
ATOM      4  C   UNL     1      34.279 -18.248 -23.214  0.00  0.00    +0.020 C 
ATOM      5  C   UNL     1      36.092 -17.167 -21.388  0.00  0.00    -0.003 C 
ATOM      6  C   UNL     1      34.719 -19.011 -22.131  0.00  0.00    -0.003 C 
ENDROOT
BRANCH   1   7
ATOM      7  S   UNL     1      34.189 -15.978 -24.754  0.00  0.00    +0.077 S 
ATOM      8  O   UNL     1      33.233 -16.769 -25.505  0.00  0.00    -0.150 OA
ATOM      9  O   UNL     1      35.374 -15.447 -25.401  0.00  0.00    -0.150 OA
BRANCH   7  12
ATOM     10  O   UNL     1      35.184 -13.737 -22.848  0.00  0.00    -0.251 OA
ATOM     11  N   UNL     1      33.071 -12.840 -22.579  0.00  0.00    -0.289 N 
ATOM     12  N   UNL     1      33.370 -14.712 -23.950  0.00  0.00    -0.169 N 
ATOM     13  C   UNL     1      33.980 -13.745 -23.089  0.00  0.00    +0.319 C 
ATOM     14  H   UNL     1      32.124 -12.931 -22.833  0.00  0.00    +0.151 HD
ATOM     15  H   UNL     1      32.398 -14.642 -24.091  0.00  0.00    +0.178 HD
BRANCH  11  16
ATOM     16  C   UNL     1      33.446 -11.765 -21.688  0.00  0.00    +0.073 C 
ATOM     17  C   UNL     1      33.440 -12.230 -20.228  0.00  0.00    +0.020 C 
ATOM     18  C   UNL     1      32.540 -10.544 -21.886  0.00  0.00    +0.020 C 
ATOM     19  C   UNL     1      32.026 -12.454 -19.692  0.00  0.00    +0.002 C 
ATOM     20  C   UNL     1      31.128 -10.771 -21.348  0.00  0.00    +0.002 C 
ATOM     21  C   UNL     1      31.147 -11.222 -19.890  0.00  0.00    +0.000 C 
ENDBRANCH  11  16
ENDBRANCH   7  12
ENDBRANCH   1   7
BRANCH   2  22
ATOM     22  C   UNL     1      36.095 -19.287 -20.063  0.00  0.00    +0.048 C 
BRANCH  22  23
ATOM     23  C   UNL     1      35.714 -20.769 -20.165  0.00  0.00    +0.094 C 
BRANCH  23  25
ATOM     24  O   UNL     1      32.923 -21.201 -19.646  0.00  0.00    -0.269 OA
ATOM     25  N   UNL     1      35.134 -21.270 -18.947  0.00  0.00    -0.300 N 
ATOM     26  C   UNL     1      33.765 -21.447 -18.786  0.00  0.00    +0.261 C 
ATOM     27  H   UNL     1      35.732 -21.495 -18.197  0.00  0.00    +0.150 HD
BRANCH  26  30
ATOM     28  N   UNL     1      32.002 -21.886 -17.200  0.00  0.00    -0.262 NA
ATOM     29  N   UNL     1      33.835 -22.904 -15.337  0.00  0.00    -0.270 NA
ATOM     30  C   UNL     1      33.323 -21.947 -17.458  0.00  0.00    +0.132 C 
ATOM     31  C   UNL     1      34.224 -22.447 -16.544  0.00  0.00    +0.174 C 
ATOM     32  C   UNL     1      32.514 -22.843 -15.077  0.00  0.00    +0.057 C 
ATOM     33  C   UNL     1      31.613 -22.343 -15.993  0.00  0.00    +0.166 C 
ATOM     34  C   UNL     1      32.049 -23.340 -13.753  0.00  0.00    +0.049 C 
ENDBRANCH  26  30
ENDBRANCH  23  25
ENDBRANCH  22  23
ENDBRANCH   2  22
TORSDOF 7
ENDMDL
MODEL 7
REMARK VINA RESULT:     -10.6      3.576     12.278
REMARK  Name = 3478
REMARK  7 active torsions:
REMARK  status: ('A' for Active; 'I' for Inactive)
REMARK    1  A    between atoms: C_1  and  S_7
REMARK    2  A    between atoms: C_2  and  C_22
REMARK    3  A    between atoms: S_7  and  N_12
REMARK    4  A    between atoms: N_11  and  C_16
REMARK    5  A    between atoms: C_22  and  C_23
REMARK    6  A    between atoms: C_23  and  N_25
REMARK    7  A    between atoms: C_26  and  C_30
REMARK                            x       y       z     vdW  Elec       q    Type
REMARK                         _______ _______ _______ _____ _____    ______ ____
ROOT
ATOM      1  C   UNL     1      34.860 -16.600 -23.187  0.00  0.00    +0.125 C 
ATOM      2  C   UNL     1      35.604 -18.178 -21.012  0.00  0.00    -0.020 C 
ATOM      3  C   UNL     1      35.317 -16.000 -22.014  0.00  0.00    +0.020 C 
ATOM      4  C   UNL     1      34.775 -17.989 -23.274  0.00  0.00    +0.020 C 
ATOM      5  C   UNL     1      35.688 -16.789 -20.926  0.00  0.00    -0.003 C 
ATOM      6  C   UNL     1      35.147 -18.779 -22.185  0.00  0.00    -0.003 C 
ENDROOT
BRANCH   1   7
ATOM      7  S   UNL     1      34.389 -15.599 -24.567  0.00  0.00    +0.077 S 
ATOM      8  O   UNL     1      33.023 -15.934 -24.921  0.00  0.00    -0.150 OA
ATOM      9  O   UNL     1      35.452 -15.710 -25.548  0.00  0.00    -0.150 OA
BRANCH   7  12
ATOM     10  O   UNL     1      33.319 -12.853 -25.547  0.00  0.00    -0.251 OA
ATOM     11  N   UNL     1      34.062 -11.738 -23.664  0.00  0.00    -0.289 N 
ATOM     12  N   UNL     1      34.428 -14.040 -23.868  0.00  0.00    -0.169 N 
ATOM     13  C   UNL     1      33.883 -12.854 -24.457  0.00  0.00    +0.319 C 
ATOM     14  H   UNL     1      34.529 -11.843 -22.803  0.00  0.00    +0.151 HD
ATOM     15  H   UNL     1      34.861 -13.950 -22.989  0.00  0.00    +0.178 HD
BRANCH  11  16
ATOM     16  C   UNL     1      33.595 -10.423 -24.039  0.00  0.00    +0.073 C 
ATOM     17  C   UNL     1      33.855 -10.148 -25.525  0.00  0.00    +0.020 C 
ATOM     18  C   UNL     1      34.225  -9.341 -23.156  0.00  0.00    +0.020 C 
ATOM     19  C   UNL     1      35.337  -9.931 -25.828  0.00  0.00    +0.002 C 
ATOM     20  C   UNL     1      35.707  -9.125 -23.463  0.00  0.00    +0.002 C 
ATOM     21  C   UNL     1      35.939  -8.843 -24.944  0.00  0.00    +0.000 C 
ENDBRANCH  11  16
ENDBRANCH   7  12
ENDBRANCH   1   7
BRANCH   2  22
ATOM     22  C   UNL     1      36.001 -19.023 -19.848  0.00  0.00    +0.048 C 
BRANCH  22  23
ATOM     23  C   UNL     1      35.661 -20.508 -20.025  0.00  0.00    +0.094 C 
BRANCH  23  25
ATOM     24  O   UNL     1      32.884 -21.122 -19.632  0.00  0.00    -0.269 OA
ATOM     25  N   UNL     1      35.066 -21.077 -18.846  0.00  0.00    -0.300 N 
ATOM     26  C   UNL     1      33.705 -21.340 -18.745  0.00  0.00    +0.261 C 
ATOM     27  H   UNL     1      35.646 -21.287 -18.078  0.00  0.00    +0.150 HD
BRANCH  26  30
ATOM     28  N   UNL     1      31.915 -21.879 -17.221  0.00  0.00    -0.262 NA
ATOM     29  N   UNL     1      33.725 -22.937 -15.358  0.00  0.00    -0.270 NA
ATOM     30  C   UNL     1      33.243 -21.903 -17.450  0.00  0.00    +0.132 C 
ATOM     31  C   UNL     1      34.132 -22.423 -16.535  0.00  0.00    +0.174 C 
ATOM     32  C   UNL     1      32.398 -22.912 -15.127  0.00  0.00    +0.057 C 
ATOM     33  C   UNL     1      31.508 -22.393 -16.043  0.00  0.00    +0.166 C 
ATOM     34  C   UNL     1      31.912 -23.473 -13.836  0.00  0.00    +0.049 C 
ENDBRANCH  26  30
ENDBRANCH  23  25
ENDBRANCH  22  23
ENDBRANCH   2  22
TORSDOF 7
ENDMDL
MODEL 8
REMARK VINA RESULT:     -10.5      3.130     11.389
REMARK  Name = 3478
REMARK  7 active torsions:
REMARK  status: ('A' for Active; 'I' for Inactive)
REMARK    1  A    between atoms: C_1  and  S_7
REMARK    2  A    between atoms: C_2  and  C_22
REMARK    3  A    between atoms: S_7  and  N_12
REMARK    4  A    between atoms: N_11  and  C_16
REMARK    5  A    between atoms: C_22  and  C_23
REMARK    6  A    between atoms: C_23  and  N_25
REMARK    7  A    between atoms: C_26  and  C_30
REMARK                            x       y       z     vdW  Elec       q    Type
REMARK                         _______ _______ _______ _____ _____    ______ ____
ROOT
ATOM      1  C   UNL     1      34.709 -16.601 -23.455  0.00  0.00    +0.125 C 
ATOM      2  C   UNL     1      35.601 -18.224 -21.369  0.00  0.00    -0.020 C 
ATOM      3  C   UNL     1      35.346 -16.033 -22.352  0.00  0.00    +0.020 C 
ATOM      4  C   UNL     1      34.517 -17.981 -23.515  0.00  0.00    +0.020 C 
ATOM      5  C   UNL     1      35.792 -16.844 -21.309  0.00  0.00    -0.003 C 
ATOM      6  C   UNL     1      34.963 -18.793 -22.471  0.00  0.00    -0.003 C 
ENDROOT
BRANCH   1   7
ATOM      7  S   UNL     1      34.144 -15.572 -24.777  0.00  0.00    +0.077 S 
ATOM      8  O   UNL     1      33.222 -16.344 -25.587  0.00  0.00    -0.150 OA
ATOM      9  O   UNL     1      35.322 -14.972 -25.373  0.00  0.00    -0.150 OA
BRANCH   7  12
ATOM     10  O   UNL     1      35.067 -13.311 -22.859  0.00  0.00    -0.251 OA
ATOM     11  N   UNL     1      32.913 -12.557 -22.491  0.00  0.00    -0.289 N 
ATOM     12  N   UNL     1      33.278 -14.378 -23.915  0.00  0.00    -0.169 N 
ATOM     13  C   UNL     1      33.858 -13.391 -23.056  0.00  0.00    +0.319 C 
ATOM     14  H   UNL     1      31.964 -12.704 -22.713  0.00  0.00    +0.151 HD
ATOM     15  H   UNL     1      32.298 -14.368 -24.018  0.00  0.00    +0.178 HD
BRANCH  11  16
ATOM     16  C   UNL     1      33.253 -11.478 -21.591  0.00  0.00    +0.073 C 
ATOM     17  C   UNL     1      33.152 -11.927 -20.129  0.00  0.00    +0.020 C 
ATOM     18  C   UNL     1      32.381 -10.246 -21.855  0.00  0.00    +0.020 C 
ATOM     19  C   UNL     1      31.705 -12.121 -19.676  0.00  0.00    +0.002 C 
ATOM     20  C   UNL     1      30.936 -10.442 -21.399  0.00  0.00    +0.002 C 
ATOM     21  C   UNL     1      30.861 -10.877 -19.939  0.00  0.00    +0.000 C 
ENDBRANCH  11  16
ENDBRANCH   7  12
ENDBRANCH   1   7
BRANCH   2  22
ATOM     22  C   UNL     1      36.077 -19.092 -20.254  0.00  0.00    +0.048 C 
BRANCH  22  23
ATOM     23  C   UNL     1      35.556 -20.533 -20.334  0.00  0.00    +0.094 C 
BRANCH  23  25
ATOM     24  O   UNL     1      33.046 -21.530 -19.359  0.00  0.00    -0.269 OA
ATOM     25  N   UNL     1      35.302 -21.095 -19.035  0.00  0.00    -0.300 N 
ATOM     26  C   UNL     1      34.048 -21.554 -18.649  0.00  0.00    +0.261 C 
ATOM     27  H   UNL     1      36.046 -21.156 -18.393  0.00  0.00    +0.150 HD
BRANCH  26  30
ATOM     28  N   UNL     1      35.099 -22.232 -16.587  0.00  0.00    -0.262 NA
ATOM     29  N   UNL     1      32.616 -22.877 -15.451  0.00  0.00    -0.270 NA
ATOM     30  C   UNL     1      33.943 -22.082 -17.264  0.00  0.00    +0.132 C 
ATOM     31  C   UNL     1      32.724 -22.398 -16.707  0.00  0.00    +0.174 C 
ATOM     32  C   UNL     1      33.771 -23.029 -14.774  0.00  0.00    +0.057 C 
ATOM     33  C   UNL     1      34.991 -22.711 -15.331  0.00  0.00    +0.166 C 
ATOM     34  C   UNL     1      33.690 -23.555 -13.383  0.00  0.00    +0.049 C 
ENDBRANCH  26  30
ENDBRANCH  23  25
ENDBRANCH  22  23
ENDBRANCH   2  22
TORSDOF 7
ENDMDL
MODEL 9
REMARK VINA RESULT:     -10.5      2.759     12.614
REMARK  Name = 3478
REMARK  7 active torsions:
REMARK  status: ('A' for Active; 'I' for Inactive)
REMARK    1  A    between atoms: C_1  and  S_7
REMARK    2  A    between atoms: C_2  and  C_22
REMARK    3  A    between atoms: S_7  and  N_12
REMARK    4  A    between atoms: N_11  and  C_16
REMARK    5  A    between atoms: C_22  and  C_23
REMARK    6  A    between atoms: C_23  and  N_25
REMARK    7  A    between atoms: C_26  and  C_30
REMARK                            x       y       z     vdW  Elec       q    Type
REMARK                         _______ _______ _______ _____ _____    ______ ____
ROOT
ATOM      1  C   UNL     1      34.802 -16.160 -23.446  0.00  0.00    +0.125 C 
ATOM      2  C   UNL     1      35.809 -17.514 -21.225  0.00  0.00    -0.020 C 
ATOM      3  C   UNL     1      35.168 -15.450 -22.302  0.00  0.00    +0.020 C 
ATOM      4  C   UNL     1      34.940 -17.547 -23.479  0.00  0.00    +0.020 C 
ATOM      5  C   UNL     1      35.670 -16.127 -21.192  0.00  0.00    -0.003 C 
ATOM      6  C   UNL     1      35.443 -18.225 -22.367  0.00  0.00    -0.003 C 
ENDROOT
BRANCH   1   7
ATOM      7  S   UNL     1      34.164 -15.302 -24.854  0.00  0.00    +0.077 S 
ATOM      8  O   UNL     1      32.810 -15.765 -25.089  0.00  0.00    -0.150 OA
ATOM      9  O   UNL     1      35.168 -15.404 -25.896  0.00  0.00    -0.150 OA
BRANCH   7  12
ATOM     10  O   UNL     1      33.829 -12.570 -26.292  0.00  0.00    -0.251 OA
ATOM     11  N   UNL     1      33.963 -11.364 -24.324  0.00  0.00    -0.289 N 
ATOM     12  N   UNL     1      34.121 -13.698 -24.267  0.00  0.00    -0.169 N 
ATOM     13  C   UNL     1      33.960 -12.525 -25.072  0.00  0.00    +0.319 C 
ATOM     14  H   UNL     1      34.074 -11.434 -23.348  0.00  0.00    +0.151 HD
ATOM     15  H   UNL     1      34.216 -13.569 -23.296  0.00  0.00    +0.178 HD
BRANCH  11  16
ATOM     16  C   UNL     1      33.810 -10.051 -24.909  0.00  0.00    +0.073 C 
ATOM     17  C   UNL     1      35.134  -9.553 -25.500  0.00  0.00    +0.020 C 
ATOM     18  C   UNL     1      33.248  -9.055 -23.889  0.00  0.00    +0.020 C 
ATOM     19  C   UNL     1      36.150  -9.178 -24.422  0.00  0.00    +0.002 C 
ATOM     20  C   UNL     1      34.267  -8.681 -22.813  0.00  0.00    +0.002 C 
ATOM     21  C   UNL     1      35.571  -8.178 -23.425  0.00  0.00    +0.000 C 
ENDBRANCH  11  16
ENDBRANCH   7  12
ENDBRANCH   1   7
BRANCH   2  22
ATOM     22  C   UNL     1      36.347 -18.238 -20.037  0.00  0.00    +0.048 C 
BRANCH  22  23
ATOM     23  C   UNL     1      35.918 -19.710 -19.971  0.00  0.00    +0.094 C 
BRANCH  23  25
ATOM     24  O   UNL     1      34.293 -21.351 -18.265  0.00  0.00    -0.269 OA
ATOM     25  N   UNL     1      36.326 -20.344 -18.746  0.00  0.00    -0.300 N 
ATOM     26  C   UNL     1      35.466 -21.124 -17.982  0.00  0.00    +0.261 C 
ATOM     27  H   UNL     1      37.253 -20.219 -18.436  0.00  0.00    +0.150 HD
BRANCH  26  30
ATOM     28  N   UNL     1      35.292 -22.617 -16.096  0.00  0.00    -0.262 NA
ATOM     29  N   UNL     1      37.783 -21.778 -15.114  0.00  0.00    -0.270 NA
ATOM     30  C   UNL     1      36.034 -21.687 -16.730  0.00  0.00    +0.132 C 
ATOM     31  C   UNL     1      37.257 -21.275 -16.248  0.00  0.00    +0.174 C 
ATOM     32  C   UNL     1      37.041 -22.708 -14.478  0.00  0.00    +0.057 C 
ATOM     33  C   UNL     1      35.818 -23.120 -14.961  0.00  0.00    +0.166 C 
ATOM     34  C   UNL     1      37.592 -23.287 -13.222  0.00  0.00    +0.049 C 
ENDBRANCH  26  30
ENDBRANCH  23  25
ENDBRANCH  22  23
ENDBRANCH   2  22
TORSDOF 7
ENDMDL
