MODEL 1
REMARK VINA RESULT:     -13.0      0.000      0.000
REMARK  Name = 446399
REMARK  4 active torsions:
REMARK  status: ('A' for Active; 'I' for Inactive)
REMARK    1  A    between atoms: N_3  and  S_21
REMARK    2  A    between atoms: C_4  and  C_10
REMARK    3  A    between atoms: N_9  and  C_16
REMARK    4  A    between atoms: S_21  and  C_25
REMARK                            x       y       z     vdW  Elec       q    Type
REMARK                         _______ _______ _______ _____ _____    ______ ____
ROOT
ATOM      1  O   UNL     1      34.355 -14.609 -24.361  0.00  0.00    -0.275 OA
ATOM      2  N   UNL     1      34.349 -13.349 -22.410  0.00  0.00    -0.277 N 
ATOM      3  N   UNL     1      32.865 -11.495 -20.844  0.00  0.00    -0.152 NA
ATOM      4  C   UNL     1      34.638 -14.484 -23.167  0.00  0.00    +0.225 C 
ATOM      5  C   UNL     1      34.671 -13.168 -20.989  0.00  0.00    +0.113 C 
ATOM      6  C   UNL     1      33.733 -12.183 -23.044  0.00  0.00    +0.113 C 
ATOM      7  C   UNL     1      33.439 -12.720 -20.209  0.00  0.00    +0.117 C 
ATOM      8  C   UNL     1      32.497 -11.735 -22.272  0.00  0.00    +0.117 C 
ENDROOT
BRANCH   4  10
ATOM      9  N   UNL     1      35.257 -18.059 -20.923  0.00  0.00    -0.307 N 
ATOM     10  C   UNL     1      35.338 -15.612 -22.452  0.00  0.00    +0.080 C 
ATOM     11  C   UNL     1      34.951 -16.940 -23.096  0.00  0.00    +0.031 C 
ATOM     12  C   UNL     1      34.953 -15.615 -20.974  0.00  0.00    +0.031 C 
ATOM     13  C   UNL     1      35.572 -18.124 -22.355  0.00  0.00    +0.091 C 
ATOM     14  C   UNL     1      35.580 -16.798 -20.240  0.00  0.00    +0.091 C 
BRANCH   9  16
ATOM     15  N   UNL     1      35.341 -21.593 -18.616  0.00  0.00    -0.242 NA
ATOM     16  C   UNL     1      35.285 -19.232 -20.158  0.00  0.00    +0.051 C 
ATOM     17  C   UNL     1      34.102 -19.915 -19.839  0.00  0.00    +0.035 C 
ATOM     18  C   UNL     1      36.497 -19.759 -19.686  0.00  0.00    +0.035 C 
ATOM     19  C   UNL     1      34.183 -21.071 -19.078  0.00  0.00    +0.100 C 
ATOM     20  C   UNL     1      36.471 -20.922 -18.934  0.00  0.00    +0.100 C 
ENDBRANCH   9  16
ENDBRANCH   4  10
BRANCH   3  21
ATOM     21  S   UNL     1      31.687 -10.670 -19.913  0.00  0.00    +0.063 S 
ATOM     22  O   UNL     1      32.067 -10.719 -18.519  0.00  0.00    -0.153 OA
ATOM     23  O   UNL     1      30.371 -11.091 -20.343  0.00  0.00    -0.153 OA
BRANCH  21  25
ATOM     24 CL   UNL     1      32.544  -3.173 -23.754  0.00  0.00    -0.082 Cl
ATOM     25  C   UNL     1      31.943  -9.020 -20.486  0.00  0.00    +0.122 C 
ATOM     26  C   UNL     1      31.690  -8.717 -21.813  0.00  0.00    +0.020 C 
ATOM     27  C   UNL     1      32.392  -8.059 -19.599  0.00  0.00    +0.020 C 
ATOM     28  C   UNL     1      31.889  -7.408 -22.285  0.00  0.00    +0.001 C 
ATOM     29  C   UNL     1      32.348  -6.413 -21.390  0.00  0.00    +0.001 C 
ATOM     30  C   UNL     1      32.594  -6.754 -20.051  0.00  0.00    +0.001 C 
ATOM     31  C   UNL     1      31.642  -7.067 -23.625  0.00  0.00    +0.001 C 
ATOM     32  C   UNL     1      32.546  -5.104 -21.861  0.00  0.00    +0.011 C 
ATOM     33  C   UNL     1      31.846  -5.762 -24.076  0.00  0.00    +0.011 C 
ATOM     34  C   UNL     1      32.297  -4.783 -23.195  0.00  0.00    +0.058 C 
ENDBRANCH  21  25
ENDBRANCH   3  21
TORSDOF 4
ENDMDL
MODEL 2
REMARK VINA RESULT:     -12.8      4.566     11.471
REMARK  Name = 446399
REMARK  4 active torsions:
REMARK  status: ('A' for Active; 'I' for Inactive)
REMARK    1  A    between atoms: N_3  and  S_21
REMARK    2  A    between atoms: C_4  and  C_10
REMARK    3  A    between atoms: N_9  and  C_16
REMARK    4  A    between atoms: S_21  and  C_25
REMARK                            x       y       z     vdW  Elec       q    Type
REMARK                         _______ _______ _______ _____ _____    ______ ____
ROOT
ATOM      1  O   UNL     1      33.484 -13.019 -25.131  0.00  0.00    -0.275 OA
ATOM      2  N   UNL     1      33.923 -14.399 -23.315  0.00  0.00    -0.277 N 
ATOM      3  N   UNL     1      35.232 -16.777 -22.465  0.00  0.00    -0.152 NA
ATOM      4  C   UNL     1      33.727 -13.163 -23.930  0.00  0.00    +0.225 C 
ATOM      5  C   UNL     1      34.214 -14.605 -21.892  0.00  0.00    +0.113 C 
ATOM      6  C   UNL     1      33.774 -15.633 -24.088  0.00  0.00    +0.113 C 
ATOM      7  C   UNL     1      35.436 -15.502 -21.715  0.00  0.00    +0.117 C 
ATOM      8  C   UNL     1      34.995 -16.529 -23.920  0.00  0.00    +0.117 C 
ENDROOT
BRANCH   4  10
ATOM      9  N   UNL     1      32.858  -9.365 -22.194  0.00  0.00    -0.307 N 
ATOM     10  C   UNL     1      33.829 -11.946 -23.046  0.00  0.00    +0.080 C 
ATOM     11  C   UNL     1      32.551 -11.808 -22.222  0.00  0.00    +0.031 C 
ATOM     12  C   UNL     1      34.040 -10.696 -23.896  0.00  0.00    +0.031 C 
ATOM     13  C   UNL     1      32.570 -10.541 -21.367  0.00  0.00    +0.091 C 
ATOM     14  C   UNL     1      34.062  -9.435 -23.035  0.00  0.00    +0.091 C 
BRANCH   9  16
ATOM     15  N   UNL     1      31.636  -5.548 -20.868  0.00  0.00    -0.242 NA
ATOM     16  C   UNL     1      32.453  -8.098 -21.754  0.00  0.00    +0.051 C 
ATOM     17  C   UNL     1      32.655  -7.695 -20.426  0.00  0.00    +0.035 C 
ATOM     18  C   UNL     1      31.831  -7.194 -22.629  0.00  0.00    +0.035 C 
ATOM     19  C   UNL     1      32.236  -6.431 -20.040  0.00  0.00    +0.100 C 
ATOM     20  C   UNL     1      31.449  -5.953 -22.145  0.00  0.00    +0.100 C 
ENDBRANCH   9  16
ENDBRANCH   4  10
BRANCH   3  21
ATOM     21  S   UNL     1      36.350 -18.025 -22.108  0.00  0.00    +0.063 S 
ATOM     22  O   UNL     1      37.468 -17.464 -21.382  0.00  0.00    -0.153 OA
ATOM     23  O   UNL     1      36.557 -18.823 -23.297  0.00  0.00    -0.153 OA
BRANCH  21  25
ATOM     24 CL   UNL     1      32.828 -22.905 -16.152  0.00  0.00    -0.082 Cl
ATOM     25  C   UNL     1      35.392 -18.979 -20.973  0.00  0.00    +0.122 C 
ATOM     26  C   UNL     1      36.036 -19.696 -19.978  0.00  0.00    +0.020 C 
ATOM     27  C   UNL     1      34.015 -18.994 -21.096  0.00  0.00    +0.020 C 
ATOM     28  C   UNL     1      35.287 -20.460 -19.067  0.00  0.00    +0.001 C 
ATOM     29  C   UNL     1      33.877 -20.485 -19.180  0.00  0.00    +0.001 C 
ATOM     30  C   UNL     1      33.256 -19.747 -20.200  0.00  0.00    +0.001 C 
ATOM     31  C   UNL     1      35.909 -21.198 -18.047  0.00  0.00    +0.001 C 
ATOM     32  C   UNL     1      33.129 -21.249 -18.268  0.00  0.00    +0.011 C 
ATOM     33  C   UNL     1      35.149 -21.952 -17.150  0.00  0.00    +0.011 C 
ATOM     34  C   UNL     1      33.762 -21.977 -17.261  0.00  0.00    +0.058 C 
ENDBRANCH  21  25
ENDBRANCH   3  21
TORSDOF 4
ENDMDL
MODEL 3
REMARK VINA RESULT:     -12.7      5.010      8.466
REMARK  Name = 446399
REMARK  4 active torsions:
REMARK  status: ('A' for Active; 'I' for Inactive)
REMARK    1  A    between atoms: N_3  and  S_21
REMARK    2  A    between atoms: C_4  and  C_10
REMARK    3  A    between atoms: N_9  and  C_16
REMARK    4  A    between atoms: S_21  and  C_25
REMARK                            x       y       z     vdW  Elec       q    Type
REMARK                         _______ _______ _______ _____ _____    ______ ____
ROOT
ATOM      1  O   UNL     1      32.572 -21.038 -17.649  0.00  0.00    -0.275 OA
ATOM      2  N   UNL     1      34.359 -20.958 -19.132  0.00  0.00    -0.277 N 
ATOM      3  N   UNL     1      35.787 -19.316 -20.964  0.00  0.00    -0.152 NA
ATOM      4  C   UNL     1      33.723 -21.358 -17.957  0.00  0.00    +0.225 C 
ATOM      5  C   UNL     1      35.725 -21.320 -19.528  0.00  0.00    +0.113 C 
ATOM      6  C   UNL     1      33.632 -20.162 -20.122  0.00  0.00    +0.113 C 
ATOM      7  C   UNL     1      36.523 -20.077 -19.911  0.00  0.00    +0.117 C 
ATOM      8  C   UNL     1      34.423 -18.916 -20.504  0.00  0.00    +0.117 C 
ENDROOT
BRANCH   4  10
ATOM      9  N   UNL     1      35.601 -22.802 -14.410  0.00  0.00    -0.307 N 
ATOM     10  C   UNL     1      34.520 -22.236 -17.025  0.00  0.00    +0.080 C 
ATOM     11  C   UNL     1      33.627 -22.702 -15.879  0.00  0.00    +0.031 C 
ATOM     12  C   UNL     1      35.717 -21.465 -16.475  0.00  0.00    +0.031 C 
ATOM     13  C   UNL     1      34.410 -23.530 -14.860  0.00  0.00    +0.091 C 
ATOM     14  C   UNL     1      36.497 -22.300 -15.461  0.00  0.00    +0.091 C 
BRANCH   9  16
ATOM     15  N   UNL     1      37.331 -23.760 -10.680  0.00  0.00    -0.242 NA
ATOM     16  C   UNL     1      36.175 -23.119 -13.172  0.00  0.00    +0.051 C 
ATOM     17  C   UNL     1      37.568 -23.136 -13.004  0.00  0.00    +0.035 C 
ATOM     18  C   UNL     1      35.374 -23.431 -12.062  0.00  0.00    +0.035 C 
ATOM     19  C   UNL     1      38.087 -23.457 -11.759  0.00  0.00    +0.100 C 
ATOM     20  C   UNL     1      35.991 -23.738 -10.860  0.00  0.00    +0.100 C 
ENDBRANCH   9  16
ENDBRANCH   4  10
BRANCH   3  21
ATOM     21  S   UNL     1      36.687 -18.084 -21.744  0.00  0.00    +0.063 S 
ATOM     22  O   UNL     1      36.571 -18.249 -23.176  0.00  0.00    -0.153 OA
ATOM     23  O   UNL     1      37.983 -17.978 -21.107  0.00  0.00    -0.153 OA
BRANCH  21  25
ATOM     24 CL   UNL     1      32.045 -11.076 -20.733  0.00  0.00    -0.082 Cl
ATOM     25  C   UNL     1      35.737 -16.670 -21.282  0.00  0.00    +0.122 C 
ATOM     26  C   UNL     1      35.247 -15.832 -22.269  0.00  0.00    +0.020 C 
ATOM     27  C   UNL     1      35.497 -16.425 -19.943  0.00  0.00    +0.020 C 
ATOM     28  C   UNL     1      34.488 -14.702 -21.918  0.00  0.00    +0.001 C 
ATOM     29  C   UNL     1      34.234 -14.437 -20.552  0.00  0.00    +0.001 C 
ATOM     30  C   UNL     1      34.746 -15.308 -19.577  0.00  0.00    +0.001 C 
ATOM     31  C   UNL     1      33.976 -13.832 -22.894  0.00  0.00    +0.001 C 
ATOM     32  C   UNL     1      33.475 -13.308 -20.200  0.00  0.00    +0.011 C 
ATOM     33  C   UNL     1      33.225 -12.714 -22.527  0.00  0.00    +0.011 C 
ATOM     34  C   UNL     1      32.975 -12.453 -21.183  0.00  0.00    +0.058 C 
ENDBRANCH  21  25
ENDBRANCH   3  21
TORSDOF 4
ENDMDL
MODEL 4
REMARK VINA RESULT:     -12.7      4.475     11.554
REMARK  Name = 446399
REMARK  4 active torsions:
REMARK  status: ('A' for Active; 'I' for Inactive)
REMARK    1  A    between atoms: N_3  and  S_21
REMARK    2  A    between atoms: C_4  and  C_10
REMARK    3  A    between atoms: N_9  and  C_16
REMARK    4  A    between atoms: S_21  and  C_25
REMARK                            x       y       z     vdW  Elec       q    Type
REMARK                         _______ _______ _______ _____ _____    ______ ____
ROOT
ATOM      1  O   UNL     1      32.525 -13.162 -19.300  0.00  0.00    -0.275 OA
ATOM      2  N   UNL     1      34.186 -13.961 -20.713  0.00  0.00    -0.277 N 
ATOM      3  N   UNL     1      35.570 -16.285 -21.595  0.00  0.00    -0.152 NA
ATOM      4  C   UNL     1      33.127 -13.120 -20.376  0.00  0.00    +0.225 C 
ATOM      5  C   UNL     1      34.922 -13.937 -21.983  0.00  0.00    +0.113 C 
ATOM      6  C   UNL     1      34.696 -14.924 -19.737  0.00  0.00    +0.113 C 
ATOM      7  C   UNL     1      34.993 -15.335 -22.592  0.00  0.00    +0.117 C 
ATOM      8  C   UNL     1      34.763 -16.324 -20.338  0.00  0.00    +0.117 C 
ENDROOT
BRANCH   4  10
ATOM      9  N   UNL     1      32.795  -9.436 -22.500  0.00  0.00    -0.307 N 
ATOM     10  C   UNL     1      32.712 -12.109 -21.415  0.00  0.00    +0.080 C 
ATOM     11  C   UNL     1      33.950 -11.580 -22.133  0.00  0.00    +0.031 C 
ATOM     12  C   UNL     1      31.959 -10.957 -20.753  0.00  0.00    +0.031 C 
ATOM     13  C   UNL     1      33.590 -10.489 -23.142  0.00  0.00    +0.091 C 
ATOM     14  C   UNL     1      31.599  -9.874 -21.768  0.00  0.00    +0.091 C 
BRANCH   9  16
ATOM     15  N   UNL     1      32.728  -5.568 -24.191  0.00  0.00    -0.242 NA
ATOM     16  C   UNL     1      32.773  -8.152 -23.061  0.00  0.00    +0.051 C 
ATOM     17  C   UNL     1      31.609  -7.369 -23.029  0.00  0.00    +0.035 C 
ATOM     18  C   UNL     1      33.914  -7.611 -23.674  0.00  0.00    +0.035 C 
ATOM     19  C   UNL     1      31.639  -6.105 -23.598  0.00  0.00    +0.100 C 
ATOM     20  C   UNL     1      33.840  -6.337 -24.213  0.00  0.00    +0.100 C 
ENDBRANCH   9  16
ENDBRANCH   4  10
BRANCH   3  21
ATOM     21  S   UNL     1      36.029 -17.814 -22.218  0.00  0.00    +0.063 S 
ATOM     22  O   UNL     1      37.462 -17.965 -22.091  0.00  0.00    -0.153 OA
ATOM     23  O   UNL     1      35.366 -18.020 -23.487  0.00  0.00    -0.153 OA
BRANCH  21  25
ATOM     24 CL   UNL     1      33.497 -23.030 -16.048  0.00  0.00    -0.082 Cl
ATOM     25  C   UNL     1      35.266 -18.871 -21.028  0.00  0.00    +0.122 C 
ATOM     26  C   UNL     1      36.048 -19.475 -20.058  0.00  0.00    +0.020 C 
ATOM     27  C   UNL     1      33.900 -19.078 -21.085  0.00  0.00    +0.020 C 
ATOM     28  C   UNL     1      35.456 -20.319 -19.103  0.00  0.00    +0.001 C 
ATOM     29  C   UNL     1      34.059 -20.541 -19.148  0.00  0.00    +0.001 C 
ATOM     30  C   UNL     1      33.296 -19.913 -20.145  0.00  0.00    +0.001 C 
ATOM     31  C   UNL     1      36.220 -20.947 -18.106  0.00  0.00    +0.001 C 
ATOM     32  C   UNL     1      33.467 -21.385 -18.193  0.00  0.00    +0.011 C 
ATOM     33  C   UNL     1      35.615 -21.783 -17.166  0.00  0.00    +0.011 C 
ATOM     34  C   UNL     1      34.241 -22.001 -17.211  0.00  0.00    +0.058 C 
ENDBRANCH  21  25
ENDBRANCH   3  21
TORSDOF 4
ENDMDL
MODEL 5
REMARK VINA RESULT:     -11.9      1.443      1.897
REMARK  Name = 446399
REMARK  4 active torsions:
REMARK  status: ('A' for Active; 'I' for Inactive)
REMARK    1  A    between atoms: N_3  and  S_21
REMARK    2  A    between atoms: C_4  and  C_10
REMARK    3  A    between atoms: N_9  and  C_16
REMARK    4  A    between atoms: S_21  and  C_25
REMARK                            x       y       z     vdW  Elec       q    Type
REMARK                         _______ _______ _______ _____ _____    ______ ____
ROOT
ATOM      1  O   UNL     1      34.130 -15.765 -24.866  0.00  0.00    -0.275 OA
ATOM      2  N   UNL     1      34.418 -14.179 -23.194  0.00  0.00    -0.277 N 
ATOM      3  N   UNL     1      33.230 -11.964 -21.862  0.00  0.00    -0.152 NA
ATOM      4  C   UNL     1      34.552 -15.450 -23.750  0.00  0.00    +0.225 C 
ATOM      5  C   UNL     1      34.907 -13.772 -21.871  0.00  0.00    +0.113 C 
ATOM      6  C   UNL     1      33.803 -13.102 -23.970  0.00  0.00    +0.113 C 
ATOM      7  C   UNL     1      33.799 -13.096 -21.070  0.00  0.00    +0.117 C 
ATOM      8  C   UNL     1      32.690 -12.426 -23.176  0.00  0.00    +0.117 C 
ENDROOT
BRANCH   4  10
ATOM      9  N   UNL     1      35.213 -18.582 -20.930  0.00  0.00    -0.307 N 
ATOM     10  C   UNL     1      35.261 -16.483 -22.910  0.00  0.00    +0.080 C 
ATOM     11  C   UNL     1      34.706 -17.868 -23.232  0.00  0.00    +0.031 C 
ATOM     12  C   UNL     1      35.070 -16.174 -21.428  0.00  0.00    +0.031 C 
ATOM     13  C   UNL     1      35.336 -18.943 -22.347  0.00  0.00    +0.091 C 
ATOM     14  C   UNL     1      35.705 -17.250 -20.550  0.00  0.00    +0.091 C 
BRANCH   9  16
ATOM     15  N   UNL     1      35.355 -21.616 -17.998  0.00  0.00    -0.242 NA
ATOM     16  C   UNL     1      35.260 -19.588 -19.957  0.00  0.00    +0.051 C 
ATOM     17  C   UNL     1      36.476 -19.973 -19.372  0.00  0.00    +0.035 C 
ATOM     18  C   UNL     1      34.092 -20.244 -19.538  0.00  0.00    +0.035 C 
ATOM     19  C   UNL     1      36.469 -20.974 -18.414  0.00  0.00    +0.100 C 
ATOM     20  C   UNL     1      34.192 -21.232 -18.572  0.00  0.00    +0.100 C 
ENDBRANCH   9  16
ENDBRANCH   4  10
BRANCH   3  21
ATOM     21  S   UNL     1      32.214 -10.895 -20.989  0.00  0.00    +0.063 S 
ATOM     22  O   UNL     1      32.801 -10.640 -19.692  0.00  0.00    -0.153 OA
ATOM     23  O   UNL     1      30.844 -11.345 -21.113  0.00  0.00    -0.153 OA
BRANCH  21  25
ATOM     24 CL   UNL     1      34.221  -4.300 -25.905  0.00  0.00    -0.082 Cl
ATOM     25  C   UNL     1      32.397  -9.434 -21.962  0.00  0.00    +0.122 C 
ATOM     26  C   UNL     1      33.592  -9.207 -22.625  0.00  0.00    +0.020 C 
ATOM     27  C   UNL     1      31.344  -8.542 -22.047  0.00  0.00    +0.020 C 
ATOM     28  C   UNL     1      33.753  -8.048 -23.404  0.00  0.00    +0.001 C 
ATOM     29  C   UNL     1      32.685  -7.126 -23.501  0.00  0.00    +0.001 C 
ATOM     30  C   UNL     1      31.488  -7.387 -22.816  0.00  0.00    +0.001 C 
ATOM     31  C   UNL     1      34.951  -7.788 -24.088  0.00  0.00    +0.001 C 
ATOM     32  C   UNL     1      32.846  -5.968 -24.281  0.00  0.00    +0.011 C 
ATOM     33  C   UNL     1      35.094  -6.632 -24.858  0.00  0.00    +0.011 C 
ATOM     34  C   UNL     1      34.043  -5.724 -24.953  0.00  0.00    +0.058 C 
ENDBRANCH  21  25
ENDBRANCH   3  21
TORSDOF 4
ENDMDL
MODEL 6
REMARK VINA RESULT:     -11.6      4.112     11.635
REMARK  Name = 446399
REMARK  4 active torsions:
REMARK  status: ('A' for Active; 'I' for Inactive)
REMARK    1  A    between atoms: N_3  and  S_21
REMARK    2  A    between atoms: C_4  and  C_10
REMARK    3  A    between atoms: N_9  and  C_16
REMARK    4  A    between atoms: S_21  and  C_25
REMARK                            x       y       z     vdW  Elec       q    Type
REMARK                         _______ _______ _______ _____ _____    ______ ____
ROOT
ATOM      1  O   UNL     1      31.522 -10.177 -20.794  0.00  0.00    -0.275 OA
ATOM      2  N   UNL     1      33.190 -11.128 -22.102  0.00  0.00    -0.277 N 
ATOM      3  N   UNL     1      33.857 -13.323 -23.785  0.00  0.00    -0.152 NA
ATOM      4  C   UNL     1      32.469 -10.057 -21.576  0.00  0.00    +0.225 C 
ATOM      5  C   UNL     1      34.319 -11.019 -23.033  0.00  0.00    +0.113 C 
ATOM      6  C   UNL     1      32.883 -12.495 -21.679  0.00  0.00    +0.113 C 
ATOM      7  C   UNL     1      34.110 -11.924 -24.244  0.00  0.00    +0.117 C 
ATOM      8  C   UNL     1      32.666 -13.401 -22.885  0.00  0.00    +0.117 C 
ENDROOT
BRANCH   4  10
ATOM      9  N   UNL     1      32.289  -5.912 -22.568  0.00  0.00    -0.307 N 
ATOM     10  C   UNL     1      32.897  -8.678 -22.010  0.00  0.00    +0.080 C 
ATOM     11  C   UNL     1      32.619  -7.682 -20.888  0.00  0.00    +0.031 C 
ATOM     12  C   UNL     1      32.142  -8.267 -23.272  0.00  0.00    +0.031 C 
ATOM     13  C   UNL     1      32.961  -6.253 -21.309  0.00  0.00    +0.091 C 
ATOM     14  C   UNL     1      32.492  -6.840 -23.689  0.00  0.00    +0.091 C 
BRANCH   9  16
ATOM     15  N   UNL     1      31.580  -1.858 -23.509  0.00  0.00    -0.242 NA
ATOM     16  C   UNL     1      32.053  -4.567 -22.880  0.00  0.00    +0.051 C 
ATOM     17  C   UNL     1      31.912  -4.147 -24.212  0.00  0.00    +0.035 C 
ATOM     18  C   UNL     1      31.953  -3.597 -21.871  0.00  0.00    +0.035 C 
ATOM     19  C   UNL     1      31.680  -2.805 -24.468  0.00  0.00    +0.100 C 
ATOM     20  C   UNL     1      31.718  -2.280 -22.232  0.00  0.00    +0.100 C 
ENDBRANCH   9  16
ENDBRANCH   4  10
BRANCH   3  21
ATOM     21  S   UNL     1      33.932 -14.521 -25.007  0.00  0.00    +0.063 S 
ATOM     22  O   UNL     1      35.054 -14.240 -25.875  0.00  0.00    -0.153 OA
ATOM     23  O   UNL     1      32.604 -14.726 -25.544  0.00  0.00    -0.153 OA
BRANCH  21  25
ATOM     24 CL   UNL     1      36.327 -20.477 -19.486  0.00  0.00    -0.082 Cl
ATOM     25  C   UNL     1      34.346 -15.931 -24.029  0.00  0.00    +0.122 C 
ATOM     26  C   UNL     1      34.933 -15.747 -22.788  0.00  0.00    +0.020 C 
ATOM     27  C   UNL     1      34.076 -17.196 -24.518  0.00  0.00    +0.020 C 
ATOM     28  C   UNL     1      35.269 -16.858 -21.997  0.00  0.00    +0.001 C 
ATOM     29  C   UNL     1      34.999 -18.160 -22.484  0.00  0.00    +0.001 C 
ATOM     30  C   UNL     1      34.402 -18.311 -23.745  0.00  0.00    +0.001 C 
ATOM     31  C   UNL     1      35.865 -16.706 -20.735  0.00  0.00    +0.001 C 
ATOM     32  C   UNL     1      35.333 -19.272 -21.693  0.00  0.00    +0.011 C 
ATOM     33  C   UNL     1      36.191 -17.823 -19.963  0.00  0.00    +0.011 C 
ATOM     34  C   UNL     1      35.926 -19.102 -20.441  0.00  0.00    +0.058 C 
ENDBRANCH  21  25
ENDBRANCH   3  21
TORSDOF 4
ENDMDL
MODEL 7
REMARK VINA RESULT:     -11.6      5.169     11.734
REMARK  Name = 446399
REMARK  4 active torsions:
REMARK  status: ('A' for Active; 'I' for Inactive)
REMARK    1  A    between atoms: N_3  and  S_21
REMARK    2  A    between atoms: C_4  and  C_10
REMARK    3  A    between atoms: N_9  and  C_16
REMARK    4  A    between atoms: S_21  and  C_25
REMARK                            x       y       z     vdW  Elec       q    Type
REMARK                         _______ _______ _______ _____ _____    ______ ____
ROOT
ATOM      1  O   UNL     1      34.624 -16.745 -25.025  0.00  0.00    -0.275 OA
ATOM      2  N   UNL     1      34.716 -17.127 -22.736  0.00  0.00    -0.277 N 
ATOM      3  N   UNL     1      35.657 -18.888 -20.709  0.00  0.00    -0.152 NA
ATOM      4  C   UNL     1      34.725 -16.319 -23.871  0.00  0.00    +0.225 C 
ATOM      5  C   UNL     1      34.834 -16.653 -21.352  0.00  0.00    +0.113 C 
ATOM      6  C   UNL     1      34.512 -18.570 -22.866  0.00  0.00    +0.113 C 
ATOM      7  C   UNL     1      35.924 -17.421 -20.609  0.00  0.00    +0.117 C 
ATOM      8  C   UNL     1      35.601 -19.343 -22.131  0.00  0.00    +0.117 C 
ENDROOT
BRANCH   4  10
ATOM      9  N   UNL     1      33.756 -12.285 -22.878  0.00  0.00    -0.307 N 
ATOM     10  C   UNL     1      34.870 -14.836 -23.643  0.00  0.00    +0.080 C 
ATOM     11  C   UNL     1      34.548 -14.512 -22.186  0.00  0.00    +0.031 C 
ATOM     12  C   UNL     1      33.930 -14.067 -24.569  0.00  0.00    +0.031 C 
ATOM     13  C   UNL     1      34.602 -13.007 -21.921  0.00  0.00    +0.091 C 
ATOM     14  C   UNL     1      33.993 -12.565 -24.301  0.00  0.00    +0.091 C 
BRANCH   9  16
ATOM     15  N   UNL     1      32.286  -8.458 -21.872  0.00  0.00    -0.242 NA
ATOM     16  C   UNL     1      33.268 -11.015 -22.544  0.00  0.00    +0.051 C 
ATOM     17  C   UNL     1      32.338 -10.847 -21.508  0.00  0.00    +0.035 C 
ATOM     18  C   UNL     1      33.695  -9.871 -23.237  0.00  0.00    +0.035 C 
ATOM     19  C   UNL     1      31.886  -9.570 -21.216  0.00  0.00    +0.100 C 
ATOM     20  C   UNL     1      33.183  -8.638 -22.868  0.00  0.00    +0.100 C 
ENDBRANCH   9  16
ENDBRANCH   4  10
BRANCH   3  21
ATOM     21  S   UNL     1      36.585 -19.875 -19.660  0.00  0.00    +0.063 S 
ATOM     22  O   UNL     1      37.336 -19.030 -18.758  0.00  0.00    -0.153 OA
ATOM     23  O   UNL     1      37.241 -20.901 -20.442  0.00  0.00    -0.153 OA
BRANCH  21  25
ATOM     24 CL   UNL     1      31.268 -23.906 -14.449  0.00  0.00    -0.082 Cl
ATOM     25  C   UNL     1      35.292 -20.640 -18.734  0.00  0.00    +0.122 C 
ATOM     26  C   UNL     1      35.606 -21.331 -17.576  0.00  0.00    +0.020 C 
ATOM     27  C   UNL     1      33.988 -20.534 -19.180  0.00  0.00    +0.020 C 
ATOM     28  C   UNL     1      34.588 -21.946 -16.827  0.00  0.00    +0.001 C 
ATOM     29  C   UNL     1      33.248 -21.847 -17.271  0.00  0.00    +0.001 C 
ATOM     30  C   UNL     1      32.965 -21.138 -18.449  0.00  0.00    +0.001 C 
ATOM     31  C   UNL     1      34.872 -22.655 -15.649  0.00  0.00    +0.001 C 
ATOM     32  C   UNL     1      32.230 -22.461 -16.522  0.00  0.00    +0.011 C 
ATOM     33  C   UNL     1      33.848 -23.259 -14.918  0.00  0.00    +0.011 C 
ATOM     34  C   UNL     1      32.529 -23.162 -15.354  0.00  0.00    +0.058 C 
ENDBRANCH  21  25
ENDBRANCH   3  21
TORSDOF 4
ENDMDL
MODEL 8
REMARK VINA RESULT:     -11.1      6.209     12.705
REMARK  Name = 446399
REMARK  4 active torsions:
REMARK  status: ('A' for Active; 'I' for Inactive)
REMARK    1  A    between atoms: N_3  and  S_21
REMARK    2  A    between atoms: C_4  and  C_10
REMARK    3  A    between atoms: N_9  and  C_16
REMARK    4  A    between atoms: S_21  and  C_25
REMARK                            x       y       z     vdW  Elec       q    Type
REMARK                         _______ _______ _______ _____ _____    ______ ____
ROOT
ATOM      1  O   UNL     1      37.180 -17.784 -20.475  0.00  0.00    -0.275 OA
ATOM      2  N   UNL     1      35.439 -19.320 -20.408  0.00  0.00    -0.277 N 
ATOM      3  N   UNL     1      34.257 -21.432 -18.911  0.00  0.00    -0.152 NA
ATOM      4  C   UNL     1      36.001 -18.078 -20.694  0.00  0.00    +0.225 C 
ATOM      5  C   UNL     1      34.043 -19.701 -20.656  0.00  0.00    +0.113 C 
ATOM      6  C   UNL     1      36.274 -20.397 -19.875  0.00  0.00    +0.113 C 
ATOM      7  C   UNL     1      33.415 -20.298 -19.400  0.00  0.00    +0.117 C 
ATOM      8  C   UNL     1      35.655 -20.994 -18.616  0.00  0.00    +0.117 C 
ENDROOT
BRANCH   4  10
ATOM      9  N   UNL     1      34.679 -14.561 -22.715  0.00  0.00    -0.307 N 
ATOM     10  C   UNL     1      35.086 -17.048 -21.307  0.00  0.00    +0.080 C 
ATOM     11  C   UNL     1      35.394 -16.916 -22.797  0.00  0.00    +0.031 C 
ATOM     12  C   UNL     1      35.273 -15.701 -20.614  0.00  0.00    +0.031 C 
ATOM     13  C   UNL     1      34.547 -15.824 -23.449  0.00  0.00    +0.091 C 
ATOM     14  C   UNL     1      34.421 -14.616 -21.269  0.00  0.00    +0.091 C 
BRANCH   9  16
ATOM     15  N   UNL     1      33.879 -10.918 -24.692  0.00  0.00    -0.242 NA
ATOM     16  C   UNL     1      34.414 -13.352 -23.371  0.00  0.00    +0.051 C 
ATOM     17  C   UNL     1      34.484 -12.128 -22.688  0.00  0.00    +0.035 C 
ATOM     18  C   UNL     1      34.068 -13.329 -24.731  0.00  0.00    +0.035 C 
ATOM     19  C   UNL     1      34.213 -10.960 -23.383  0.00  0.00    +0.100 C 
ATOM     20  C   UNL     1      33.815 -12.106 -25.334  0.00  0.00    +0.100 C 
ENDBRANCH   9  16
ENDBRANCH   4  10
BRANCH   3  21
ATOM     21  S   UNL     1      33.532 -22.422 -17.716  0.00  0.00    +0.063 S 
ATOM     22  O   UNL     1      33.442 -23.776 -18.216  0.00  0.00    -0.153 OA
ATOM     23  O   UNL     1      32.370 -21.743 -17.187  0.00  0.00    -0.153 OA
BRANCH  21  25
ATOM     24 CL   UNL     1      38.861 -23.015 -11.163  0.00  0.00    -0.082 Cl
ATOM     25  C   UNL     1      34.793 -22.385 -16.481  0.00  0.00    +0.122 C 
ATOM     26  C   UNL     1      34.630 -23.127 -15.324  0.00  0.00    +0.020 C 
ATOM     27  C   UNL     1      35.922 -21.616 -16.691  0.00  0.00    +0.020 C 
ATOM     28  C   UNL     1      35.624 -23.108 -14.331  0.00  0.00    +0.001 C 
ATOM     29  C   UNL     1      36.786 -22.326 -14.531  0.00  0.00    +0.001 C 
ATOM     30  C   UNL     1      36.920 -21.586 -15.716  0.00  0.00    +0.001 C 
ATOM     31  C   UNL     1      35.490 -23.850 -13.146  0.00  0.00    +0.001 C 
ATOM     32  C   UNL     1      37.781 -22.308 -13.539  0.00  0.00    +0.011 C 
ATOM     33  C   UNL     1      36.488 -23.819 -12.170  0.00  0.00    +0.011 C 
ATOM     34  C   UNL     1      37.631 -23.049 -12.367  0.00  0.00    +0.058 C 
ENDBRANCH  21  25
ENDBRANCH   3  21
TORSDOF 4
ENDMDL
MODEL 9
REMARK VINA RESULT:     -11.1      4.161     11.509
REMARK  Name = 446399
REMARK  4 active torsions:
REMARK  status: ('A' for Active; 'I' for Inactive)
REMARK    1  A    between atoms: N_3  and  S_21
REMARK    2  A    between atoms: C_4  and  C_10
REMARK    3  A    between atoms: N_9  and  C_16
REMARK    4  A    between atoms: S_21  and  C_25
REMARK                            x       y       z     vdW  Elec       q    Type
REMARK                         _______ _______ _______ _____ _____    ______ ____
ROOT
ATOM      1  O   UNL     1      32.677 -11.236 -20.037  0.00  0.00    -0.275 OA
ATOM      2  N   UNL     1      33.739 -12.089 -21.919  0.00  0.00    -0.277 N 
ATOM      3  N   UNL     1      34.472 -14.468 -23.297  0.00  0.00    -0.152 NA
ATOM      4  C   UNL     1      32.949 -11.164 -21.239  0.00  0.00    +0.225 C 
ATOM      5  C   UNL     1      34.081 -12.033 -23.345  0.00  0.00    +0.113 C 
ATOM      6  C   UNL     1      34.362 -13.195 -21.190  0.00  0.00    +0.113 C 
ATOM      7  C   UNL     1      33.778 -13.364 -24.026  0.00  0.00    +0.117 C 
ATOM      8  C   UNL     1      34.056 -14.529 -21.863  0.00  0.00    +0.117 C 
ENDROOT
BRANCH   4  10
ATOM      9  N   UNL     1      32.472  -7.243 -22.850  0.00  0.00    -0.307 N 
ATOM     10  C   UNL     1      32.405 -10.015 -22.051  0.00  0.00    +0.080 C 
ATOM     11  C   UNL     1      33.501  -9.477 -22.968  0.00  0.00    +0.031 C 
ATOM     12  C   UNL     1      31.907  -8.908 -21.126  0.00  0.00    +0.031 C 
ATOM     13  C   UNL     1      33.023  -8.257 -23.755  0.00  0.00    +0.091 C 
ATOM     14  C   UNL     1      31.428  -7.695 -21.919  0.00  0.00    +0.091 C 
BRANCH   9  16
ATOM     15  N   UNL     1      32.362  -3.206 -24.080  0.00  0.00    -0.242 NA
ATOM     16  C   UNL     1      32.435  -5.903 -23.258  0.00  0.00    +0.051 C 
ATOM     17  C   UNL     1      32.744  -5.540 -24.578  0.00  0.00    +0.035 C 
ATOM     18  C   UNL     1      32.089  -4.883 -22.358  0.00  0.00    +0.035 C 
ATOM     19  C   UNL     1      32.693  -4.201 -24.932  0.00  0.00    +0.100 C 
ATOM     20  C   UNL     1      32.067  -3.573 -22.812  0.00  0.00    +0.100 C 
ENDBRANCH   9  16
ENDBRANCH   4  10
BRANCH   3  21
ATOM     21  S   UNL     1      34.514 -15.974 -24.112  0.00  0.00    +0.063 S 
ATOM     22  O   UNL     1      35.501 -15.912 -25.167  0.00  0.00    -0.153 OA
ATOM     23  O   UNL     1      33.157 -16.397 -24.383  0.00  0.00    -0.153 OA
BRANCH  21  25
ATOM     24 CL   UNL     1      36.455 -21.328 -17.848  0.00  0.00    -0.082 Cl
ATOM     25  C   UNL     1      35.157 -17.000 -22.829  0.00  0.00    +0.122 C 
ATOM     26  C   UNL     1      34.306 -17.867 -22.163  0.00  0.00    +0.020 C 
ATOM     27  C   UNL     1      36.500 -16.922 -22.510  0.00  0.00    +0.020 C 
ATOM     28  C   UNL     1      34.803 -18.691 -21.139  0.00  0.00    +0.001 C 
ATOM     29  C   UNL     1      36.175 -18.623 -20.801  0.00  0.00    +0.001 C 
ATOM     30  C   UNL     1      37.010 -17.734 -21.496  0.00  0.00    +0.001 C 
ATOM     31  C   UNL     1      33.967 -19.581 -20.445  0.00  0.00    +0.001 C 
ATOM     32  C   UNL     1      36.672 -19.447 -19.778  0.00  0.00    +0.011 C 
ATOM     33  C   UNL     1      34.478 -20.392 -19.430  0.00  0.00    +0.011 C 
ATOM     34  C   UNL     1      35.828 -20.325 -19.098  0.00  0.00    +0.058 C 
ENDBRANCH  21  25
ENDBRANCH   3  21
TORSDOF 4
ENDMDL
