MODEL 1
REMARK VINA RESULT:     -11.9      0.000      0.000
REMARK  Name = 66000
REMARK  8 active torsions:
REMARK  status: ('A' for Active; 'I' for Inactive)
REMARK    1  A    between atoms: C_1  and  O_19
REMARK    2  A    between atoms: C_4  and  C_7
REMARK    3  A    between atoms: C_10  and  C_15
REMARK    4  A    between atoms: O_19  and  C_20
REMARK    5  A    between atoms: C_20  and  C_24
REMARK    6  A    between atoms: C_23  and  C_28
REMARK    7  A    between atoms: C_28  and  C_30
REMARK    8  A    between atoms: C_30  and  O_31
REMARK                            x       y       z     vdW  Elec       q    Type
REMARK                         _______ _______ _______ _____ _____    ______ ____
ROOT
ATOM      1  C   UNL     1      34.732 -22.933 -15.320  0.00  0.00    +0.139 C 
ATOM      2  C   UNL     1      33.662 -22.856 -16.204  0.00  0.00    +0.037 C 
ATOM      3  C   UNL     1      35.914 -22.248 -15.572  0.00  0.00    +0.037 C 
ATOM      4  C   UNL     1      34.959 -21.390 -17.619  0.00  0.00    +0.000 C 
ATOM      5  C   UNL     1      33.777 -22.081 -17.357  0.00  0.00    +0.003 C 
ATOM      6  C   UNL     1      36.028 -21.473 -16.727  0.00  0.00    +0.003 C 
ENDROOT
BRANCH   4   7
ATOM      7  C   UNL     1      35.079 -20.587 -18.816  0.00  0.00    +0.000 C 
ATOM      8  C   UNL     1      33.935 -20.216 -19.524  0.00  0.00    +0.000 C 
ATOM      9  C   UNL     1      36.337 -20.181 -19.262  0.00  0.00    +0.000 C 
ATOM     10  C   UNL     1      35.308 -19.035 -21.124  0.00  0.00    +0.031 C 
ATOM     11  C   UNL     1      34.050 -19.441 -20.679  0.00  0.00    +0.003 C 
ATOM     12  C   UNL     1      36.451 -19.406 -20.417  0.00  0.00    +0.003 C 
BRANCH  10  15
ATOM     13  N   UNL     1      36.414 -17.251 -22.452  0.00  0.00    -0.343 N 
ATOM     14  N   UNL     1      34.585 -18.411 -23.329  0.00  0.00    -0.285 NA
ATOM     15  C   UNL     1      35.427 -18.227 -22.327  0.00  0.00    +0.117 C 
ATOM     16  H   UNL     1      36.475 -16.716 -23.275  0.00  0.00    +0.144 HD
ATOM     17  H   UNL     1      37.048 -17.098 -21.715  0.00  0.00    +0.144 HD
ATOM     18  H   UNL     1      34.663 -17.865 -24.145  0.00  0.00    +0.188 HD
ENDBRANCH  10  15
ENDBRANCH   4   7
BRANCH   1  19
ATOM     19  O   UNL     1      34.620 -23.697 -14.184  0.00  0.00    -0.474 OA
BRANCH  19  20
ATOM     20  C   UNL     1      35.487 -23.381 -13.109  0.00  0.00    +0.225 C 
BRANCH  20  24
ATOM     21  O   UNL     1      37.776 -26.499 -15.186  0.00  0.00    -0.275 OA
ATOM     22  N   UNL     1      36.201 -25.654 -13.675  0.00  0.00    -0.302 N 
ATOM     23  C   UNL     1      38.350 -24.731 -13.599  0.00  0.00    +0.089 C 
ATOM     24  C   UNL     1      36.151 -24.664 -12.626  0.00  0.00    +0.116 C 
ATOM     25  C   UNL     1      37.622 -24.476 -12.274  0.00  0.00    +0.033 C 
ATOM     26  C   UNL     1      37.456 -25.756 -14.271  0.00  0.00    +0.223 C 
ATOM     27  H   UNL     1      35.428 -26.201 -13.942  0.00  0.00    +0.149 HD
BRANCH  23  28
ATOM     28  C   UNL     1      39.773 -25.222 -13.414  0.00  0.00    +0.118 C 
BRANCH  28  30
ATOM     29  O   UNL     1      41.386 -23.664 -14.367  0.00  0.00    -0.250 OA
ATOM     30  C   UNL     1      40.704 -24.672 -14.465  0.00  0.00    +0.314 C 
BRANCH  30  31
ATOM     31  O   UNL     1      40.685 -25.467 -15.566  0.00  0.00    -0.480 OA
ATOM     32  H   UNL     1      40.384 -26.351 -15.501  0.00  0.00    +0.295 HD
ENDBRANCH  30  31
ENDBRANCH  28  30
ENDBRANCH  23  28
ENDBRANCH  20  24
ENDBRANCH  19  20
ENDBRANCH   1  19
TORSDOF 8
ENDMDL
MODEL 2
REMARK VINA RESULT:     -11.8      2.132      3.288
REMARK  Name = 66000
REMARK  8 active torsions:
REMARK  status: ('A' for Active; 'I' for Inactive)
REMARK    1  A    between atoms: C_1  and  O_19
REMARK    2  A    between atoms: C_4  and  C_7
REMARK    3  A    between atoms: C_10  and  C_15
REMARK    4  A    between atoms: O_19  and  C_20
REMARK    5  A    between atoms: C_20  and  C_24
REMARK    6  A    between atoms: C_23  and  C_28
REMARK    7  A    between atoms: C_28  and  C_30
REMARK    8  A    between atoms: C_30  and  O_31
REMARK                            x       y       z     vdW  Elec       q    Type
REMARK                         _______ _______ _______ _____ _____    ______ ____
ROOT
ATOM      1  C   UNL     1      35.667 -21.333 -17.898  0.00  0.00    +0.139 C 
ATOM      2  C   UNL     1      36.781 -20.637 -18.350  0.00  0.00    +0.037 C 
ATOM      3  C   UNL     1      34.414 -21.108 -18.453  0.00  0.00    +0.037 C 
ATOM      4  C   UNL     1      35.385 -19.466 -19.935  0.00  0.00    +0.000 C 
ATOM      5  C   UNL     1      36.639 -19.700 -19.372  0.00  0.00    +0.003 C 
ATOM      6  C   UNL     1      34.272 -20.169 -19.475  0.00  0.00    +0.003 C 
ENDROOT
BRANCH   4   7
ATOM      7  C   UNL     1      35.237 -18.492 -20.995  0.00  0.00    +0.000 C 
ATOM      8  C   UNL     1      34.797 -18.896 -22.256  0.00  0.00    +0.000 C 
ATOM      9  C   UNL     1      35.533 -17.150 -20.756  0.00  0.00    +0.000 C 
ATOM     10  C   UNL     1      34.949 -16.615 -23.039  0.00  0.00    +0.031 C 
ATOM     11  C   UNL     1      34.653 -17.957 -23.278  0.00  0.00    +0.003 C 
ATOM     12  C   UNL     1      35.389 -16.211 -21.779  0.00  0.00    +0.003 C 
BRANCH  10  15
ATOM     13  N   UNL     1      34.614 -14.284 -23.828  0.00  0.00    -0.343 N 
ATOM     14  N   UNL     1      34.835 -16.029 -25.367  0.00  0.00    -0.285 NA
ATOM     15  C   UNL     1      34.800 -15.637 -24.105  0.00  0.00    +0.117 C 
ATOM     16  H   UNL     1      34.515 -13.640 -24.565  0.00  0.00    +0.144 HD
ATOM     17  H   UNL     1      34.582 -13.973 -22.895  0.00  0.00    +0.144 HD
ATOM     18  H   UNL     1      34.734 -15.369 -26.090  0.00  0.00    +0.188 HD
ENDBRANCH  10  15
ENDBRANCH   4   7
BRANCH   1  19
ATOM     19  O   UNL     1      35.807 -22.256 -16.891  0.00  0.00    -0.474 OA
BRANCH  19  20
ATOM     20  C   UNL     1      36.767 -21.973 -15.889  0.00  0.00    +0.225 C 
BRANCH  20  24
ATOM     21  O   UNL     1      36.579 -26.182 -14.653  0.00  0.00    -0.275 OA
ATOM     22  N   UNL     1      35.824 -23.974 -14.839  0.00  0.00    -0.302 N 
ATOM     23  C   UNL     1      38.006 -24.289 -14.055  0.00  0.00    +0.089 C 
ATOM     24  C   UNL     1      36.333 -22.647 -14.593  0.00  0.00    +0.116 C 
ATOM     25  C   UNL     1      37.494 -22.906 -13.640  0.00  0.00    +0.033 C 
ATOM     26  C   UNL     1      36.740 -24.977 -14.531  0.00  0.00    +0.223 C 
ATOM     27  H   UNL     1      34.921 -24.153 -15.189  0.00  0.00    +0.149 HD
BRANCH  23  28
ATOM     28  C   UNL     1      38.694 -25.035 -12.928  0.00  0.00    +0.118 C 
BRANCH  28  30
ATOM     29  O   UNL     1      37.954 -24.104 -10.801  0.00  0.00    -0.250 OA
ATOM     30  C   UNL     1      37.900 -24.983 -11.647  0.00  0.00    +0.314 C 
BRANCH  30  31
ATOM     31  O   UNL     1      37.093 -26.071 -11.554  0.00  0.00    -0.480 OA
ATOM     32  H   UNL     1      36.852 -26.543 -12.326  0.00  0.00    +0.295 HD
ENDBRANCH  30  31
ENDBRANCH  28  30
ENDBRANCH  23  28
ENDBRANCH  20  24
ENDBRANCH  19  20
ENDBRANCH   1  19
TORSDOF 8
ENDMDL
MODEL 3
REMARK VINA RESULT:     -11.8      1.487      2.565
REMARK  Name = 66000
REMARK  8 active torsions:
REMARK  status: ('A' for Active; 'I' for Inactive)
REMARK    1  A    between atoms: C_1  and  O_19
REMARK    2  A    between atoms: C_4  and  C_7
REMARK    3  A    between atoms: C_10  and  C_15
REMARK    4  A    between atoms: O_19  and  C_20
REMARK    5  A    between atoms: C_20  and  C_24
REMARK    6  A    between atoms: C_23  and  C_28
REMARK    7  A    between atoms: C_28  and  C_30
REMARK    8  A    between atoms: C_30  and  O_31
REMARK                            x       y       z     vdW  Elec       q    Type
REMARK                         _______ _______ _______ _____ _____    ______ ____
ROOT
ATOM      1  C   UNL     1      35.456 -21.615 -17.515  0.00  0.00    +0.139 C 
ATOM      2  C   UNL     1      36.603 -20.948 -17.929  0.00  0.00    +0.037 C 
ATOM      3  C   UNL     1      34.237 -21.393 -18.144  0.00  0.00    +0.037 C 
ATOM      4  C   UNL     1      35.309 -19.813 -19.625  0.00  0.00    +0.000 C 
ATOM      5  C   UNL     1      36.528 -20.043 -18.988  0.00  0.00    +0.003 C 
ATOM      6  C   UNL     1      34.163 -20.487 -19.202  0.00  0.00    +0.003 C 
ENDROOT
BRANCH   4   7
ATOM      7  C   UNL     1      35.232 -18.874 -20.723  0.00  0.00    +0.000 C 
ATOM      8  C   UNL     1      35.681 -17.564 -20.553  0.00  0.00    +0.000 C 
ATOM      9  C   UNL     1      34.709 -19.278 -21.951  0.00  0.00    +0.000 C 
ATOM     10  C   UNL     1      35.085 -17.064 -22.840  0.00  0.00    +0.031 C 
ATOM     11  C   UNL     1      35.608 -16.659 -21.612  0.00  0.00    +0.003 C 
ATOM     12  C   UNL     1      34.635 -18.373 -23.010  0.00  0.00    +0.003 C 
BRANCH  10  15
ATOM     13  N   UNL     1      35.506 -14.823 -23.827  0.00  0.00    -0.343 N 
ATOM     14  N   UNL     1      34.453 -16.486 -25.086  0.00  0.00    -0.285 NA
ATOM     15  C   UNL     1      35.008 -16.119 -23.944  0.00  0.00    +0.117 C 
ATOM     16  H   UNL     1      35.443 -14.201 -24.586  0.00  0.00    +0.144 HD
ATOM     17  H   UNL     1      35.920 -14.530 -22.983  0.00  0.00    +0.144 HD
ATOM     18  H   UNL     1      34.399 -15.849 -25.834  0.00  0.00    +0.188 HD
ENDBRANCH  10  15
ENDBRANCH   4   7
BRANCH   1  19
ATOM     19  O   UNL     1      35.529 -22.505 -16.473  0.00  0.00    -0.474 OA
BRANCH  19  20
ATOM     20  C   UNL     1      36.150 -22.052 -15.283  0.00  0.00    +0.225 C 
BRANCH  20  24
ATOM     21  O   UNL     1      36.748 -26.401 -15.270  0.00  0.00    -0.275 OA
ATOM     22  N   UNL     1      35.646 -24.395 -14.781  0.00  0.00    -0.302 N 
ATOM     23  C   UNL     1      37.924 -24.514 -14.256  0.00  0.00    +0.089 C 
ATOM     24  C   UNL     1      35.969 -23.112 -14.204  0.00  0.00    +0.116 C 
ATOM     25  C   UNL     1      37.254 -23.405 -13.437  0.00  0.00    +0.033 C 
ATOM     26  C   UNL     1      36.734 -25.263 -14.825  0.00  0.00    +0.223 C 
ATOM     27  H   UNL     1      34.749 -24.632 -15.109  0.00  0.00    +0.149 HD
BRANCH  23  28
ATOM     28  C   UNL     1      38.837 -25.398 -13.429  0.00  0.00    +0.118 C 
BRANCH  28  30
ATOM     29  O   UNL     1      40.867 -24.050 -13.438  0.00  0.00    -0.250 OA
ATOM     30  C   UNL     1      40.294 -25.100 -13.680  0.00  0.00    +0.314 C 
BRANCH  30  31
ATOM     31  O   UNL     1      40.904 -26.184 -14.226  0.00  0.00    -0.480 OA
ATOM     32  H   UNL     1      40.792 -26.376 -15.136  0.00  0.00    +0.295 HD
ENDBRANCH  30  31
ENDBRANCH  28  30
ENDBRANCH  23  28
ENDBRANCH  20  24
ENDBRANCH  19  20
ENDBRANCH   1  19
TORSDOF 8
ENDMDL
MODEL 4
REMARK VINA RESULT:     -11.7      2.228      3.575
REMARK  Name = 66000
REMARK  8 active torsions:
REMARK  status: ('A' for Active; 'I' for Inactive)
REMARK    1  A    between atoms: C_1  and  O_19
REMARK    2  A    between atoms: C_4  and  C_7
REMARK    3  A    between atoms: C_10  and  C_15
REMARK    4  A    between atoms: O_19  and  C_20
REMARK    5  A    between atoms: C_20  and  C_24
REMARK    6  A    between atoms: C_23  and  C_28
REMARK    7  A    between atoms: C_28  and  C_30
REMARK    8  A    between atoms: C_30  and  O_31
REMARK                            x       y       z     vdW  Elec       q    Type
REMARK                         _______ _______ _______ _____ _____    ______ ____
ROOT
ATOM      1  C   UNL     1      34.808 -21.662 -17.821  0.00  0.00    +0.139 C 
ATOM      2  C   UNL     1      33.629 -21.222 -18.411  0.00  0.00    +0.037 C 
ATOM      3  C   UNL     1      36.037 -21.154 -18.222  0.00  0.00    +0.037 C 
ATOM      4  C   UNL     1      34.910 -19.744 -19.827  0.00  0.00    +0.000 C 
ATOM      5  C   UNL     1      33.681 -20.259 -19.418  0.00  0.00    +0.003 C 
ATOM      6  C   UNL     1      36.088 -20.192 -19.230  0.00  0.00    +0.003 C 
ENDROOT
BRANCH   4   7
ATOM      7  C   UNL     1      34.964 -18.745 -20.873  0.00  0.00    +0.000 C 
ATOM      8  C   UNL     1      35.421 -17.459 -20.586  0.00  0.00    +0.000 C 
ATOM      9  C   UNL     1      34.562 -19.069 -22.169  0.00  0.00    +0.000 C 
ATOM     10  C   UNL     1      35.072 -16.820 -22.889  0.00  0.00    +0.031 C 
ATOM     11  C   UNL     1      35.474 -16.496 -21.594  0.00  0.00    +0.003 C 
ATOM     12  C   UNL     1      34.615 -18.106 -23.177  0.00  0.00    +0.003 C 
BRANCH  10  15
ATOM     13  N   UNL     1      35.488 -14.498 -23.667  0.00  0.00    -0.343 N 
ATOM     14  N   UNL     1      34.826 -16.148 -25.184  0.00  0.00    -0.285 NA
ATOM     15  C   UNL     1      35.127 -15.816 -23.940  0.00  0.00    +0.117 C 
ATOM     16  H   UNL     1      35.518 -13.835 -24.394  0.00  0.00    +0.144 HD
ATOM     17  H   UNL     1      35.713 -14.231 -22.747  0.00  0.00    +0.144 HD
ATOM     18  H   UNL     1      34.862 -15.470 -25.897  0.00  0.00    +0.188 HD
ENDBRANCH  10  15
ENDBRANCH   4   7
BRANCH   1  19
ATOM     19  O   UNL     1      34.756 -22.611 -16.830  0.00  0.00    -0.474 OA
BRANCH  19  20
ATOM     20  C   UNL     1      35.543 -22.377 -15.675  0.00  0.00    +0.225 C 
BRANCH  20  24
ATOM     21  O   UNL     1      38.953 -23.486 -13.142  0.00  0.00    -0.275 OA
ATOM     22  N   UNL     1      37.463 -23.703 -14.934  0.00  0.00    -0.302 N 
ATOM     23  C   UNL     1      36.533 -23.405 -12.807  0.00  0.00    +0.089 C 
ATOM     24  C   UNL     1      36.035 -23.716 -15.140  0.00  0.00    +0.116 C 
ATOM     25  C   UNL     1      35.499 -24.033 -13.749  0.00  0.00    +0.033 C 
ATOM     26  C   UNL     1      37.820 -23.544 -13.598  0.00  0.00    +0.223 C 
ATOM     27  H   UNL     1      38.117 -23.799 -15.663  0.00  0.00    +0.149 HD
BRANCH  23  28
ATOM     28  C   UNL     1      36.597 -24.084 -11.452  0.00  0.00    +0.118 C 
BRANCH  28  30
ATOM     29  O   UNL     1      37.512 -22.056 -10.458  0.00  0.00    -0.250 OA
ATOM     30  C   UNL     1      36.903 -23.108 -10.344  0.00  0.00    +0.314 C 
BRANCH  30  31
ATOM     31  O   UNL     1      36.396 -23.563  -9.169  0.00  0.00    -0.480 OA
ATOM     32  H   UNL     1      35.787 -23.040  -8.687  0.00  0.00    +0.295 HD
ENDBRANCH  30  31
ENDBRANCH  28  30
ENDBRANCH  23  28
ENDBRANCH  20  24
ENDBRANCH  19  20
ENDBRANCH   1  19
TORSDOF 8
ENDMDL
MODEL 5
REMARK VINA RESULT:     -11.2      1.971      3.504
REMARK  Name = 66000
REMARK  8 active torsions:
REMARK  status: ('A' for Active; 'I' for Inactive)
REMARK    1  A    between atoms: C_1  and  O_19
REMARK    2  A    between atoms: C_4  and  C_7
REMARK    3  A    between atoms: C_10  and  C_15
REMARK    4  A    between atoms: O_19  and  C_20
REMARK    5  A    between atoms: C_20  and  C_24
REMARK    6  A    between atoms: C_23  and  C_28
REMARK    7  A    between atoms: C_28  and  C_30
REMARK    8  A    between atoms: C_30  and  O_31
REMARK                            x       y       z     vdW  Elec       q    Type
REMARK                         _______ _______ _______ _____ _____    ______ ____
ROOT
ATOM      1  C   UNL     1      34.938 -21.592 -18.209  0.00  0.00    +0.139 C 
ATOM      2  C   UNL     1      33.735 -21.111 -18.711  0.00  0.00    +0.037 C 
ATOM      3  C   UNL     1      36.150 -21.060 -18.633  0.00  0.00    +0.037 C 
ATOM      4  C   UNL     1      34.955 -19.543 -20.084  0.00  0.00    +0.000 C 
ATOM      5  C   UNL     1      33.744 -20.082 -19.652  0.00  0.00    +0.003 C 
ATOM      6  C   UNL     1      36.158 -20.032 -19.575  0.00  0.00    +0.003 C 
ENDROOT
BRANCH   4   7
ATOM      7  C   UNL     1      34.965 -18.476 -21.062  0.00  0.00    +0.000 C 
ATOM      8  C   UNL     1      35.291 -17.177 -20.673  0.00  0.00    +0.000 C 
ATOM      9  C   UNL     1      34.649 -18.747 -22.393  0.00  0.00    +0.000 C 
ATOM     10  C   UNL     1      34.987 -16.419 -22.947  0.00  0.00    +0.031 C 
ATOM     11  C   UNL     1      35.302 -16.148 -21.615  0.00  0.00    +0.003 C 
ATOM     12  C   UNL     1      34.660 -17.718 -23.336  0.00  0.00    +0.003 C 
BRANCH  10  15
ATOM     13  N   UNL     1      34.955 -14.008 -23.543  0.00  0.00    -0.343 N 
ATOM     14  N   UNL     1      35.043 -15.635 -25.218  0.00  0.00    -0.285 NA
ATOM     15  C   UNL     1      34.997 -15.346 -23.929  0.00  0.00    +0.117 C 
ATOM     16  H   UNL     1      34.962 -13.299 -24.225  0.00  0.00    +0.144 HD
ATOM     17  H   UNL     1      34.917 -13.773 -22.588  0.00  0.00    +0.144 HD
ATOM     18  H   UNL     1      35.050 -14.911 -25.885  0.00  0.00    +0.188 HD
ENDBRANCH  10  15
ENDBRANCH   4   7
BRANCH   1  19
ATOM     19  O   UNL     1      34.929 -22.606 -17.283  0.00  0.00    -0.474 OA
BRANCH  19  20
ATOM     20  C   UNL     1      34.153 -22.402 -16.115  0.00  0.00    +0.225 C 
BRANCH  20  24
ATOM     21  O   UNL     1      34.731 -23.991 -12.063  0.00  0.00    -0.275 OA
ATOM     22  N   UNL     1      34.506 -22.326 -13.693  0.00  0.00    -0.302 N 
ATOM     23  C   UNL     1      36.058 -24.026 -14.116  0.00  0.00    +0.089 C 
ATOM     24  C   UNL     1      35.082 -22.002 -14.976  0.00  0.00    +0.116 C 
ATOM     25  C   UNL     1      36.385 -22.793 -14.966  0.00  0.00    +0.033 C 
ATOM     26  C   UNL     1      35.041 -23.482 -13.130  0.00  0.00    +0.223 C 
ATOM     27  H   UNL     1      33.807 -21.785 -13.260  0.00  0.00    +0.149 HD
BRANCH  23  28
ATOM     28  C   UNL     1      37.275 -24.625 -13.438  0.00  0.00    +0.118 C 
BRANCH  28  30
ATOM     29  O   UNL     1      38.654 -26.579 -13.908  0.00  0.00    -0.250 OA
ATOM     30  C   UNL     1      37.568 -26.020 -13.928  0.00  0.00    +0.314 C 
BRANCH  30  31
ATOM     31  O   UNL     1      36.433 -26.593 -14.408  0.00  0.00    -0.480 OA
ATOM     32  H   UNL     1      36.057 -27.329 -13.967  0.00  0.00    +0.295 HD
ENDBRANCH  30  31
ENDBRANCH  28  30
ENDBRANCH  23  28
ENDBRANCH  20  24
ENDBRANCH  19  20
ENDBRANCH   1  19
TORSDOF 8
ENDMDL
MODEL 6
REMARK VINA RESULT:     -11.1      3.713      5.946
REMARK  Name = 66000
REMARK  8 active torsions:
REMARK  status: ('A' for Active; 'I' for Inactive)
REMARK    1  A    between atoms: C_1  and  O_19
REMARK    2  A    between atoms: C_4  and  C_7
REMARK    3  A    between atoms: C_10  and  C_15
REMARK    4  A    between atoms: O_19  and  C_20
REMARK    5  A    between atoms: C_20  and  C_24
REMARK    6  A    between atoms: C_23  and  C_28
REMARK    7  A    between atoms: C_28  and  C_30
REMARK    8  A    between atoms: C_30  and  O_31
REMARK                            x       y       z     vdW  Elec       q    Type
REMARK                         _______ _______ _______ _____ _____    ______ ____
ROOT
ATOM      1  C   UNL     1      34.990 -21.553 -18.069  0.00  0.00    +0.139 C 
ATOM      2  C   UNL     1      36.194 -20.981 -18.463  0.00  0.00    +0.037 C 
ATOM      3  C   UNL     1      33.788 -21.137 -18.627  0.00  0.00    +0.037 C 
ATOM      4  C   UNL     1      34.992 -19.551 -19.994  0.00  0.00    +0.000 C 
ATOM      5  C   UNL     1      36.194 -19.976 -19.429  0.00  0.00    +0.003 C 
ATOM      6  C   UNL     1      33.789 -20.130 -19.593  0.00  0.00    +0.003 C 
ENDROOT
BRANCH   4   7
ATOM      7  C   UNL     1      34.993 -18.507 -20.996  0.00  0.00    +0.000 C 
ATOM      8  C   UNL     1      34.648 -18.806 -22.315  0.00  0.00    +0.000 C 
ATOM      9  C   UNL     1      35.336 -17.202 -20.644  0.00  0.00    +0.000 C 
ATOM     10  C   UNL     1      34.991 -16.494 -22.928  0.00  0.00    +0.031 C 
ATOM     11  C   UNL     1      34.647 -17.799 -23.281  0.00  0.00    +0.003 C 
ATOM     12  C   UNL     1      35.335 -16.195 -21.610  0.00  0.00    +0.003 C 
BRANCH  10  15
ATOM     13  N   UNL     1      34.938 -14.099 -23.582  0.00  0.00    -0.343 N 
ATOM     14  N   UNL     1      35.036 -15.764 -25.218  0.00  0.00    -0.285 NA
ATOM     15  C   UNL     1      34.990 -15.445 -23.936  0.00  0.00    +0.117 C 
ATOM     16  H   UNL     1      34.938 -13.406 -24.281  0.00  0.00    +0.144 HD
ATOM     17  H   UNL     1      34.900 -13.841 -22.633  0.00  0.00    +0.144 HD
ATOM     18  H   UNL     1      35.036 -15.056 -25.902  0.00  0.00    +0.188 HD
ENDBRANCH  10  15
ENDBRANCH   4   7
BRANCH   1  19
ATOM     19  O   UNL     1      34.989 -22.543 -17.117  0.00  0.00    -0.474 OA
BRANCH  19  20
ATOM     20  C   UNL     1      34.482 -22.205 -15.838  0.00  0.00    +0.225 C 
BRANCH  20  24
ATOM     21  O   UNL     1      32.052 -22.715 -12.218  0.00  0.00    -0.275 OA
ATOM     22  N   UNL     1      33.477 -23.391 -13.948  0.00  0.00    -0.302 N 
ATOM     23  C   UNL     1      31.547 -22.217 -14.557  0.00  0.00    +0.089 C 
ATOM     24  C   UNL     1      33.527 -23.302 -15.387  0.00  0.00    +0.116 C 
ATOM     25  C   UNL     1      32.076 -23.015 -15.755  0.00  0.00    +0.033 C 
ATOM     26  C   UNL     1      32.342 -22.796 -13.402  0.00  0.00    +0.223 C 
ATOM     27  H   UNL     1      34.173 -23.829 -13.407  0.00  0.00    +0.149 HD
BRANCH  23  28
ATOM     28  C   UNL     1      30.048 -22.350 -14.366  0.00  0.00    +0.118 C 
BRANCH  28  30
ATOM     29  O   UNL     1      29.171 -21.776 -16.566  0.00  0.00    -0.250 OA
ATOM     30  C   UNL     1      29.329 -22.590 -15.669  0.00  0.00    +0.314 C 
BRANCH  30  31
ATOM     31  O   UNL     1      28.869 -23.867 -15.720  0.00  0.00    -0.480 OA
ATOM     32  H   UNL     1      29.390 -24.567 -15.379  0.00  0.00    +0.295 HD
ENDBRANCH  30  31
ENDBRANCH  28  30
ENDBRANCH  23  28
ENDBRANCH  20  24
ENDBRANCH  19  20
ENDBRANCH   1  19
TORSDOF 8
ENDMDL
MODEL 7
REMARK VINA RESULT:     -10.6      5.320     10.440
REMARK  Name = 66000
REMARK  8 active torsions:
REMARK  status: ('A' for Active; 'I' for Inactive)
REMARK    1  A    between atoms: C_1  and  O_19
REMARK    2  A    between atoms: C_4  and  C_7
REMARK    3  A    between atoms: C_10  and  C_15
REMARK    4  A    between atoms: O_19  and  C_20
REMARK    5  A    between atoms: C_20  and  C_24
REMARK    6  A    between atoms: C_23  and  C_28
REMARK    7  A    between atoms: C_28  and  C_30
REMARK    8  A    between atoms: C_30  and  O_31
REMARK                            x       y       z     vdW  Elec       q    Type
REMARK                         _______ _______ _______ _____ _____    ______ ____
ROOT
ATOM      1  C   UNL     1      35.124 -19.896 -20.209  0.00  0.00    +0.139 C 
ATOM      2  C   UNL     1      35.986 -20.583 -19.363  0.00  0.00    +0.037 C 
ATOM      3  C   UNL     1      33.753 -19.904 -19.987  0.00  0.00    +0.037 C 
ATOM      4  C   UNL     1      34.092 -21.307 -18.050  0.00  0.00    +0.000 C 
ATOM      5  C   UNL     1      35.468 -21.291 -18.280  0.00  0.00    +0.003 C 
ATOM      6  C   UNL     1      33.234 -20.614 -18.904  0.00  0.00    +0.003 C 
ENDROOT
BRANCH   4   7
ATOM      7  C   UNL     1      33.554 -22.042 -16.926  0.00  0.00    +0.000 C 
ATOM      8  C   UNL     1      34.416 -22.629 -15.999  0.00  0.00    +0.000 C 
ATOM      9  C   UNL     1      32.174 -22.164 -16.768  0.00  0.00    +0.000 C 
ATOM     10  C   UNL     1      32.517 -23.458 -14.757  0.00  0.00    +0.031 C 
ATOM     11  C   UNL     1      33.898 -23.337 -14.915  0.00  0.00    +0.003 C 
ATOM     12  C   UNL     1      31.655 -22.872 -15.683  0.00  0.00    +0.003 C 
BRANCH  10  15
ATOM     13  N   UNL     1      30.693 -24.739 -13.660  0.00  0.00    -0.343 N 
ATOM     14  N   UNL     1      32.708 -24.361 -12.538  0.00  0.00    -0.285 NA
ATOM     15  C   UNL     1      31.977 -24.197 -13.627  0.00  0.00    +0.117 C 
ATOM     16  H   UNL     1      30.348 -25.235 -12.884  0.00  0.00    +0.144 HD
ATOM     17  H   UNL     1      30.133 -24.625 -14.461  0.00  0.00    +0.144 HD
ATOM     18  H   UNL     1      32.344 -24.860 -11.772  0.00  0.00    +0.188 HD
ENDBRANCH  10  15
ENDBRANCH   4   7
BRANCH   1  19
ATOM     19  O   UNL     1      35.634 -19.199 -21.276  0.00  0.00    -0.474 OA
BRANCH  19  20
ATOM     20  C   UNL     1      34.940 -18.029 -21.671  0.00  0.00    +0.225 C 
BRANCH  20  24
ATOM     21  O   UNL     1      34.922 -13.949 -23.294  0.00  0.00    -0.275 OA
ATOM     22  N   UNL     1      35.882 -15.966 -22.596  0.00  0.00    -0.302 N 
ATOM     23  C   UNL     1      34.407 -14.920 -21.111  0.00  0.00    +0.089 C 
ATOM     24  C   UNL     1      35.842 -16.824 -21.436  0.00  0.00    +0.116 C 
ATOM     25  C   UNL     1      35.317 -15.891 -20.350  0.00  0.00    +0.033 C 
ATOM     26  C   UNL     1      35.084 -14.833 -22.466  0.00  0.00    +0.223 C 
ATOM     27  H   UNL     1      36.419 -16.162 -23.397  0.00  0.00    +0.149 HD
BRANCH  23  28
ATOM     28  C   UNL     1      34.273 -13.571 -20.431  0.00  0.00    +0.118 C 
BRANCH  28  30
ATOM     29  O   UNL     1      32.114 -12.811 -19.592  0.00  0.00    -0.250 OA
ATOM     30  C   UNL     1      32.870 -13.026 -20.527  0.00  0.00    +0.314 C 
BRANCH  30  31
ATOM     31  O   UNL     1      32.548 -12.795 -21.826  0.00  0.00    -0.480 OA
ATOM     32  H   UNL     1      32.423 -13.515 -22.413  0.00  0.00    +0.295 HD
ENDBRANCH  30  31
ENDBRANCH  28  30
ENDBRANCH  23  28
ENDBRANCH  20  24
ENDBRANCH  19  20
ENDBRANCH   1  19
TORSDOF 8
ENDMDL
MODEL 8
REMARK VINA RESULT:     -10.6      5.046     10.484
REMARK  Name = 66000
REMARK  8 active torsions:
REMARK  status: ('A' for Active; 'I' for Inactive)
REMARK    1  A    between atoms: C_1  and  O_19
REMARK    2  A    between atoms: C_4  and  C_7
REMARK    3  A    between atoms: C_10  and  C_15
REMARK    4  A    between atoms: O_19  and  C_20
REMARK    5  A    between atoms: C_20  and  C_24
REMARK    6  A    between atoms: C_23  and  C_28
REMARK    7  A    between atoms: C_28  and  C_30
REMARK    8  A    between atoms: C_30  and  O_31
REMARK                            x       y       z     vdW  Elec       q    Type
REMARK                         _______ _______ _______ _____ _____    ______ ____
ROOT
ATOM      1  C   UNL     1      34.776 -20.343 -19.482  0.00  0.00    +0.139 C 
ATOM      2  C   UNL     1      36.088 -20.334 -19.024  0.00  0.00    +0.037 C 
ATOM      3  C   UNL     1      33.781 -21.009 -18.777  0.00  0.00    +0.037 C 
ATOM      4  C   UNL     1      35.418 -21.675 -17.130  0.00  0.00    +0.000 C 
ATOM      5  C   UNL     1      36.410 -21.003 -17.844  0.00  0.00    +0.003 C 
ATOM      6  C   UNL     1      34.103 -21.679 -17.597  0.00  0.00    +0.003 C 
ENDROOT
BRANCH   4   7
ATOM      7  C   UNL     1      35.752 -22.371 -15.906  0.00  0.00    +0.000 C 
ATOM      8  C   UNL     1      37.028 -22.241 -15.357  0.00  0.00    +0.000 C 
ATOM      9  C   UNL     1      34.798 -23.169 -15.275  0.00  0.00    +0.000 C 
ATOM     10  C   UNL     1      36.396 -23.709 -13.544  0.00  0.00    +0.031 C 
ATOM     11  C   UNL     1      37.350 -22.911 -14.175  0.00  0.00    +0.003 C 
ATOM     12  C   UNL     1      35.120 -23.838 -14.093  0.00  0.00    +0.003 C 
BRANCH  10  15
ATOM     13  N   UNL     1      38.013 -24.905 -12.088  0.00  0.00    -0.343 N 
ATOM     14  N   UNL     1      35.809 -24.582 -11.383  0.00  0.00    -0.285 NA
ATOM     15  C   UNL     1      36.732 -24.407 -12.313  0.00  0.00    +0.117 C 
ATOM     16  H   UNL     1      38.218 -25.375 -11.248  0.00  0.00    +0.144 HD
ATOM     17  H   UNL     1      38.713 -24.788 -12.770  0.00  0.00    +0.144 HD
ATOM     18  H   UNL     1      36.034 -25.054 -10.549  0.00  0.00    +0.188 HD
ENDBRANCH  10  15
ENDBRANCH   4   7
BRANCH   1  19
ATOM     19  O   UNL     1      34.459 -19.684 -20.644  0.00  0.00    -0.474 OA
BRANCH  19  20
ATOM     20  C   UNL     1      34.940 -18.359 -20.784  0.00  0.00    +0.225 C 
BRANCH  20  24
ATOM     21  O   UNL     1      33.701 -18.093 -24.987  0.00  0.00    -0.275 OA
ATOM     22  N   UNL     1      34.994 -18.840 -23.184  0.00  0.00    -0.302 N 
ATOM     23  C   UNL     1      34.704 -16.528 -23.401  0.00  0.00    +0.089 C 
ATOM     24  C   UNL     1      35.727 -18.262 -22.084  0.00  0.00    +0.116 C 
ATOM     25  C   UNL     1      35.940 -16.823 -22.544  0.00  0.00    +0.033 C 
ATOM     26  C   UNL     1      34.389 -17.886 -23.999  0.00  0.00    +0.223 C 
ATOM     27  H   UNL     1      34.928 -19.809 -23.343  0.00  0.00    +0.149 HD
BRANCH  23  28
ATOM     28  C   UNL     1      34.948 -15.462 -24.453  0.00  0.00    +0.118 C 
BRANCH  28  30
ATOM     29  O   UNL     1      33.553 -13.478 -24.214  0.00  0.00    -0.250 OA
ATOM     30  C   UNL     1      33.734 -14.595 -24.673  0.00  0.00    +0.314 C 
BRANCH  30  31
ATOM     31  O   UNL     1      32.843 -15.236 -25.473  0.00  0.00    -0.480 OA
ATOM     32  H   UNL     1      31.963 -15.369 -25.182  0.00  0.00    +0.295 HD
ENDBRANCH  30  31
ENDBRANCH  28  30
ENDBRANCH  23  28
ENDBRANCH  20  24
ENDBRANCH  19  20
ENDBRANCH   1  19
TORSDOF 8
ENDMDL
MODEL 9
REMARK VINA RESULT:     -10.4      5.555     10.861
REMARK  Name = 66000
REMARK  8 active torsions:
REMARK  status: ('A' for Active; 'I' for Inactive)
REMARK    1  A    between atoms: C_1  and  O_19
REMARK    2  A    between atoms: C_4  and  C_7
REMARK    3  A    between atoms: C_10  and  C_15
REMARK    4  A    between atoms: O_19  and  C_20
REMARK    5  A    between atoms: C_20  and  C_24
REMARK    6  A    between atoms: C_23  and  C_28
REMARK    7  A    between atoms: C_28  and  C_30
REMARK    8  A    between atoms: C_30  and  O_31
REMARK                            x       y       z     vdW  Elec       q    Type
REMARK                         _______ _______ _______ _____ _____    ______ ____
ROOT
ATOM      1  C   UNL     1      34.932 -20.019 -20.026  0.00  0.00    +0.139 C 
ATOM      2  C   UNL     1      35.788 -20.644 -19.128  0.00  0.00    +0.037 C 
ATOM      3  C   UNL     1      33.554 -20.094 -19.865  0.00  0.00    +0.037 C 
ATOM      4  C   UNL     1      33.876 -21.438 -17.884  0.00  0.00    +0.000 C 
ATOM      5  C   UNL     1      35.258 -21.356 -18.053  0.00  0.00    +0.003 C 
ATOM      6  C   UNL     1      33.024 -20.807 -18.790  0.00  0.00    +0.003 C 
ENDROOT
BRANCH   4   7
ATOM      7  C   UNL     1      33.325 -22.178 -16.769  0.00  0.00    +0.000 C 
ATOM      8  C   UNL     1      34.177 -22.821 -15.870  0.00  0.00    +0.000 C 
ATOM      9  C   UNL     1      31.943 -22.247 -16.591  0.00  0.00    +0.000 C 
ATOM     10  C   UNL     1      32.264 -23.602 -14.617  0.00  0.00    +0.031 C 
ATOM     11  C   UNL     1      33.646 -23.534 -14.794  0.00  0.00    +0.003 C 
ATOM     12  C   UNL     1      31.413 -22.959 -15.515  0.00  0.00    +0.003 C 
BRANCH  10  15
ATOM     13  N   UNL     1      30.388 -24.783 -13.497  0.00  0.00    -0.343 N 
ATOM     14  N   UNL     1      32.469 -24.614 -12.447  0.00  0.00    -0.285 NA
ATOM     15  C   UNL     1      31.711 -24.345 -13.496  0.00  0.00    +0.117 C 
ATOM     16  H   UNL     1      30.035 -25.284 -12.727  0.00  0.00    +0.144 HD
ATOM     17  H   UNL     1      29.807 -24.590 -14.267  0.00  0.00    +0.144 HD
ATOM     18  H   UNL     1      32.097 -25.117 -11.687  0.00  0.00    +0.188 HD
ENDBRANCH  10  15
ENDBRANCH   4   7
BRANCH   1  19
ATOM     19  O   UNL     1      35.454 -19.318 -21.085  0.00  0.00    -0.474 OA
BRANCH  19  20
ATOM     20  C   UNL     1      34.540 -18.593 -21.889  0.00  0.00    +0.225 C 
BRANCH  20  24
ATOM     21  O   UNL     1      33.066 -16.903 -25.663  0.00  0.00    -0.275 OA
ATOM     22  N   UNL     1      34.363 -18.309 -24.315  0.00  0.00    -0.302 N 
ATOM     23  C   UNL     1      34.382 -16.027 -23.799  0.00  0.00    +0.089 C 
ATOM     24  C   UNL     1      35.243 -18.186 -23.178  0.00  0.00    +0.116 C 
ATOM     25  C   UNL     1      35.620 -16.709 -23.207  0.00  0.00    +0.033 C 
ATOM     26  C   UNL     1      33.841 -17.089 -24.738  0.00  0.00    +0.223 C 
ATOM     27  H   UNL     1      34.153 -19.168 -24.748  0.00  0.00    +0.149 HD
BRANCH  23  28
ATOM     28  C   UNL     1      34.698 -14.722 -24.505  0.00  0.00    +0.118 C 
BRANCH  28  30
ATOM     29  O   UNL     1      33.499 -12.833 -23.540  0.00  0.00    -0.250 OA
ATOM     30  C   UNL     1      33.578 -13.721 -24.374  0.00  0.00    +0.314 C 
BRANCH  30  31
ATOM     31  O   UNL     1      32.641 -13.941 -25.333  0.00  0.00    -0.480 OA
ATOM     32  H   UNL     1      32.104 -14.708 -25.296  0.00  0.00    +0.295 HD
ENDBRANCH  30  31
ENDBRANCH  28  30
ENDBRANCH  23  28
ENDBRANCH  20  24
ENDBRANCH  19  20
ENDBRANCH   1  19
TORSDOF 8
ENDMDL
