MODEL 1
REMARK VINA RESULT:     -12.3      0.000      0.000
REMARK  Name = 1712
REMARK  5 active torsions:
REMARK  status: ('A' for Active; 'I' for Inactive)
REMARK    1  A    between atoms: C_1  and  N_18
REMARK    2  A    between atoms: C_2  and  S_7
REMARK    3  A    between atoms: S_7  and  N_10
REMARK    4  A    between atoms: N_18  and  C_20
REMARK    5  A    between atoms: C_20  and  C_26
REMARK                            x       y       z     vdW  Elec       q    Type
REMARK                         _______ _______ _______ _____ _____    ______ ____
ROOT
ATOM      1  C   UNL     1      35.385 -17.880 -20.969  0.00  0.00    +0.045 C 
ATOM      2  C   UNL     1      34.718 -16.467 -23.309  0.00  0.00    +0.125 C 
ATOM      3  C   UNL     1      35.074 -18.562 -22.159  0.00  0.00    +0.016 C 
ATOM      4  C   UNL     1      35.354 -16.474 -20.978  0.00  0.00    +0.016 C 
ATOM      5  C   UNL     1      34.743 -17.862 -23.319  0.00  0.00    +0.021 C 
ATOM      6  C   UNL     1      35.023 -15.773 -22.138  0.00  0.00    +0.021 C 
ENDROOT
BRANCH   2   7
ATOM      7  S   UNL     1      34.303 -15.591 -24.760  0.00  0.00    +0.075 S 
ATOM      8  O   UNL     1      33.496 -16.472 -25.597  0.00  0.00    -0.150 OA
ATOM      9  O   UNL     1      35.518 -15.010 -25.318  0.00  0.00    -0.150 OA
BRANCH   7  10
ATOM     10  N   UNL     1      33.283 -14.334 -24.169  0.00  0.00    -0.199 N 
ATOM     11  H   UNL     1      32.463 -14.542 -23.665  0.00  0.00    +0.175 HD
ATOM     12  N   UNL     1      33.615 -12.591 -25.723  0.00  0.00    -0.228 NA
ATOM     13  C   UNL     1      33.665 -12.973 -24.432  0.00  0.00    +0.147 C 
ATOM     14  C   UNL     1      34.049 -12.159 -23.384  0.00  0.00    +0.036 C 
ATOM     15  C   UNL     1      34.409 -10.850 -23.685  0.00  0.00    +0.005 C 
ATOM     16  C   UNL     1      33.973 -11.313 -25.978  0.00  0.00    +0.100 C 
ATOM     17  C   UNL     1      34.373 -10.411 -25.004  0.00  0.00    +0.021 C 
ENDBRANCH   7  10
ENDBRANCH   2   7
BRANCH   1  18
ATOM     18  N   UNL     1      35.715 -18.576 -19.816  0.00  0.00    -0.328 N 
ATOM     19  H   UNL     1      35.784 -18.072 -18.973  0.00  0.00    +0.147 HD
BRANCH  18  20
ATOM     20  C   UNL     1      35.965 -19.996 -19.779  0.00  0.00    +0.127 C 
BRANCH  20  26
ATOM     21  S   UNL     1      37.565 -21.285 -16.814  0.00  0.00    -0.104 S 
ATOM     22  O   UNL     1      33.122 -20.205 -20.497  0.00  0.00    -0.210 OA
ATOM     23  N   UNL     1      32.729 -21.370 -18.519  0.00  0.00    -0.333 NA
ATOM     24  N   UNL     1      36.581 -22.594 -14.802  0.00  0.00    -0.262 NA
ATOM     25  C   UNL     1      34.930 -21.299 -17.800  0.00  0.00    +0.033 C 
ATOM     26  C   UNL     1      34.918 -20.662 -18.968  0.00  0.00    +0.092 C 
ATOM     27  C   UNL     1      33.537 -21.717 -17.573  0.00  0.00    +0.142 C 
ATOM     28  C   UNL     1      35.898 -21.622 -16.837  0.00  0.00    +0.114 C 
ATOM     29  C   UNL     1      33.502 -20.700 -19.445  0.00  0.00    +0.202 C 
ATOM     30  C   UNL     1      35.569 -22.322 -15.686  0.00  0.00    +0.069 C 
ATOM     31  C   UNL     1      33.226 -22.466 -16.325  0.00  0.00    +0.034 C 
ATOM     32  C   UNL     1      34.219 -22.734 -15.454  0.00  0.00    +0.018 C 
ATOM     33  C   UNL     1      37.692 -22.090 -15.297  0.00  0.00    +0.183 C 
ENDBRANCH  20  26
ENDBRANCH  18  20
ENDBRANCH   1  18
TORSDOF 5
ENDMDL
MODEL 2
REMARK VINA RESULT:     -12.1      2.463      2.953
REMARK  Name = 1712
REMARK  5 active torsions:
REMARK  status: ('A' for Active; 'I' for Inactive)
REMARK    1  A    between atoms: C_1  and  N_18
REMARK    2  A    between atoms: C_2  and  S_7
REMARK    3  A    between atoms: S_7  and  N_10
REMARK    4  A    between atoms: N_18  and  C_20
REMARK    5  A    between atoms: C_20  and  C_26
REMARK                            x       y       z     vdW  Elec       q    Type
REMARK                         _______ _______ _______ _____ _____    ______ ____
ROOT
ATOM      1  C   UNL     1      35.616 -16.719 -20.498  0.00  0.00    +0.045 C 
ATOM      2  C   UNL     1      34.490 -14.525 -21.851  0.00  0.00    +0.125 C 
ATOM      3  C   UNL     1      35.054 -15.644 -19.786  0.00  0.00    +0.016 C 
ATOM      4  C   UNL     1      35.603 -16.669 -21.904  0.00  0.00    +0.016 C 
ATOM      5  C   UNL     1      34.495 -14.557 -20.457  0.00  0.00    +0.021 C 
ATOM      6  C   UNL     1      35.044 -15.581 -22.575  0.00  0.00    +0.021 C 
ENDROOT
BRANCH   2   7
ATOM      7  S   UNL     1      33.792 -13.163 -22.691  0.00  0.00    +0.075 S 
ATOM      8  O   UNL     1      33.540 -13.571 -24.069  0.00  0.00    -0.150 OA
ATOM      9  O   UNL     1      34.621 -11.989 -22.446  0.00  0.00    -0.150 OA
BRANCH   7  10
ATOM     10  N   UNL     1      32.271 -12.968 -21.905  0.00  0.00    -0.199 N 
ATOM     11  H   UNL     1      31.533 -13.598 -22.068  0.00  0.00    +0.175 HD
ATOM     12  N   UNL     1      32.128 -10.637 -21.572  0.00  0.00    -0.228 NA
ATOM     13  C   UNL     1      32.112 -11.858 -21.004  0.00  0.00    +0.147 C 
ATOM     14  C   UNL     1      31.958 -12.097 -19.652  0.00  0.00    +0.036 C 
ATOM     15  C   UNL     1      31.808 -10.995 -18.818  0.00  0.00    +0.005 C 
ATOM     16  C   UNL     1      31.980  -9.590 -20.730  0.00  0.00    +0.100 C 
ATOM     17  C   UNL     1      31.817  -9.714 -19.360  0.00  0.00    +0.021 C 
ENDBRANCH   7  10
ENDBRANCH   2   7
BRANCH   1  18
ATOM     18  N   UNL     1      36.171 -17.802 -19.831  0.00  0.00    -0.328 N 
ATOM     19  H   UNL     1      36.606 -17.638 -18.963  0.00  0.00    +0.147 HD
BRANCH  18  20
ATOM     20  C   UNL     1      36.149 -19.152 -20.336  0.00  0.00    +0.127 C 
BRANCH  20  26
ATOM     21  S   UNL     1      37.341 -20.882 -17.403  0.00  0.00    -0.104 S 
ATOM     22  O   UNL     1      33.412 -19.155 -21.410  0.00  0.00    -0.210 OA
ATOM     23  N   UNL     1      32.752 -20.555 -19.670  0.00  0.00    -0.333 NA
ATOM     24  N   UNL     1      36.087 -22.407 -15.720  0.00  0.00    -0.262 NA
ATOM     25  C   UNL     1      34.848 -20.665 -18.690  0.00  0.00    +0.033 C 
ATOM     26  C   UNL     1      34.995 -19.878 -19.754  0.00  0.00    +0.092 C 
ATOM     27  C   UNL     1      33.430 -21.055 -18.690  0.00  0.00    +0.142 C 
ATOM     28  C   UNL     1      35.683 -21.149 -17.671  0.00  0.00    +0.114 C 
ATOM     29  C   UNL     1      33.648 -19.799 -20.397  0.00  0.00    +0.202 C 
ATOM     30  C   UNL     1      35.199 -21.982 -16.674  0.00  0.00    +0.069 C 
ATOM     31  C   UNL     1      32.950 -21.950 -17.602  0.00  0.00    +0.034 C 
ATOM     32  C   UNL     1      33.821 -22.369 -16.663  0.00  0.00    +0.018 C 
ATOM     33  C   UNL     1      37.262 -21.885 -16.005  0.00  0.00    +0.183 C 
ENDBRANCH  20  26
ENDBRANCH  18  20
ENDBRANCH   1  18
TORSDOF 5
ENDMDL
MODEL 3
REMARK VINA RESULT:     -11.8      2.534     10.359
REMARK  Name = 1712
REMARK  5 active torsions:
REMARK  status: ('A' for Active; 'I' for Inactive)
REMARK    1  A    between atoms: C_1  and  N_18
REMARK    2  A    between atoms: C_2  and  S_7
REMARK    3  A    between atoms: S_7  and  N_10
REMARK    4  A    between atoms: N_18  and  C_20
REMARK    5  A    between atoms: C_20  and  C_26
REMARK                            x       y       z     vdW  Elec       q    Type
REMARK                         _______ _______ _______ _____ _____    ______ ____
ROOT
ATOM      1  C   UNL     1      35.506 -19.319 -20.263  0.00  0.00    +0.045 C 
ATOM      2  C   UNL     1      34.525 -21.285 -18.506  0.00  0.00    +0.125 C 
ATOM      3  C   UNL     1      34.123 -19.542 -20.130  0.00  0.00    +0.016 C 
ATOM      4  C   UNL     1      36.386 -20.104 -19.497  0.00  0.00    +0.016 C 
ATOM      5  C   UNL     1      33.637 -20.517 -19.259  0.00  0.00    +0.021 C 
ATOM      6  C   UNL     1      35.900 -21.079 -18.625  0.00  0.00    +0.021 C 
ENDROOT
BRANCH   2   7
ATOM      7  S   UNL     1      33.917 -22.506 -17.417  0.00  0.00    +0.075 S 
ATOM      8  O   UNL     1      34.787 -22.532 -16.247  0.00  0.00    -0.150 OA
ATOM      9  O   UNL     1      33.710 -23.739 -18.166  0.00  0.00    -0.150 OA
BRANCH   7  10
ATOM     10  N   UNL     1      32.393 -21.862 -16.935  0.00  0.00    -0.199 N 
ATOM     11  H   UNL     1      31.979 -21.118 -17.428  0.00  0.00    +0.175 HD
ATOM     12  N   UNL     1      32.356 -22.244 -14.607  0.00  0.00    -0.228 NA
ATOM     13  C   UNL     1      31.744 -22.445 -15.791  0.00  0.00    +0.147 C 
ATOM     14  C   UNL     1      30.571 -23.152 -15.962  0.00  0.00    +0.036 C 
ATOM     15  C   UNL     1      29.978 -23.697 -14.828  0.00  0.00    +0.005 C 
ATOM     16  C   UNL     1      31.751 -22.789 -13.528  0.00  0.00    +0.100 C 
ATOM     17  C   UNL     1      30.574 -23.517 -13.584  0.00  0.00    +0.021 C 
ENDBRANCH   7  10
ENDBRANCH   2   7
BRANCH   1  18
ATOM     18  N   UNL     1      35.989 -18.349 -21.128  0.00  0.00    -0.328 N 
ATOM     19  H   UNL     1      36.713 -18.598 -21.748  0.00  0.00    +0.147 HD
BRANCH  18  20
ATOM     20  C   UNL     1      35.495 -16.995 -21.173  0.00  0.00    +0.127 C 
BRANCH  20  26
ATOM     21  S   UNL     1      34.692 -13.479 -21.269  0.00  0.00    -0.104 S 
ATOM     22  O   UNL     1      35.234 -18.937 -23.364  0.00  0.00    -0.210 OA
ATOM     23  N   UNL     1      34.432 -17.241 -24.745  0.00  0.00    -0.333 NA
ATOM     24  N   UNL     1      33.768 -12.014 -23.200  0.00  0.00    -0.262 NA
ATOM     25  C   UNL     1      34.573 -15.583 -23.133  0.00  0.00    +0.033 C 
ATOM     26  C   UNL     1      35.002 -16.693 -22.538  0.00  0.00    +0.092 C 
ATOM     27  C   UNL     1      34.232 -15.987 -24.506  0.00  0.00    +0.142 C 
ATOM     28  C   UNL     1      34.395 -14.242 -22.760  0.00  0.00    +0.114 C 
ATOM     29  C   UNL     1      34.916 -17.773 -23.567  0.00  0.00    +0.202 C 
ATOM     30  C   UNL     1      33.909 -13.300 -23.653  0.00  0.00    +0.069 C 
ATOM     31  C   UNL     1      33.714 -14.946 -25.434  0.00  0.00    +0.034 C 
ATOM     32  C   UNL     1      33.574 -13.680 -24.991  0.00  0.00    +0.018 C 
ATOM     33  C   UNL     1      34.155 -11.988 -21.942  0.00  0.00    +0.183 C 
ENDBRANCH  20  26
ENDBRANCH  18  20
ENDBRANCH   1  18
TORSDOF 5
ENDMDL
MODEL 4
REMARK VINA RESULT:     -11.5      2.728     10.474
REMARK  Name = 1712
REMARK  5 active torsions:
REMARK  status: ('A' for Active; 'I' for Inactive)
REMARK    1  A    between atoms: C_1  and  N_18
REMARK    2  A    between atoms: C_2  and  S_7
REMARK    3  A    between atoms: S_7  and  N_10
REMARK    4  A    between atoms: N_18  and  C_20
REMARK    5  A    between atoms: C_20  and  C_26
REMARK                            x       y       z     vdW  Elec       q    Type
REMARK                         _______ _______ _______ _____ _____    ______ ____
ROOT
ATOM      1  C   UNL     1      34.550 -19.128 -20.716  0.00  0.00    +0.045 C 
ATOM      2  C   UNL     1      34.249 -21.113 -18.744  0.00  0.00    +0.125 C 
ATOM      3  C   UNL     1      35.672 -19.777 -20.169  0.00  0.00    +0.016 C 
ATOM      4  C   UNL     1      33.274 -19.496 -20.251  0.00  0.00    +0.016 C 
ATOM      5  C   UNL     1      35.523 -20.762 -19.192  0.00  0.00    +0.021 C 
ATOM      6  C   UNL     1      33.125 -20.480 -19.274  0.00  0.00    +0.021 C 
ENDROOT
BRANCH   2   7
ATOM      7  S   UNL     1      34.063 -22.344 -17.521  0.00  0.00    +0.075 S 
ATOM      8  O   UNL     1      35.180 -22.220 -16.590  0.00  0.00    -0.150 OA
ATOM      9  O   UNL     1      33.836 -23.625 -18.178  0.00  0.00    -0.150 OA
BRANCH   7  10
ATOM     10  N   UNL     1      32.628 -21.854 -16.701  0.00  0.00    -0.199 N 
ATOM     11  H   UNL     1      32.118 -21.068 -17.001  0.00  0.00    +0.175 HD
ATOM     12  N   UNL     1      32.998 -22.573 -14.485  0.00  0.00    -0.228 NA
ATOM     13  C   UNL     1      32.199 -22.629 -15.568  0.00  0.00    +0.147 C 
ATOM     14  C   UNL     1      31.031 -23.361 -15.649  0.00  0.00    +0.036 C 
ATOM     15  C   UNL     1      30.654 -24.095 -14.530  0.00  0.00    +0.005 C 
ATOM     16  C   UNL     1      32.600 -23.299 -13.417  0.00  0.00    +0.100 C 
ATOM     17  C   UNL     1      31.448 -24.068 -13.388  0.00  0.00    +0.021 C 
ENDBRANCH   7  10
ENDBRANCH   2   7
BRANCH   1  18
ATOM     18  N   UNL     1      34.697 -18.151 -21.688  0.00  0.00    -0.328 N 
ATOM     19  H   UNL     1      34.042 -18.124 -22.423  0.00  0.00    +0.147 HD
BRANCH  18  20
ATOM     20  C   UNL     1      35.756 -17.172 -21.688  0.00  0.00    +0.127 C 
BRANCH  20  26
ATOM     21  S   UNL     1      34.658 -15.686 -24.787  0.00  0.00    -0.104 S 
ATOM     22  O   UNL     1      35.593 -15.995 -18.998  0.00  0.00    -0.210 OA
ATOM     23  N   UNL     1      34.603 -14.095 -19.911  0.00  0.00    -0.333 NA
ATOM     24  N   UNL     1      33.550 -13.388 -25.254  0.00  0.00    -0.262 NA
ATOM     25  C   UNL     1      34.654 -14.868 -22.095  0.00  0.00    +0.033 C 
ATOM     26  C   UNL     1      35.196 -15.838 -21.362  0.00  0.00    +0.092 C 
ATOM     27  C   UNL     1      34.305 -13.808 -21.135  0.00  0.00    +0.142 C 
ATOM     28  C   UNL     1      34.376 -14.666 -23.455  0.00  0.00    +0.114 C 
ATOM     29  C   UNL     1      35.170 -15.353 -19.949  0.00  0.00    +0.202 C 
ATOM     30  C   UNL     1      33.784 -13.497 -23.907  0.00  0.00    +0.069 C 
ATOM     31  C   UNL     1      33.670 -12.570 -21.661  0.00  0.00    +0.034 C 
ATOM     32  C   UNL     1      33.439 -12.459 -22.984  0.00  0.00    +0.018 C 
ATOM     33  C   UNL     1      33.976 -14.495 -25.825  0.00  0.00    +0.183 C 
ENDBRANCH  20  26
ENDBRANCH  18  20
ENDBRANCH   1  18
TORSDOF 5
ENDMDL
MODEL 5
REMARK VINA RESULT:     -11.5      3.539     10.610
REMARK  Name = 1712
REMARK  5 active torsions:
REMARK  status: ('A' for Active; 'I' for Inactive)
REMARK    1  A    between atoms: C_1  and  N_18
REMARK    2  A    between atoms: C_2  and  S_7
REMARK    3  A    between atoms: S_7  and  N_10
REMARK    4  A    between atoms: N_18  and  C_20
REMARK    5  A    between atoms: C_20  and  C_26
REMARK                            x       y       z     vdW  Elec       q    Type
REMARK                         _______ _______ _______ _____ _____    ______ ____
ROOT
ATOM      1  C   UNL     1      34.475 -13.709 -23.225  0.00  0.00    +0.045 C 
ATOM      2  C   UNL     1      35.254 -16.280 -22.389  0.00  0.00    +0.125 C 
ATOM      3  C   UNL     1      34.805 -13.961 -21.881  0.00  0.00    +0.016 C 
ATOM      4  C   UNL     1      34.543 -14.775 -24.140  0.00  0.00    +0.016 C 
ATOM      5  C   UNL     1      35.192 -15.236 -21.467  0.00  0.00    +0.021 C 
ATOM      6  C   UNL     1      34.929 -16.050 -23.726  0.00  0.00    +0.021 C 
ENDROOT
BRANCH   2   7
ATOM      7  S   UNL     1      35.737 -17.875 -21.871  0.00  0.00    +0.075 S 
ATOM      8  O   UNL     1      37.178 -17.854 -21.647  0.00  0.00    -0.150 OA
ATOM      9  O   UNL     1      35.185 -18.855 -22.798  0.00  0.00    -0.150 OA
BRANCH   7  10
ATOM     10  N   UNL     1      34.961 -18.031 -20.340  0.00  0.00    -0.199 N 
ATOM     11  H   UNL     1      34.630 -17.239 -19.857  0.00  0.00    +0.175 HD
ATOM     12  N   UNL     1      35.954 -19.964 -19.423  0.00  0.00    -0.228 NA
ATOM     13  C   UNL     1      34.812 -19.350 -19.788  0.00  0.00    +0.147 C 
ATOM     14  C   UNL     1      33.549 -19.897 -19.666  0.00  0.00    +0.036 C 
ATOM     15  C   UNL     1      33.452 -21.175 -19.127  0.00  0.00    +0.005 C 
ATOM     16  C   UNL     1      35.820 -21.206 -18.904  0.00  0.00    +0.100 C 
ATOM     17  C   UNL     1      34.604 -21.848 -18.736  0.00  0.00    +0.021 C 
ENDBRANCH   7  10
ENDBRANCH   2   7
BRANCH   1  18
ATOM     18  N   UNL     1      34.091 -12.442 -23.637  0.00  0.00    -0.328 N 
ATOM     19  H   UNL     1      34.657 -11.977 -24.296  0.00  0.00    +0.147 HD
BRANCH  18  20
ATOM     20  C   UNL     1      32.913 -11.764 -23.156  0.00  0.00    +0.127 C 
BRANCH  20  26
ATOM     21  S   UNL     1      31.708 -10.824 -19.888  0.00  0.00    -0.104 S 
ATOM     22  O   UNL     1      34.240 -10.031 -25.126  0.00  0.00    -0.210 OA
ATOM     23  N   UNL     1      34.057  -8.242 -23.646  0.00  0.00    -0.333 NA
ATOM     24  N   UNL     1      31.768  -8.538 -18.663  0.00  0.00    -0.262 NA
ATOM     25  C   UNL     1      32.999  -9.461 -21.984  0.00  0.00    +0.033 C 
ATOM     26  C   UNL     1      33.211 -10.323 -22.975  0.00  0.00    +0.092 C 
ATOM     27  C   UNL     1      33.547  -8.181 -22.460  0.00  0.00    +0.142 C 
ATOM     28  C   UNL     1      32.419  -9.513 -20.707  0.00  0.00    +0.114 C 
ATOM     29  C   UNL     1      33.894  -9.550 -24.056  0.00  0.00    +0.202 C 
ATOM     30  C   UNL     1      32.353  -8.393 -19.895  0.00  0.00    +0.069 C 
ATOM     31  C   UNL     1      33.458  -7.002 -21.558  0.00  0.00    +0.034 C 
ATOM     32  C   UNL     1      32.883  -7.142 -20.347  0.00  0.00    +0.018 C 
ATOM     33  C   UNL     1      31.385  -9.793 -18.548  0.00  0.00    +0.183 C 
ENDBRANCH  20  26
ENDBRANCH  18  20
ENDBRANCH   1  18
TORSDOF 5
ENDMDL
MODEL 6
REMARK VINA RESULT:     -11.3      2.740     10.953
REMARK  Name = 1712
REMARK  5 active torsions:
REMARK  status: ('A' for Active; 'I' for Inactive)
REMARK    1  A    between atoms: C_1  and  N_18
REMARK    2  A    between atoms: C_2  and  S_7
REMARK    3  A    between atoms: S_7  and  N_10
REMARK    4  A    between atoms: N_18  and  C_20
REMARK    5  A    between atoms: C_20  and  C_26
REMARK                            x       y       z     vdW  Elec       q    Type
REMARK                         _______ _______ _______ _____ _____    ______ ____
ROOT
ATOM      1  C   UNL     1      33.979 -14.440 -24.616  0.00  0.00    +0.045 C 
ATOM      2  C   UNL     1      35.037 -16.630 -23.201  0.00  0.00    +0.125 C 
ATOM      3  C   UNL     1      34.594 -14.261 -23.363  0.00  0.00    +0.016 C 
ATOM      4  C   UNL     1      33.905 -15.742 -25.143  0.00  0.00    +0.016 C 
ATOM      5  C   UNL     1      35.119 -15.346 -22.662  0.00  0.00    +0.021 C 
ATOM      6  C   UNL     1      34.430 -16.828 -24.442  0.00  0.00    +0.021 C 
ENDROOT
BRANCH   2   7
ATOM      7  S   UNL     1      35.693 -17.989 -22.324  0.00  0.00    +0.075 S 
ATOM      8  O   UNL     1      37.094 -17.700 -22.038  0.00  0.00    -0.150 OA
ATOM      9  O   UNL     1      35.361 -19.213 -23.042  0.00  0.00    -0.150 OA
BRANCH   7  10
ATOM     10  N   UNL     1      34.823 -17.939 -20.837  0.00  0.00    -0.199 N 
ATOM     11  H   UNL     1      34.409 -17.104 -20.520  0.00  0.00    +0.175 HD
ATOM     12  N   UNL     1      35.871 -19.608 -19.541  0.00  0.00    -0.228 NA
ATOM     13  C   UNL     1      34.720 -19.153 -20.073  0.00  0.00    +0.147 C 
ATOM     14  C   UNL     1      33.490 -19.765 -19.931  0.00  0.00    +0.036 C 
ATOM     15  C   UNL     1      33.437 -20.936 -19.183  0.00  0.00    +0.005 C 
ATOM     16  C   UNL     1      35.781 -20.750 -18.821  0.00  0.00    +0.100 C 
ATOM     17  C   UNL     1      34.600 -21.444 -18.615  0.00  0.00    +0.021 C 
ENDBRANCH   7  10
ENDBRANCH   2   7
BRANCH   1  18
ATOM     18  N   UNL     1      33.458 -13.361 -25.313  0.00  0.00    -0.328 N 
ATOM     19  H   UNL     1      33.423 -13.416 -26.296  0.00  0.00    +0.147 HD
BRANCH  18  20
ATOM     20  C   UNL     1      32.965 -12.161 -24.684  0.00  0.00    +0.127 C 
BRANCH  20  26
ATOM     21  S   UNL     1      32.565  -9.733 -22.045  0.00  0.00    -0.104 S 
ATOM     22  O   UNL     1      34.762 -11.983 -27.004  0.00  0.00    -0.210 OA
ATOM     23  N   UNL     1      35.509  -9.912 -26.241  0.00  0.00    -0.333 NA
ATOM     24  N   UNL     1      33.728  -7.445 -21.670  0.00  0.00    -0.262 NA
ATOM     25  C   UNL     1      34.155  -9.888 -24.361  0.00  0.00    +0.033 C 
ATOM     26  C   UNL     1      33.884 -11.036 -24.978  0.00  0.00    +0.092 C 
ATOM     27  C   UNL     1      35.175  -9.231 -25.195  0.00  0.00    +0.142 C 
ATOM     28  C   UNL     1      33.715  -9.239 -23.197  0.00  0.00    +0.114 C 
ATOM     29  C   UNL     1      34.751 -11.065 -26.195  0.00  0.00    +0.202 C 
ATOM     30  C   UNL     1      34.218  -8.003 -22.823  0.00  0.00    +0.069 C 
ATOM     31  C   UNL     1      35.689  -7.906 -24.758  0.00  0.00    +0.034 C 
ATOM     32  C   UNL     1      35.209  -7.354 -23.626  0.00  0.00    +0.018 C 
ATOM     33  C   UNL     1      32.839  -8.277 -21.169  0.00  0.00    +0.183 C 
ENDBRANCH  20  26
ENDBRANCH  18  20
ENDBRANCH   1  18
TORSDOF 5
ENDMDL
MODEL 7
REMARK VINA RESULT:     -11.3      3.833     10.480
REMARK  Name = 1712
REMARK  5 active torsions:
REMARK  status: ('A' for Active; 'I' for Inactive)
REMARK    1  A    between atoms: C_1  and  N_18
REMARK    2  A    between atoms: C_2  and  S_7
REMARK    3  A    between atoms: S_7  and  N_10
REMARK    4  A    between atoms: N_18  and  C_20
REMARK    5  A    between atoms: C_20  and  C_26
REMARK                            x       y       z     vdW  Elec       q    Type
REMARK                         _______ _______ _______ _____ _____    ______ ____
ROOT
ATOM      1  C   UNL     1      34.419 -13.576 -22.548  0.00  0.00    +0.045 C 
ATOM      2  C   UNL     1      35.290 -16.206 -22.057  0.00  0.00    +0.125 C 
ATOM      3  C   UNL     1      34.791 -13.983 -21.253  0.00  0.00    +0.016 C 
ATOM      4  C   UNL     1      34.493 -14.518 -23.590  0.00  0.00    +0.016 C 
ATOM      5  C   UNL     1      35.223 -15.286 -21.010  0.00  0.00    +0.021 C 
ATOM      6  C   UNL     1      34.925 -15.821 -23.347  0.00  0.00    +0.021 C 
ENDROOT
BRANCH   2   7
ATOM      7  S   UNL     1      35.829 -17.838 -21.752  0.00  0.00    +0.075 S 
ATOM      8  O   UNL     1      37.287 -17.826 -21.715  0.00  0.00    -0.150 OA
ATOM      9  O   UNL     1      35.157 -18.734 -22.686  0.00  0.00    -0.150 OA
BRANCH   7  10
ATOM     10  N   UNL     1      35.257 -18.137 -20.154  0.00  0.00    -0.199 N 
ATOM     11  H   UNL     1      35.148 -17.402 -19.509  0.00  0.00    +0.175 HD
ATOM     12  N   UNL     1      35.992 -20.336 -19.719  0.00  0.00    -0.228 NA
ATOM     13  C   UNL     1      34.944 -19.493 -19.791  0.00  0.00    +0.147 C 
ATOM     14  C   UNL     1      33.631 -19.845 -19.543  0.00  0.00    +0.036 C 
ATOM     15  C   UNL     1      33.374 -21.166 -19.195  0.00  0.00    +0.005 C 
ATOM     16  C   UNL     1      35.704 -21.612 -19.378  0.00  0.00    +0.100 C 
ATOM     17  C   UNL     1      34.425 -22.073 -19.108  0.00  0.00    +0.021 C 
ENDBRANCH   7  10
ENDBRANCH   2   7
BRANCH   1  18
ATOM     18  N   UNL     1      33.991 -12.280 -22.790  0.00  0.00    -0.328 N 
ATOM     19  H   UNL     1      34.667 -11.604 -23.027  0.00  0.00    +0.147 HD
BRANCH  18  20
ATOM     20  C   UNL     1      32.613 -11.862 -22.714  0.00  0.00    +0.127 C 
BRANCH  20  26
ATOM     21  S   UNL     1      33.087  -8.322 -23.221  0.00  0.00    -0.104 S 
ATOM     22  O   UNL     1      31.884 -13.216 -20.208  0.00  0.00    -0.210 OA
ATOM     23  N   UNL     1      31.831 -11.151 -19.132  0.00  0.00    -0.333 NA
ATOM     24  N   UNL     1      32.887  -6.340 -21.559  0.00  0.00    -0.262 NA
ATOM     25  C   UNL     1      32.400  -9.926 -21.013  0.00  0.00    +0.033 C 
ATOM     26  C   UNL     1      32.370 -11.195 -21.413  0.00  0.00    +0.092 C 
ATOM     27  C   UNL     1      32.056  -9.962 -19.583  0.00  0.00    +0.142 C 
ATOM     28  C   UNL     1      32.666  -8.685 -21.613  0.00  0.00    +0.114 C 
ATOM     29  C   UNL     1      32.003 -11.999 -20.207  0.00  0.00    +0.202 C 
ATOM     30  C   UNL     1      32.611  -7.505 -20.890  0.00  0.00    +0.069 C 
ATOM     31  C   UNL     1      32.007  -8.673 -18.842  0.00  0.00    +0.034 C 
ATOM     32  C   UNL     1      32.278  -7.526 -19.498  0.00  0.00    +0.018 C 
ATOM     33  C   UNL     1      33.155  -6.651 -22.810  0.00  0.00    +0.183 C 
ENDBRANCH  20  26
ENDBRANCH  18  20
ENDBRANCH   1  18
TORSDOF 5
ENDMDL
MODEL 8
REMARK VINA RESULT:     -11.2      2.733     10.885
REMARK  Name = 1712
REMARK  5 active torsions:
REMARK  status: ('A' for Active; 'I' for Inactive)
REMARK    1  A    between atoms: C_1  and  N_18
REMARK    2  A    between atoms: C_2  and  S_7
REMARK    3  A    between atoms: S_7  and  N_10
REMARK    4  A    between atoms: N_18  and  C_20
REMARK    5  A    between atoms: C_20  and  C_26
REMARK                            x       y       z     vdW  Elec       q    Type
REMARK                         _______ _______ _______ _____ _____    ______ ____
ROOT
ATOM      1  C   UNL     1      34.832 -20.202 -19.580  0.00  0.00    +0.045 C 
ATOM      2  C   UNL     1      34.937 -21.728 -17.218  0.00  0.00    +0.125 C 
ATOM      3  C   UNL     1      36.052 -20.415 -18.913  0.00  0.00    +0.016 C 
ATOM      4  C   UNL     1      33.665 -20.769 -19.036  0.00  0.00    +0.016 C 
ATOM      5  C   UNL     1      36.104 -21.172 -17.742  0.00  0.00    +0.021 C 
ATOM      6  C   UNL     1      33.717 -21.526 -17.866  0.00  0.00    +0.021 C 
ENDROOT
BRANCH   2   7
ATOM      7  S   UNL     1      35.001 -22.673 -15.753  0.00  0.00    +0.075 S 
ATOM      8  O   UNL     1      34.580 -24.031 -16.080  0.00  0.00    -0.150 OA
ATOM      9  O   UNL     1      34.295 -21.953 -14.701  0.00  0.00    -0.150 OA
BRANCH   7  10
ATOM     10  N   UNL     1      36.687 -22.709 -15.395  0.00  0.00    -0.199 N 
ATOM     11  H   UNL     1      37.313 -22.097 -15.846  0.00  0.00    +0.175 HD
ATOM     12  N   UNL     1      37.062 -24.953 -14.774  0.00  0.00    -0.228 NA
ATOM     13  C   UNL     1      37.151 -23.657 -14.419  0.00  0.00    +0.147 C 
ATOM     14  C   UNL     1      37.647 -23.203 -13.212  0.00  0.00    +0.036 C 
ATOM     15  C   UNL     1      38.085 -24.155 -12.298  0.00  0.00    +0.005 C 
ATOM     16  C   UNL     1      37.496 -25.850 -13.860  0.00  0.00    +0.100 C 
ATOM     17  C   UNL     1      38.012 -25.505 -12.621  0.00  0.00    +0.021 C 
ENDBRANCH   7  10
ENDBRANCH   2   7
BRANCH   1  18
ATOM     18  N   UNL     1      34.780 -19.450 -20.744  0.00  0.00    -0.328 N 
ATOM     19  H   UNL     1      34.180 -19.751 -21.465  0.00  0.00    +0.147 HD
BRANCH  18  20
ATOM     20  C   UNL     1      35.556 -18.254 -20.963  0.00  0.00    +0.127 C 
BRANCH  20  26
ATOM     21  S   UNL     1      34.991 -14.755 -20.293  0.00  0.00    -0.104 S 
ATOM     22  O   UNL     1      35.260 -19.640 -23.539  0.00  0.00    -0.210 OA
ATOM     23  N   UNL     1      34.632 -17.627 -24.527  0.00  0.00    -0.333 NA
ATOM     24  N   UNL     1      34.249 -12.835 -21.873  0.00  0.00    -0.262 NA
ATOM     25  C   UNL     1      34.813 -16.380 -22.583  0.00  0.00    +0.033 C 
ATOM     26  C   UNL     1      35.142 -17.623 -22.239  0.00  0.00    +0.092 C 
ATOM     27  C   UNL     1      34.505 -16.445 -24.020  0.00  0.00    +0.142 C 
ATOM     28  C   UNL     1      34.708 -15.146 -21.925  0.00  0.00    +0.114 C 
ATOM     29  C   UNL     1      35.030 -18.440 -23.486  0.00  0.00    +0.202 C 
ATOM     30  C   UNL     1      34.324 -13.997 -22.597  0.00  0.00    +0.069 C 
ATOM     31  C   UNL     1      34.097 -15.190 -24.706  0.00  0.00    +0.034 C 
ATOM     32  C   UNL     1      34.022 -14.046 -23.996  0.00  0.00    +0.018 C 
ATOM     33  C   UNL     1      34.582 -13.116 -20.630  0.00  0.00    +0.183 C 
ENDBRANCH  20  26
ENDBRANCH  18  20
ENDBRANCH   1  18
TORSDOF 5
ENDMDL
MODEL 9
REMARK VINA RESULT:     -11.2      3.617      6.420
REMARK  Name = 1712
REMARK  5 active torsions:
REMARK  status: ('A' for Active; 'I' for Inactive)
REMARK    1  A    between atoms: C_1  and  N_18
REMARK    2  A    between atoms: C_2  and  S_7
REMARK    3  A    between atoms: S_7  and  N_10
REMARK    4  A    between atoms: N_18  and  C_20
REMARK    5  A    between atoms: C_20  and  C_26
REMARK                            x       y       z     vdW  Elec       q    Type
REMARK                         _______ _______ _______ _____ _____    ______ ____
ROOT
ATOM      1  C   UNL     1      34.449 -22.536 -16.331  0.00  0.00    +0.045 C 
ATOM      2  C   UNL     1      35.479 -20.905 -18.379  0.00  0.00    +0.125 C 
ATOM      3  C   UNL     1      33.660 -22.191 -17.444  0.00  0.00    +0.016 C 
ATOM      4  C   UNL     1      35.766 -22.044 -16.268  0.00  0.00    +0.016 C 
ATOM      5  C   UNL     1      34.171 -21.383 -18.459  0.00  0.00    +0.021 C 
ATOM      6  C   UNL     1      36.276 -21.236 -17.283  0.00  0.00    +0.021 C 
ENDROOT
BRANCH   2   7
ATOM      7  S   UNL     1      36.118 -19.892 -19.649  0.00  0.00    +0.075 S 
ATOM      8  O   UNL     1      36.229 -20.706 -20.855  0.00  0.00    -0.150 OA
ATOM      9  O   UNL     1      37.306 -19.210 -19.150  0.00  0.00    -0.150 OA
BRANCH   7  10
ATOM     10  N   UNL     1      34.855 -18.744 -19.894  0.00  0.00    -0.199 N 
ATOM     11  H   UNL     1      34.041 -18.762 -19.342  0.00  0.00    +0.175 HD
ATOM     12  N   UNL     1      35.028 -18.232 -22.190  0.00  0.00    -0.228 NA
ATOM     13  C   UNL     1      35.028 -17.760 -20.929  0.00  0.00    +0.147 C 
ATOM     14  C   UNL     1      35.178 -16.431 -20.584  0.00  0.00    +0.036 C 
ATOM     15  C   UNL     1      35.341 -15.514 -21.616  0.00  0.00    +0.005 C 
ATOM     16  C   UNL     1      35.189 -17.312 -23.167  0.00  0.00    +0.100 C 
ATOM     17  C   UNL     1      35.348 -15.955 -22.935  0.00  0.00    +0.021 C 
ENDBRANCH   7  10
ENDBRANCH   2   7
BRANCH   1  18
ATOM     18  N   UNL     1      33.942 -23.341 -15.322  0.00  0.00    -0.328 N 
ATOM     19  H   UNL     1      33.024 -23.170 -15.010  0.00  0.00    +0.147 HD
BRANCH  18  20
ATOM     20  C   UNL     1      34.682 -24.412 -14.702  0.00  0.00    +0.127 C 
BRANCH  20  26
ATOM     21  S   UNL     1      38.268 -24.801 -14.764  0.00  0.00    -0.104 S 
ATOM     22  O   UNL     1      33.044 -23.397 -12.482  0.00  0.00    -0.210 OA
ATOM     23  N   UNL     1      34.976 -23.105 -11.215  0.00  0.00    -0.333 NA
ATOM     24  N   UNL     1      40.051 -24.286 -12.951  0.00  0.00    -0.262 NA
ATOM     25  C   UNL     1      36.415 -23.880 -12.857  0.00  0.00    +0.033 C 
ATOM     26  C   UNL     1      35.196 -23.960 -13.387  0.00  0.00    +0.092 C 
ATOM     27  C   UNL     1      36.213 -23.341 -11.503  0.00  0.00    +0.142 C 
ATOM     28  C   UNL     1      37.720 -24.175 -13.280  0.00  0.00    +0.114 C 
ATOM     29  C   UNL     1      34.256 -23.463 -12.337  0.00  0.00    +0.202 C 
ATOM     30  C   UNL     1      38.813 -23.969 -12.453  0.00  0.00    +0.069 C 
ATOM     31  C   UNL     1      37.412 -23.133 -10.647  0.00  0.00    +0.034 C 
ATOM     32  C   UNL     1      38.630 -23.444 -11.134  0.00  0.00    +0.018 C 
ATOM     33  C   UNL     1      39.885 -24.740 -14.175  0.00  0.00    +0.183 C 
ENDBRANCH  20  26
ENDBRANCH  18  20
ENDBRANCH   1  18
TORSDOF 5
ENDMDL
