MODEL 1
REMARK VINA RESULT:     -12.9      0.000      0.000
REMARK  Name = 71245288
REMARK  5 active torsions:
REMARK  status: ('A' for Active; 'I' for Inactive)
REMARK    1  A    between atoms: C_3  and  C_9
REMARK    2  A    between atoms: C_6  and  N_14
REMARK    3  A    between atoms: C_15  and  C_18
REMARK    4  A    between atoms: C_22  and  C_30
REMARK    5  A    between atoms: N_27  and  C_32
REMARK                            x       y       z     vdW  Elec       q    Type
REMARK                         _______ _______ _______ _____ _____    ______ ____
ROOT
ATOM      1  O   UNL     1      33.044 -21.094 -19.052  0.00  0.00    -0.270 OA
ATOM      2  N   UNL     1      34.665 -21.452 -17.393  0.00  0.00    -0.259 N 
ATOM      3  C   UNL     1      34.198 -20.954 -18.618  0.00  0.00    +0.253 C 
ATOM      4  H   UNL     1      35.608 -21.261 -17.184  0.00  0.00    +0.157 HD
ATOM      5  N   UNL     1      34.610 -22.578 -15.298  0.00  0.00    -0.388 NA
ATOM      6  C   UNL     1      33.894 -23.286 -14.396  0.00  0.00    +0.166 C 
ATOM      7  C   UNL     1      33.957 -22.196 -16.417  0.00  0.00    +0.167 C 
ATOM      8  C   UNL     1      32.561 -23.627 -14.561  0.00  0.00    +0.031 C 
ATOM      9  C   UNL     1      32.627 -22.486 -16.676  0.00  0.00    +0.101 C 
ATOM     10  C   UNL     1      31.923 -23.215 -15.725  0.00  0.00    -0.015 C 
ENDROOT
BRANCH   3  15
ATOM     11  F   UNL     1      36.952 -21.005 -18.067  0.00  0.00    -0.204 F 
ATOM     12  C   UNL     1      35.645 -18.686 -21.225  0.00  0.00    +0.046 C 
ATOM     13  C   UNL     1      37.003 -18.743 -20.912  0.00  0.00    -0.006 C 
ATOM     14  C   UNL     1      34.724 -19.412 -20.470  0.00  0.00    +0.021 C 
ATOM     15  C   UNL     1      35.161 -20.197 -19.403  0.00  0.00    +0.082 C 
ATOM     16  C   UNL     1      37.440 -19.527 -19.845  0.00  0.00    +0.027 C 
ATOM     17  C   UNL     1      38.016 -17.976 -21.700  0.00  0.00    +0.032 C 
ATOM     18  C   UNL     1      36.519 -20.254 -19.091  0.00  0.00    +0.144 C 
BRANCH  12  20
ATOM     19  N   UNL     1      34.214 -17.386 -24.205  0.00  0.00    -0.255 NA
ATOM     20  N   UNL     1      35.190 -17.913 -22.280  0.00  0.00    -0.282 N 
ATOM     21  C   UNL     1      34.724 -16.259 -23.610  0.00  0.00    +0.053 C 
ATOM     22  C   UNL     1      35.333 -16.561 -22.415  0.00  0.00    +0.134 C 
ATOM     23  C   UNL     1      34.512 -18.364 -23.379  0.00  0.00    +0.219 C 
BRANCH  21  24
ATOM     24  C   UNL     1      34.622 -14.858 -24.205  0.00  0.00    +0.037 C 
ATOM     25  C   UNL     1      33.648 -13.889 -23.603  0.00  0.00    +0.006 C 
ATOM     26  C   UNL     1      33.378 -14.483 -24.955  0.00  0.00    +0.006 C 
ENDBRANCH  21  24
ENDBRANCH  12  20
ENDBRANCH   3  15
BRANCH   6  30
ATOM     27  N   UNL     1      35.880 -24.204 -13.242  0.00  0.00    -0.252 N 
ATOM     28  N   UNL     1      34.209 -23.576 -11.978  0.00  0.00    -0.129 NA
ATOM     29  N   UNL     1      35.215 -24.056 -11.164  0.00  0.00    -0.128 NA
ATOM     30  C   UNL     1      34.626 -23.674 -13.219  0.00  0.00    +0.188 C 
ATOM     31  C   UNL     1      36.208 -24.427 -11.939  0.00  0.00    +0.192 C 
BRANCH  27  32
ATOM     32  C   UNL     1      36.710 -24.480 -14.390  0.00  0.00    +0.080 C 
ATOM     33  C   UNL     1      38.069 -23.785 -14.282  0.00  0.00    +0.022 C 
ATOM     34  C   UNL     1      36.884 -25.985 -14.610  0.00  0.00    +0.022 C 
ENDBRANCH  27  32
ENDBRANCH   6  30
TORSDOF 5
ENDMDL
MODEL 2
REMARK VINA RESULT:     -12.3      1.605     10.712
REMARK  Name = 71245288
REMARK  5 active torsions:
REMARK  status: ('A' for Active; 'I' for Inactive)
REMARK    1  A    between atoms: C_3  and  C_9
REMARK    2  A    between atoms: C_6  and  N_14
REMARK    3  A    between atoms: C_15  and  C_18
REMARK    4  A    between atoms: C_22  and  C_30
REMARK    5  A    between atoms: N_27  and  C_32
REMARK                            x       y       z     vdW  Elec       q    Type
REMARK                         _______ _______ _______ _____ _____    ______ ____
ROOT
ATOM      1  O   UNL     1      36.973 -20.798 -17.933  0.00  0.00    -0.270 OA
ATOM      2  N   UNL     1      35.212 -20.108 -19.321  0.00  0.00    -0.259 N 
ATOM      3  C   UNL     1      35.769 -20.793 -18.232  0.00  0.00    +0.253 C 
ATOM      4  H   UNL     1      34.238 -20.199 -19.432  0.00  0.00    +0.157 HD
ATOM      5  N   UNL     1      35.128 -18.730 -21.259  0.00  0.00    -0.388 NA
ATOM      6  C   UNL     1      35.797 -17.970 -22.154  0.00  0.00    +0.166 C 
ATOM      7  C   UNL     1      35.868 -19.302 -20.284  0.00  0.00    +0.167 C 
ATOM      8  C   UNL     1      37.166 -17.756 -22.120  0.00  0.00    +0.031 C 
ATOM      9  C   UNL     1      37.240 -19.150 -20.162  0.00  0.00    +0.101 C 
ATOM     10  C   UNL     1      37.894 -18.361 -21.102  0.00  0.00    -0.015 C 
ENDROOT
BRANCH   3  15
ATOM     11  F   UNL     1      33.107 -21.242 -19.005  0.00  0.00    -0.204 F 
ATOM     12  C   UNL     1      34.347 -22.729 -15.358  0.00  0.00    +0.046 C 
ATOM     13  C   UNL     1      33.034 -22.927 -15.786  0.00  0.00    -0.006 C 
ATOM     14  C   UNL     1      35.245 -22.028 -16.162  0.00  0.00    +0.021 C 
ATOM     15  C   UNL     1      34.830 -21.524 -17.395  0.00  0.00    +0.082 C 
ATOM     16  C   UNL     1      32.619 -22.422 -17.017  0.00  0.00    +0.027 C 
ATOM     17  C   UNL     1      32.045 -23.672 -14.947  0.00  0.00    +0.032 C 
ATOM     18  C   UNL     1      33.517 -21.721 -17.822  0.00  0.00    +0.144 C 
BRANCH  12  20
ATOM     19  N   UNL     1      34.765 -23.726 -11.974  0.00  0.00    -0.255 NA
ATOM     20  N   UNL     1      34.779 -23.221 -14.138  0.00  0.00    -0.282 N 
ATOM     21  C   UNL     1      35.939 -24.145 -12.549  0.00  0.00    +0.053 C 
ATOM     22  C   UNL     1      35.971 -23.843 -13.890  0.00  0.00    +0.134 C 
ATOM     23  C   UNL     1      34.090 -23.174 -12.957  0.00  0.00    +0.219 C 
BRANCH  21  24
ATOM     24  C   UNL     1      37.057 -24.854 -11.791  0.00  0.00    +0.037 C 
ATOM     25  C   UNL     1      38.268 -24.063 -11.391  0.00  0.00    +0.006 C 
ATOM     26  C   UNL     1      38.366 -25.083 -12.487  0.00  0.00    +0.006 C 
ENDBRANCH  21  24
ENDBRANCH  12  20
ENDBRANCH   3  15
BRANCH   6  30
ATOM     27  N   UNL     1      34.736 -16.044 -23.285  0.00  0.00    -0.252 N 
ATOM     28  N   UNL     1      34.343 -18.022 -24.133  0.00  0.00    -0.129 NA
ATOM     29  N   UNL     1      33.673 -17.082 -24.891  0.00  0.00    -0.128 NA
ATOM     30  C   UNL     1      34.973 -17.380 -23.176  0.00  0.00    +0.188 C 
ATOM     31  C   UNL     1      33.921 -15.903 -24.368  0.00  0.00    +0.192 C 
BRANCH  27  32
ATOM     32  C   UNL     1      35.231 -14.979 -22.447  0.00  0.00    +0.080 C 
ATOM     33  C   UNL     1      34.743 -13.610 -22.927  0.00  0.00    +0.022 C 
ATOM     34  C   UNL     1      34.866 -15.203 -20.978  0.00  0.00    +0.022 C 
ENDBRANCH  27  32
ENDBRANCH   6  30
TORSDOF 5
ENDMDL
MODEL 3
REMARK VINA RESULT:     -12.0      3.150     10.962
REMARK  Name = 71245288
REMARK  5 active torsions:
REMARK  status: ('A' for Active; 'I' for Inactive)
REMARK    1  A    between atoms: C_3  and  C_9
REMARK    2  A    between atoms: C_6  and  N_14
REMARK    3  A    between atoms: C_15  and  C_18
REMARK    4  A    between atoms: C_22  and  C_30
REMARK    5  A    between atoms: N_27  and  C_32
REMARK                            x       y       z     vdW  Elec       q    Type
REMARK                         _______ _______ _______ _____ _____    ______ ____
ROOT
ATOM      1  O   UNL     1      34.839 -18.179 -23.710  0.00  0.00    -0.270 OA
ATOM      2  N   UNL     1      34.950 -16.213 -22.434  0.00  0.00    -0.259 N 
ATOM      3  C   UNL     1      35.090 -17.592 -22.647  0.00  0.00    +0.253 C 
ATOM      4  H   UNL     1      35.189 -15.892 -21.535  0.00  0.00    +0.157 HD
ATOM      5  N   UNL     1      34.450 -13.939 -22.922  0.00  0.00    -0.388 NA
ATOM      6  C   UNL     1      34.023 -13.029 -23.825  0.00  0.00    +0.166 C 
ATOM      7  C   UNL     1      34.509 -15.222 -23.344  0.00  0.00    +0.167 C 
ATOM      8  C   UNL     1      33.654 -13.340 -25.125  0.00  0.00    +0.031 C 
ATOM      9  C   UNL     1      34.163 -15.635 -24.620  0.00  0.00    +0.101 C 
ATOM     10  C   UNL     1      33.728 -14.670 -25.522  0.00  0.00    -0.015 C 
ENDROOT
BRANCH   3  15
ATOM     11  F   UNL     1      37.813 -17.626 -21.959  0.00  0.00    -0.204 F 
ATOM     12  C   UNL     1      35.200 -19.848 -19.658  0.00  0.00    +0.046 C 
ATOM     13  C   UNL     1      36.562 -19.833 -19.355  0.00  0.00    -0.006 C 
ATOM     14  C   UNL     1      34.717 -19.112 -20.740  0.00  0.00    +0.021 C 
ATOM     15  C   UNL     1      35.597 -18.360 -21.519  0.00  0.00    +0.082 C 
ATOM     16  C   UNL     1      37.441 -19.083 -20.135  0.00  0.00    +0.027 C 
ATOM     17  C   UNL     1      37.112 -20.612 -18.204  0.00  0.00    +0.032 C 
ATOM     18  C   UNL     1      36.958 -18.345 -21.217  0.00  0.00    +0.144 C 
BRANCH  12  20
ATOM     19  N   UNL     1      32.378 -21.339 -18.099  0.00  0.00    -0.255 NA
ATOM     20  N   UNL     1      34.310 -20.588 -18.897  0.00  0.00    -0.282 N 
ATOM     21  C   UNL     1      33.424 -21.983 -17.486  0.00  0.00    +0.053 C 
ATOM     22  C   UNL     1      34.632 -21.534 -17.965  0.00  0.00    +0.134 C 
ATOM     23  C   UNL     1      32.946 -20.506 -18.942  0.00  0.00    +0.219 C 
BRANCH  21  24
ATOM     24  C   UNL     1      33.258 -23.055 -16.414  0.00  0.00    +0.037 C 
ATOM     25  C   UNL     1      32.346 -22.780 -15.255  0.00  0.00    +0.006 C 
ATOM     26  C   UNL     1      33.833 -22.807 -15.051  0.00  0.00    +0.006 C 
ENDBRANCH  21  24
ENDBRANCH  12  20
ENDBRANCH   3  15
BRANCH   6  30
ATOM     27  N   UNL     1      33.190 -11.266 -22.303  0.00  0.00    -0.252 N 
ATOM     28  N   UNL     1      34.663 -10.658 -23.802  0.00  0.00    -0.129 NA
ATOM     29  N   UNL     1      34.320  -9.550 -23.052  0.00  0.00    -0.128 NA
ATOM     30  C   UNL     1      33.975 -11.676 -23.337  0.00  0.00    +0.188 C 
ATOM     31  C   UNL     1      33.437  -9.935 -22.159  0.00  0.00    +0.192 C 
BRANCH  27  32
ATOM     32  C   UNL     1      32.281 -12.056 -21.507  0.00  0.00    +0.080 C 
ATOM     33  C   UNL     1      33.015 -12.815 -20.400  0.00  0.00    +0.022 C 
ATOM     34  C   UNL     1      31.153 -11.200 -20.926  0.00  0.00    +0.022 C 
ENDBRANCH  27  32
ENDBRANCH   6  30
TORSDOF 5
ENDMDL
MODEL 4
REMARK VINA RESULT:     -11.9      2.092     10.650
REMARK  Name = 71245288
REMARK  5 active torsions:
REMARK  status: ('A' for Active; 'I' for Inactive)
REMARK    1  A    between atoms: C_3  and  C_9
REMARK    2  A    between atoms: C_6  and  N_14
REMARK    3  A    between atoms: C_15  and  C_18
REMARK    4  A    between atoms: C_22  and  C_30
REMARK    5  A    between atoms: N_27  and  C_32
REMARK                            x       y       z     vdW  Elec       q    Type
REMARK                         _______ _______ _______ _____ _____    ______ ____
ROOT
ATOM      1  O   UNL     1      37.169 -21.169 -19.364  0.00  0.00    -0.270 OA
ATOM      2  N   UNL     1      35.581 -19.449 -19.195  0.00  0.00    -0.259 N 
ATOM      3  C   UNL     1      36.155 -20.679 -18.842  0.00  0.00    +0.253 C 
ATOM      4  H   UNL     1      34.776 -19.193 -18.691  0.00  0.00    +0.157 HD
ATOM      5  N   UNL     1      35.298 -17.393 -20.356  0.00  0.00    -0.388 NA
ATOM      6  C   UNL     1      35.744 -16.545 -21.311  0.00  0.00    +0.166 C 
ATOM      7  C   UNL     1      36.008 -18.529 -20.183  0.00  0.00    +0.167 C 
ATOM      8  C   UNL     1      36.862 -16.779 -22.094  0.00  0.00    +0.031 C 
ATOM      9  C   UNL     1      37.140 -18.856 -20.914  0.00  0.00    +0.101 C 
ATOM     10  C   UNL     1      37.568 -17.959 -21.887  0.00  0.00    -0.015 C 
ENDROOT
BRANCH   3  15
ATOM     11  F   UNL     1      33.419 -21.307 -18.899  0.00  0.00    -0.204 F 
ATOM     12  C   UNL     1      35.614 -22.487 -15.606  0.00  0.00    +0.046 C 
ATOM     13  C   UNL     1      34.251 -22.775 -15.680  0.00  0.00    -0.006 C 
ATOM     14  C   UNL     1      36.239 -21.797 -16.645  0.00  0.00    +0.021 C 
ATOM     15  C   UNL     1      35.501 -21.397 -17.760  0.00  0.00    +0.082 C 
ATOM     16  C   UNL     1      33.513 -22.375 -16.793  0.00  0.00    +0.027 C 
ATOM     17  C   UNL     1      33.550 -23.511 -14.583  0.00  0.00    +0.032 C 
ATOM     18  C   UNL     1      34.138 -21.686 -17.833  0.00  0.00    +0.144 C 
BRANCH  12  20
ATOM     19  N   UNL     1      37.057 -23.006 -12.402  0.00  0.00    -0.255 NA
ATOM     20  N   UNL     1      36.365 -22.875 -14.509  0.00  0.00    -0.282 N 
ATOM     21  C   UNL     1      37.830 -23.808 -13.204  0.00  0.00    +0.053 C 
ATOM     22  C   UNL     1      37.420 -23.743 -14.515  0.00  0.00    +0.134 C 
ATOM     23  C   UNL     1      36.184 -22.459 -13.218  0.00  0.00    +0.219 C 
BRANCH  21  24
ATOM     24  C   UNL     1      38.991 -24.658 -12.698  0.00  0.00    +0.037 C 
ATOM     25  C   UNL     1      40.306 -24.583 -13.418  0.00  0.00    +0.006 C 
ATOM     26  C   UNL     1      39.456 -25.814 -13.534  0.00  0.00    +0.006 C 
ENDBRANCH  21  24
ENDBRANCH  12  20
ENDBRANCH   3  15
BRANCH   6  30
ATOM     27  N   UNL     1      34.520 -14.874 -22.662  0.00  0.00    -0.252 N 
ATOM     28  N   UNL     1      34.558 -14.553 -20.498  0.00  0.00    -0.129 NA
ATOM     29  N   UNL     1      33.836 -13.529 -21.078  0.00  0.00    -0.128 NA
ATOM     30  C   UNL     1      34.959 -15.348 -21.464  0.00  0.00    +0.188 C 
ATOM     31  C   UNL     1      33.824 -13.739 -22.374  0.00  0.00    +0.192 C 
BRANCH  27  32
ATOM     32  C   UNL     1      34.730 -15.436 -23.974  0.00  0.00    +0.080 C 
ATOM     33  C   UNL     1      34.185 -16.864 -24.069  0.00  0.00    +0.022 C 
ATOM     34  C   UNL     1      34.130 -14.551 -25.069  0.00  0.00    +0.022 C 
ENDBRANCH  27  32
ENDBRANCH   6  30
TORSDOF 5
ENDMDL
MODEL 5
REMARK VINA RESULT:     -11.3      2.969      5.470
REMARK  Name = 71245288
REMARK  5 active torsions:
REMARK  status: ('A' for Active; 'I' for Inactive)
REMARK    1  A    between atoms: C_3  and  C_9
REMARK    2  A    between atoms: C_6  and  N_14
REMARK    3  A    between atoms: C_15  and  C_18
REMARK    4  A    between atoms: C_22  and  C_30
REMARK    5  A    between atoms: N_27  and  C_32
REMARK                            x       y       z     vdW  Elec       q    Type
REMARK                         _______ _______ _______ _____ _____    ______ ____
ROOT
ATOM      1  O   UNL     1      37.118 -17.683 -21.734  0.00  0.00    -0.270 OA
ATOM      2  N   UNL     1      35.054 -18.416 -20.890  0.00  0.00    -0.259 N 
ATOM      3  C   UNL     1      35.879 -17.633 -21.712  0.00  0.00    +0.253 C 
ATOM      4  H   UNL     1      34.087 -18.263 -20.985  0.00  0.00    +0.157 HD
ATOM      5  N   UNL     1      34.462 -20.035 -19.252  0.00  0.00    -0.388 NA
ATOM      6  C   UNL     1      34.871 -20.962 -18.357  0.00  0.00    +0.166 C 
ATOM      7  C   UNL     1      35.433 -19.396 -19.941  0.00  0.00    +0.167 C 
ATOM      8  C   UNL     1      36.199 -21.278 -18.120  0.00  0.00    +0.031 C 
ATOM      9  C   UNL     1      36.787 -19.639 -19.778  0.00  0.00    +0.101 C 
ATOM     10  C   UNL     1      37.170 -20.599 -18.848  0.00  0.00    -0.015 C 
ENDROOT
BRANCH   3  15
ATOM     11  F   UNL     1      35.163 -18.369 -24.326  0.00  0.00    -0.204 F 
ATOM     12  C   UNL     1      34.212 -14.557 -23.051  0.00  0.00    +0.046 C 
ATOM     13  C   UNL     1      33.877 -14.969 -24.342  0.00  0.00    -0.006 C 
ATOM     14  C   UNL     1      34.870 -15.433 -22.188  0.00  0.00    +0.021 C 
ATOM     15  C   UNL     1      35.193 -16.722 -22.615  0.00  0.00    +0.082 C 
ATOM     16  C   UNL     1      34.200 -16.256 -24.768  0.00  0.00    +0.027 C 
ATOM     17  C   UNL     1      33.173 -14.055 -25.292  0.00  0.00    +0.032 C 
ATOM     18  C   UNL     1      34.858 -17.133 -23.905  0.00  0.00    +0.144 C 
BRANCH  12  20
ATOM     19  N   UNL     1      33.858 -11.064 -22.517  0.00  0.00    -0.255 NA
ATOM     20  N   UNL     1      33.901 -13.283 -22.608  0.00  0.00    -0.282 N 
ATOM     21  C   UNL     1      33.104 -11.593 -21.500  0.00  0.00    +0.053 C 
ATOM     22  C   UNL     1      33.115 -12.967 -21.535  0.00  0.00    +0.134 C 
ATOM     23  C   UNL     1      34.323 -12.108 -23.166  0.00  0.00    +0.219 C 
BRANCH  21  24
ATOM     24  C   UNL     1      32.354 -10.756 -20.467  0.00  0.00    +0.037 C 
ATOM     25  C   UNL     1      31.585 -11.463 -19.389  0.00  0.00    +0.006 C 
ATOM     26  C   UNL     1      30.854 -10.756 -20.493  0.00  0.00    +0.006 C 
ENDBRANCH  21  24
ENDBRANCH  12  20
ENDBRANCH   3  15
BRANCH   6  30
ATOM     27  N   UNL     1      33.992 -22.377 -16.528  0.00  0.00    -0.252 N 
ATOM     28  N   UNL     1      32.531 -21.589 -17.953  0.00  0.00    -0.129 NA
ATOM     29  N   UNL     1      31.860 -22.348 -17.015  0.00  0.00    -0.128 NA
ATOM     30  C   UNL     1      33.807 -21.620 -17.645  0.00  0.00    +0.188 C 
ATOM     31  C   UNL     1      32.751 -22.810 -16.169  0.00  0.00    +0.192 C 
BRANCH  27  32
ATOM     32  C   UNL     1      35.229 -22.672 -15.847  0.00  0.00    +0.080 C 
ATOM     33  C   UNL     1      35.528 -21.645 -14.752  0.00  0.00    +0.022 C 
ATOM     34  C   UNL     1      35.233 -24.092 -15.277  0.00  0.00    +0.022 C 
ENDBRANCH  27  32
ENDBRANCH   6  30
TORSDOF 5
ENDMDL
MODEL 6
REMARK VINA RESULT:     -10.8      2.050     10.035
REMARK  Name = 71245288
REMARK  5 active torsions:
REMARK  status: ('A' for Active; 'I' for Inactive)
REMARK    1  A    between atoms: C_3  and  C_9
REMARK    2  A    between atoms: C_6  and  N_14
REMARK    3  A    between atoms: C_15  and  C_18
REMARK    4  A    between atoms: C_22  and  C_30
REMARK    5  A    between atoms: N_27  and  C_32
REMARK                            x       y       z     vdW  Elec       q    Type
REMARK                         _______ _______ _______ _____ _____    ______ ____
ROOT
ATOM      1  O   UNL     1      31.928 -22.196 -17.040  0.00  0.00    -0.270 OA
ATOM      2  N   UNL     1      34.088 -21.345 -17.385  0.00  0.00    -0.259 N 
ATOM      3  C   UNL     1      33.103 -22.045 -16.672  0.00  0.00    +0.253 C 
ATOM      4  H   UNL     1      34.977 -21.310 -16.964  0.00  0.00    +0.157 HD
ATOM      5  N   UNL     1      35.058 -20.064 -19.138  0.00  0.00    -0.388 NA
ATOM      6  C   UNL     1      34.897 -19.443 -20.328  0.00  0.00    +0.166 C 
ATOM      7  C   UNL     1      33.969 -20.680 -18.630  0.00  0.00    +0.167 C 
ATOM      8  C   UNL     1      33.703 -19.412 -21.031  0.00  0.00    +0.031 C 
ATOM      9  C   UNL     1      32.732 -20.708 -19.253  0.00  0.00    +0.101 C 
ATOM     10  C   UNL     1      32.604 -20.058 -20.476  0.00  0.00    -0.015 C 
ENDROOT
BRANCH   3  15
ATOM     11  F   UNL     1      31.571 -21.889 -14.324  0.00  0.00    -0.204 F 
ATOM     12  C   UNL     1      35.166 -23.916 -14.166  0.00  0.00    +0.046 C 
ATOM     13  C   UNL     1      34.369 -23.811 -13.026  0.00  0.00    -0.006 C 
ATOM     14  C   UNL     1      34.749 -23.334 -15.364  0.00  0.00    +0.021 C 
ATOM     15  C   UNL     1      33.535 -22.649 -15.421  0.00  0.00    +0.082 C 
ATOM     16  C   UNL     1      33.157 -23.126 -13.083  0.00  0.00    +0.027 C 
ATOM     17  C   UNL     1      34.787 -24.421 -11.726  0.00  0.00    +0.032 C 
ATOM     18  C   UNL     1      32.739 -22.545 -14.281  0.00  0.00    +0.144 C 
BRANCH  12  20
ATOM     19  N   UNL     1      37.867 -26.205 -14.452  0.00  0.00    -0.255 NA
ATOM     20  N   UNL     1      36.374 -24.591 -14.131  0.00  0.00    -0.282 N 
ATOM     21  C   UNL     1      38.446 -25.150 -13.792  0.00  0.00    +0.053 C 
ATOM     22  C   UNL     1      37.541 -24.137 -13.581  0.00  0.00    +0.134 C 
ATOM     23  C   UNL     1      36.620 -25.836 -14.641  0.00  0.00    +0.219 C 
BRANCH  21  24
ATOM     24  C   UNL     1      39.907 -25.115 -13.353  0.00  0.00    +0.037 C 
ATOM     25  C   UNL     1      40.881 -24.301 -14.154  0.00  0.00    +0.006 C 
ATOM     26  C   UNL     1      40.933 -25.800 -14.207  0.00  0.00    +0.006 C 
ENDBRANCH  21  24
ENDBRANCH  12  20
ENDBRANCH   3  15
BRANCH   6  30
ATOM     27  N   UNL     1      36.100 -18.003 -21.940  0.00  0.00    -0.252 N 
ATOM     28  N   UNL     1      37.287 -18.876 -20.322  0.00  0.00    -0.129 NA
ATOM     29  N   UNL     1      38.122 -18.111 -21.112  0.00  0.00    -0.128 NA
ATOM     30  C   UNL     1      36.080 -18.798 -20.835  0.00  0.00    +0.188 C 
ATOM     31  C   UNL     1      37.393 -17.596 -22.075  0.00  0.00    +0.192 C 
BRANCH  27  32
ATOM     32  C   UNL     1      34.999 -17.647 -22.802  0.00  0.00    +0.080 C 
ATOM     33  C   UNL     1      35.078 -16.183 -23.242  0.00  0.00    +0.022 C 
ATOM     34  C   UNL     1      34.910 -18.576 -24.014  0.00  0.00    +0.022 C 
ENDBRANCH  27  32
ENDBRANCH   6  30
TORSDOF 5
ENDMDL
MODEL 7
REMARK VINA RESULT:     -10.6      5.057      8.812
REMARK  Name = 71245288
REMARK  5 active torsions:
REMARK  status: ('A' for Active; 'I' for Inactive)
REMARK    1  A    between atoms: C_3  and  C_9
REMARK    2  A    between atoms: C_6  and  N_14
REMARK    3  A    between atoms: C_15  and  C_18
REMARK    4  A    between atoms: C_22  and  C_30
REMARK    5  A    between atoms: N_27  and  C_32
REMARK                            x       y       z     vdW  Elec       q    Type
REMARK                         _______ _______ _______ _____ _____    ______ ____
ROOT
ATOM      1  O   UNL     1      33.857 -14.010 -23.548  0.00  0.00    -0.270 OA
ATOM      2  N   UNL     1      34.327 -14.881 -21.420  0.00  0.00    -0.259 N 
ATOM      3  C   UNL     1      33.866 -13.902 -22.312  0.00  0.00    +0.253 C 
ATOM      4  H   UNL     1      34.271 -14.650 -20.465  0.00  0.00    +0.157 HD
ATOM      5  N   UNL     1      35.248 -16.948 -20.689  0.00  0.00    -0.388 NA
ATOM      6  C   UNL     1      35.754 -18.158 -21.019  0.00  0.00    +0.166 C 
ATOM      7  C   UNL     1      34.863 -16.158 -21.715  0.00  0.00    +0.167 C 
ATOM      8  C   UNL     1      35.891 -18.612 -22.321  0.00  0.00    +0.031 C 
ATOM      9  C   UNL     1      34.958 -16.519 -23.050  0.00  0.00    +0.101 C 
ATOM     10  C   UNL     1      35.483 -17.771 -23.350  0.00  0.00    -0.015 C 
ENDROOT
BRANCH   3  15
ATOM     11  F   UNL     1      32.633 -13.899 -19.789  0.00  0.00    -0.204 F 
ATOM     12  C   UNL     1      32.941 -10.307 -21.804  0.00  0.00    +0.046 C 
ATOM     13  C   UNL     1      32.337 -10.357 -20.547  0.00  0.00    -0.006 C 
ATOM     14  C   UNL     1      33.443 -11.473 -22.383  0.00  0.00    +0.021 C 
ATOM     15  C   UNL     1      33.341 -12.688 -21.706  0.00  0.00    +0.082 C 
ATOM     16  C   UNL     1      32.234 -11.572 -19.871  0.00  0.00    +0.027 C 
ATOM     17  C   UNL     1      31.787  -9.127 -19.899  0.00  0.00    +0.032 C 
ATOM     18  C   UNL     1      32.736 -12.737 -20.450  0.00  0.00    +0.144 C 
BRANCH  12  20
ATOM     19  N   UNL     1      33.994  -7.386 -23.529  0.00  0.00    -0.255 NA
ATOM     20  N   UNL     1      33.053  -9.111 -22.493  0.00  0.00    -0.282 N 
ATOM     21  C   UNL     1      32.628  -7.252 -23.534  0.00  0.00    +0.053 C 
ATOM     22  C   UNL     1      32.023  -8.310 -22.897  0.00  0.00    +0.134 C 
ATOM     23  C   UNL     1      34.217  -8.516 -22.895  0.00  0.00    +0.219 C 
BRANCH  21  24
ATOM     24  C   UNL     1      31.887  -6.079 -24.167  0.00  0.00    +0.037 C 
ATOM     25  C   UNL     1      32.687  -4.975 -24.793  0.00  0.00    +0.006 C 
ATOM     26  C   UNL     1      31.962  -4.736 -23.501  0.00  0.00    +0.006 C 
ENDBRANCH  21  24
ENDBRANCH  12  20
ENDBRANCH   3  15
BRANCH   6  30
ATOM     27  N   UNL     1      35.438 -20.030 -19.433  0.00  0.00    -0.252 N 
ATOM     28  N   UNL     1      37.237 -18.813 -19.174  0.00  0.00    -0.129 NA
ATOM     29  N   UNL     1      37.234 -19.798 -18.207  0.00  0.00    -0.128 NA
ATOM     30  C   UNL     1      36.153 -18.968 -19.898  0.00  0.00    +0.188 C 
ATOM     31  C   UNL     1      36.149 -20.518 -18.379  0.00  0.00    +0.192 C 
BRANCH  27  32
ATOM     32  C   UNL     1      34.189 -20.551 -19.934  0.00  0.00    +0.080 C 
ATOM     33  C   UNL     1      33.762 -21.812 -19.178  0.00  0.00    +0.022 C 
ATOM     34  C   UNL     1      33.084 -19.494 -19.900  0.00  0.00    +0.022 C 
ENDBRANCH  27  32
ENDBRANCH   6  30
TORSDOF 5
ENDMDL
MODEL 8
REMARK VINA RESULT:     -10.5      5.252     12.338
REMARK  Name = 71245288
REMARK  5 active torsions:
REMARK  status: ('A' for Active; 'I' for Inactive)
REMARK    1  A    between atoms: C_3  and  C_9
REMARK    2  A    between atoms: C_6  and  N_14
REMARK    3  A    between atoms: C_15  and  C_18
REMARK    4  A    between atoms: C_22  and  C_30
REMARK    5  A    between atoms: N_27  and  C_32
REMARK                            x       y       z     vdW  Elec       q    Type
REMARK                         _______ _______ _______ _____ _____    ______ ____
ROOT
ATOM      1  O   UNL     1      33.241 -14.002 -19.400  0.00  0.00    -0.270 OA
ATOM      2  N   UNL     1      33.487 -12.685 -21.327  0.00  0.00    -0.259 N 
ATOM      3  C   UNL     1      33.639 -13.853 -20.566  0.00  0.00    +0.253 C 
ATOM      4  H   UNL     1      33.857 -12.717 -22.239  0.00  0.00    +0.157 HD
ATOM      5  N   UNL     1      32.838 -10.458 -21.855  0.00  0.00    -0.388 NA
ATOM      6  C   UNL     1      32.242  -9.313 -21.454  0.00  0.00    +0.166 C 
ATOM      7  C   UNL     1      32.873 -11.464 -20.954  0.00  0.00    +0.167 C 
ATOM      8  C   UNL     1      31.681  -9.129 -20.201  0.00  0.00    +0.031 C 
ATOM      9  C   UNL     1      32.341 -11.381 -19.677  0.00  0.00    +0.101 C 
ATOM     10  C   UNL     1      31.736 -10.187 -19.301  0.00  0.00    -0.015 C 
ENDROOT
BRANCH   3  15
ATOM     11  F   UNL     1      34.376 -13.748 -23.274  0.00  0.00    -0.204 F 
ATOM     12  C   UNL     1      35.210 -17.201 -21.166  0.00  0.00    +0.046 C 
ATOM     13  C   UNL     1      35.557 -17.101 -22.514  0.00  0.00    -0.006 C 
ATOM     14  C   UNL     1      34.579 -16.133 -20.527  0.00  0.00    +0.021 C 
ATOM     15  C   UNL     1      34.296 -14.965 -21.235  0.00  0.00    +0.082 C 
ATOM     16  C   UNL     1      35.273 -15.934 -23.222  0.00  0.00    +0.027 C 
ATOM     17  C   UNL     1      36.232 -18.227 -23.229  0.00  0.00    +0.032 C 
ATOM     18  C   UNL     1      34.643 -14.866 -22.582  0.00  0.00    +0.144 C 
BRANCH  12  20
ATOM     19  N   UNL     1      36.624 -19.844 -19.261  0.00  0.00    -0.255 NA
ATOM     20  N   UNL     1      35.482 -18.351 -20.445  0.00  0.00    -0.282 N 
ATOM     21  C   UNL     1      35.329 -20.266 -19.429  0.00  0.00    +0.053 C 
ATOM     22  C   UNL     1      34.601 -19.356 -20.160  0.00  0.00    +0.134 C 
ATOM     23  C   UNL     1      36.683 -18.688 -19.884  0.00  0.00    +0.219 C 
BRANCH  21  24
ATOM     24  C   UNL     1      34.777 -21.575 -18.874  0.00  0.00    +0.037 C 
ATOM     25  C   UNL     1      33.460 -21.554 -18.156  0.00  0.00    +0.006 C 
ATOM     26  C   UNL     1      34.732 -21.765 -17.387  0.00  0.00    +0.006 C 
ENDBRANCH  21  24
ENDBRANCH  12  20
ENDBRANCH   3  15
BRANCH   6  30
ATOM     27  N   UNL     1      33.289  -7.948 -23.232  0.00  0.00    -0.252 N 
ATOM     28  N   UNL     1      31.212  -7.482 -22.727  0.00  0.00    -0.129 NA
ATOM     29  N   UNL     1      31.619  -6.625 -23.729  0.00  0.00    -0.128 NA
ATOM     30  C   UNL     1      32.226  -8.266 -22.443  0.00  0.00    +0.188 C 
ATOM     31  C   UNL     1      32.866  -6.919 -24.019  0.00  0.00    +0.192 C 
BRANCH  27  32
ATOM     32  C   UNL     1      34.598  -8.556 -23.253  0.00  0.00    +0.080 C 
ATOM     33  C   UNL     1      34.763  -9.495 -24.450  0.00  0.00    +0.022 C 
ATOM     34  C   UNL     1      35.708  -7.503 -23.228  0.00  0.00    +0.022 C 
ENDBRANCH  27  32
ENDBRANCH   6  30
TORSDOF 5
ENDMDL
MODEL 9
REMARK VINA RESULT:     -10.2      5.630     12.344
REMARK  Name = 71245288
REMARK  5 active torsions:
REMARK  status: ('A' for Active; 'I' for Inactive)
REMARK    1  A    between atoms: C_3  and  C_9
REMARK    2  A    between atoms: C_6  and  N_14
REMARK    3  A    between atoms: C_15  and  C_18
REMARK    4  A    between atoms: C_22  and  C_30
REMARK    5  A    between atoms: N_27  and  C_32
REMARK                            x       y       z     vdW  Elec       q    Type
REMARK                         _______ _______ _______ _____ _____    ______ ____
ROOT
ATOM      1  O   UNL     1      32.987 -14.284 -19.152  0.00  0.00    -0.270 OA
ATOM      2  N   UNL     1      33.445 -12.813 -20.922  0.00  0.00    -0.259 N 
ATOM      3  C   UNL     1      33.551 -14.026 -20.227  0.00  0.00    +0.253 C 
ATOM      4  H   UNL     1      33.953 -12.756 -21.764  0.00  0.00    +0.157 HD
ATOM      5  N   UNL     1      32.746 -10.589 -21.397  0.00  0.00    -0.388 NA
ATOM      6  C   UNL     1      32.024  -9.510 -21.020  0.00  0.00    +0.166 C 
ATOM      7  C   UNL     1      32.705 -11.658 -20.571  0.00  0.00    +0.167 C 
ATOM      8  C   UNL     1      31.265  -9.451 -19.862  0.00  0.00    +0.031 C 
ATOM      9  C   UNL     1      31.978 -11.699 -19.392  0.00  0.00    +0.101 C 
ATOM     10  C   UNL     1      31.247 -10.571 -19.038  0.00  0.00    -0.015 C 
ENDROOT
BRANCH   3  15
ATOM     11  F   UNL     1      34.788 -13.632 -22.717  0.00  0.00    -0.204 F 
ATOM     12  C   UNL     1      35.355 -17.256 -20.819  0.00  0.00    +0.046 C 
ATOM     13  C   UNL     1      35.948 -17.012 -22.058  0.00  0.00    -0.006 C 
ATOM     14  C   UNL     1      34.567 -16.274 -20.219  0.00  0.00    +0.021 C 
ATOM     15  C   UNL     1      34.373 -15.048 -20.856  0.00  0.00    +0.082 C 
ATOM     16  C   UNL     1      35.754 -15.788 -22.696  0.00  0.00    +0.027 C 
ATOM     17  C   UNL     1      36.797 -18.044 -22.730  0.00  0.00    +0.032 C 
ATOM     18  C   UNL     1      34.967 -14.806 -22.095  0.00  0.00    +0.144 C 
BRANCH  12  20
ATOM     19  N   UNL     1      36.552 -20.110 -19.077  0.00  0.00    -0.255 NA
ATOM     20  N   UNL     1      35.534 -18.465 -20.170  0.00  0.00    -0.282 N 
ATOM     21  C   UNL     1      35.230 -20.422 -19.275  0.00  0.00    +0.053 C 
ATOM     22  C   UNL     1      34.578 -19.417 -19.951  0.00  0.00    +0.134 C 
ATOM     23  C   UNL     1      36.702 -18.926 -19.627  0.00  0.00    +0.219 C 
BRANCH  21  24
ATOM     24  C   UNL     1      34.578 -21.718 -18.804  0.00  0.00    +0.037 C 
ATOM     25  C   UNL     1      33.271 -21.641 -18.071  0.00  0.00    +0.006 C 
ATOM     26  C   UNL     1      34.526 -22.004 -17.332  0.00  0.00    +0.006 C 
ENDBRANCH  21  24
ENDBRANCH  12  20
ENDBRANCH   3  15
BRANCH   6  30
ATOM     27  N   UNL     1      32.141  -7.092 -21.528  0.00  0.00    -0.252 N 
ATOM     28  N   UNL     1      32.129  -8.459 -23.237  0.00  0.00    -0.129 NA
ATOM     29  N   UNL     1      32.196  -7.165 -23.714  0.00  0.00    -0.128 NA
ATOM     30  C   UNL     1      32.095  -8.394 -21.926  0.00  0.00    +0.188 C 
ATOM     31  C   UNL     1      32.203  -6.361 -22.676  0.00  0.00    +0.192 C 
BRANCH  27  32
ATOM     32  C   UNL     1      32.128  -6.570 -20.183  0.00  0.00    +0.080 C 
ATOM     33  C   UNL     1      33.511  -6.658 -19.533  0.00  0.00    +0.022 C 
ATOM     34  C   UNL     1      31.596  -5.136 -20.141  0.00  0.00    +0.022 C 
ENDBRANCH  27  32
ENDBRANCH   6  30
TORSDOF 5
ENDMDL
