MODEL 1
REMARK VINA RESULT:     -12.1      0.000      0.000
REMARK  Name = 6914614
REMARK  7 active torsions:
REMARK  status: ('A' for Active; 'I' for Inactive)
REMARK    1  A    between atoms: O_1  and  C_4
REMARK    2  A    between atoms: O_1  and  C_18
REMARK    3  A    between atoms: C_9  and  C_13
REMARK    4  A    between atoms: C_18  and  C_19
REMARK    5  A    between atoms: C_19  and  N_20
REMARK    6  A    between atoms: C_19  and  C_24
REMARK    7  A    between atoms: C_24  and  C_26
REMARK                            x       y       z     vdW  Elec       q    Type
REMARK                         _______ _______ _______ _____ _____    ______ ____
ROOT
ATOM      1  O   UNL     1      35.728 -19.789 -19.586  0.00  0.00    -0.476 OA
ENDROOT
BRANCH   1   4
ATOM      2  N   UNL     1      35.444 -22.680 -15.729  0.00  0.00    -0.404 NA
ATOM      3  N   UNL     1      33.031 -21.875 -18.348  0.00  0.00    -0.258 NA
ATOM      4  C   UNL     1      35.067 -20.661 -18.779  0.00  0.00    +0.159 C 
ATOM      5  C   UNL     1      35.655 -21.220 -17.637  0.00  0.00    +0.063 C 
ATOM      6  C   UNL     1      34.925 -22.116 -16.838  0.00  0.00    +0.136 C 
ATOM      7  C   UNL     1      36.966 -20.913 -17.252  0.00  0.00    +0.008 C 
ATOM      8  C   UNL     1      33.767 -21.019 -19.086  0.00  0.00    +0.130 C 
ATOM      9  C   UNL     1      36.714 -22.358 -15.391  0.00  0.00    +0.131 C 
ATOM     10  C   UNL     1      37.510 -21.490 -16.112  0.00  0.00    +0.032 C 
ATOM     11  C   UNL     1      33.633 -22.393 -17.251  0.00  0.00    +0.184 C 
BRANCH   9  13
ATOM     12  N   UNL     1      38.155 -24.239 -11.873  0.00  0.00    -0.242 NA
ATOM     13  C   UNL     1      37.204 -22.999 -14.194  0.00  0.00    +0.033 C 
ATOM     14  C   UNL     1      36.595 -22.750 -12.968  0.00  0.00    +0.023 C 
ATOM     15  C   UNL     1      38.290 -23.867 -14.258  0.00  0.00    +0.023 C 
ATOM     16  C   UNL     1      37.102 -23.390 -11.848  0.00  0.00    +0.099 C 
ATOM     17  C   UNL     1      38.722 -24.456 -13.080  0.00  0.00    +0.099 C 
ENDBRANCH   9  13
ENDBRANCH   1   4
BRANCH   1  18
ATOM     18  C   UNL     1      35.107 -19.452 -20.827  0.00  0.00    +0.184 C 
BRANCH  18  19
ATOM     19  C   UNL     1      35.175 -17.945 -21.107  0.00  0.00    -0.017 C 
BRANCH  19  20
ATOM     20  N   UNL     1      35.895 -17.296 -20.005  0.00  0.00    +0.384 N 
ATOM     21  H   UNL     1      36.016 -16.305 -20.215  0.00  0.00    -0.089 HD
ATOM     22  H   UNL     1      36.809 -17.733 -19.892  0.00  0.00    -0.089 HD
ATOM     23  H   UNL     1      35.359 -17.397 -19.143  0.00  0.00    -0.089 HD
ENDBRANCH  19  20
BRANCH  19  24
ATOM     24  C   UNL     1      35.878 -17.585 -22.431  0.00  0.00    +0.009 C 
BRANCH  24  26
ATOM     25  N   UNL     1      33.789 -16.090 -25.026  0.00  0.00    -0.312 N 
ATOM     26  C   UNL     1      35.042 -16.729 -23.341  0.00  0.00    -0.008 C 
ATOM     27  C   UNL     1      34.745 -15.367 -23.145  0.00  0.00    +0.011 C 
ATOM     28  C   UNL     1      33.949 -14.981 -24.225  0.00  0.00    +0.048 C 
ATOM     29  C   UNL     1      34.454 -17.160 -24.490  0.00  0.00    +0.058 C 
ATOM     30  C   UNL     1      35.065 -14.409 -22.162  0.00  0.00    +0.001 C 
ATOM     31  C   UNL     1      33.454 -13.681 -24.373  0.00  0.00    +0.015 C 
ATOM     32  C   UNL     1      34.578 -13.104 -22.296  0.00  0.00    +0.000 C 
ATOM     33  C   UNL     1      33.785 -12.747 -23.386  0.00  0.00    +0.001 C 
ATOM     34  H   UNL     1      33.271 -16.110 -25.862  0.00  0.00    +0.152 HD
ENDBRANCH  24  26
ENDBRANCH  19  24
ENDBRANCH  18  19
ENDBRANCH   1  18
TORSDOF 7
ENDMDL
MODEL 2
REMARK VINA RESULT:     -12.0      1.264      1.709
REMARK  Name = 6914614
REMARK  7 active torsions:
REMARK  status: ('A' for Active; 'I' for Inactive)
REMARK    1  A    between atoms: O_1  and  C_4
REMARK    2  A    between atoms: O_1  and  C_18
REMARK    3  A    between atoms: C_9  and  C_13
REMARK    4  A    between atoms: C_18  and  C_19
REMARK    5  A    between atoms: C_19  and  N_20
REMARK    6  A    between atoms: C_19  and  C_24
REMARK    7  A    between atoms: C_24  and  C_26
REMARK                            x       y       z     vdW  Elec       q    Type
REMARK                         _______ _______ _______ _____ _____    ______ ____
ROOT
ATOM      1  O   UNL     1      36.115 -20.049 -19.055  0.00  0.00    -0.476 OA
ENDROOT
BRANCH   1   4
ATOM      2  N   UNL     1      34.956 -23.054 -15.456  0.00  0.00    -0.404 NA
ATOM      3  N   UNL     1      33.045 -21.834 -18.319  0.00  0.00    -0.258 NA
ATOM      4  C   UNL     1      35.250 -20.867 -18.398  0.00  0.00    +0.159 C 
ATOM      5  C   UNL     1      35.602 -21.546 -17.225  0.00  0.00    +0.063 C 
ATOM      6  C   UNL     1      34.667 -22.379 -16.587  0.00  0.00    +0.136 C 
ATOM      7  C   UNL     1      36.874 -21.424 -16.650  0.00  0.00    +0.008 C 
ATOM      8  C   UNL     1      33.972 -21.045 -18.898  0.00  0.00    +0.130 C 
ATOM      9  C   UNL     1      36.195 -22.909 -14.933  0.00  0.00    +0.131 C 
ATOM     10  C   UNL     1      37.180 -22.115 -15.486  0.00  0.00    +0.032 C 
ATOM     11  C   UNL     1      33.422 -22.473 -17.186  0.00  0.00    +0.184 C 
BRANCH   9  13
ATOM     12  N   UNL     1      36.897 -25.113 -11.377  0.00  0.00    -0.242 NA
ATOM     13  C   UNL     1      36.434 -23.660 -13.723  0.00  0.00    +0.033 C 
ATOM     14  C   UNL     1      35.777 -23.316 -12.546  0.00  0.00    +0.023 C 
ATOM     15  C   UNL     1      37.324 -24.730 -13.726  0.00  0.00    +0.023 C 
ATOM     16  C   UNL     1      36.040 -24.068 -11.411  0.00  0.00    +0.099 C 
ATOM     17  C   UNL     1      37.518 -25.417 -12.539  0.00  0.00    +0.099 C 
ENDBRANCH   9  13
ENDBRANCH   1   4
BRANCH   1  18
ATOM     18  C   UNL     1      35.699 -19.543 -20.323  0.00  0.00    +0.184 C 
BRANCH  18  19
ATOM     19  C   UNL     1      36.409 -18.230 -20.674  0.00  0.00    -0.017 C 
BRANCH  19  20
ATOM     20  N   UNL     1      37.858 -18.454 -20.630  0.00  0.00    +0.384 N 
ATOM     21  H   UNL     1      38.044 -19.438 -20.434  0.00  0.00    -0.089 HD
ATOM     22  H   UNL     1      38.270 -17.878 -19.897  0.00  0.00    -0.089 HD
ATOM     23  H   UNL     1      38.269 -18.205 -21.530  0.00  0.00    -0.089 HD
ENDBRANCH  19  20
BRANCH  19  24
ATOM     24  C   UNL     1      36.042 -17.669 -22.061  0.00  0.00    +0.009 C 
BRANCH  24  26
ATOM     25  N   UNL     1      34.680 -14.378 -21.259  0.00  0.00    -0.312 N 
ATOM     26  C   UNL     1      35.413 -16.305 -22.012  0.00  0.00    -0.008 C 
ATOM     27  C   UNL     1      34.841 -15.624 -23.102  0.00  0.00    +0.011 C 
ATOM     28  C   UNL     1      34.382 -14.403 -22.603  0.00  0.00    +0.048 C 
ATOM     29  C   UNL     1      35.310 -15.537 -20.893  0.00  0.00    +0.058 C 
ATOM     30  C   UNL     1      34.659 -15.908 -24.471  0.00  0.00    +0.001 C 
ATOM     31  C   UNL     1      33.749 -13.448 -23.406  0.00  0.00    +0.015 C 
ATOM     32  C   UNL     1      34.027 -14.963 -25.287  0.00  0.00    +0.000 C 
ATOM     33  C   UNL     1      33.579 -13.752 -24.761  0.00  0.00    +0.001 C 
ATOM     34  H   UNL     1      34.471 -13.634 -20.650  0.00  0.00    +0.152 HD
ENDBRANCH  24  26
ENDBRANCH  19  24
ENDBRANCH  18  19
ENDBRANCH   1  18
TORSDOF 7
ENDMDL
MODEL 3
REMARK VINA RESULT:     -11.8      4.083      8.066
REMARK  Name = 6914614
REMARK  7 active torsions:
REMARK  status: ('A' for Active; 'I' for Inactive)
REMARK    1  A    between atoms: O_1  and  C_4
REMARK    2  A    between atoms: O_1  and  C_18
REMARK    3  A    between atoms: C_9  and  C_13
REMARK    4  A    between atoms: C_18  and  C_19
REMARK    5  A    between atoms: C_19  and  N_20
REMARK    6  A    between atoms: C_19  and  C_24
REMARK    7  A    between atoms: C_24  and  C_26
REMARK                            x       y       z     vdW  Elec       q    Type
REMARK                         _______ _______ _______ _____ _____    ______ ____
ROOT
ATOM      1  O   UNL     1      34.432 -12.745 -23.100  0.00  0.00    -0.476 OA
ENDROOT
BRANCH   1   4
ATOM      2  N   UNL     1      35.000 -17.508 -22.543  0.00  0.00    -0.404 NA
ATOM      3  N   UNL     1      34.210 -15.478 -25.473  0.00  0.00    -0.258 NA
ATOM      4  C   UNL     1      34.458 -14.019 -23.573  0.00  0.00    +0.159 C 
ATOM      5  C   UNL     1      34.731 -15.120 -22.750  0.00  0.00    +0.063 C 
ATOM      6  C   UNL     1      34.744 -16.416 -23.291  0.00  0.00    +0.136 C 
ATOM      7  C   UNL     1      34.996 -14.975 -21.382  0.00  0.00    +0.008 C 
ATOM      8  C   UNL     1      34.207 -14.252 -24.913  0.00  0.00    +0.130 C 
ATOM      9  C   UNL     1      35.252 -17.326 -21.226  0.00  0.00    +0.131 C 
ATOM     10  C   UNL     1      35.262 -16.094 -20.603  0.00  0.00    +0.032 C 
ATOM     11  C   UNL     1      34.477 -16.517 -24.647  0.00  0.00    +0.184 C 
BRANCH   9  13
ATOM     12  N   UNL     1      36.034 -20.885 -19.054  0.00  0.00    -0.242 NA
ATOM     13  C   UNL     1      35.517 -18.537 -20.486  0.00  0.00    +0.033 C 
ATOM     14  C   UNL     1      36.822 -18.868 -20.130  0.00  0.00    +0.023 C 
ATOM     15  C   UNL     1      34.472 -19.382 -20.126  0.00  0.00    +0.023 C 
ATOM     16  C   UNL     1      37.025 -20.041 -19.420  0.00  0.00    +0.099 C 
ATOM     17  C   UNL     1      34.780 -20.532 -19.417  0.00  0.00    +0.099 C 
ENDBRANCH   9  13
ENDBRANCH   1   4
BRANCH   1  18
ATOM     18  C   UNL     1      34.158 -11.707 -24.041  0.00  0.00    +0.184 C 
BRANCH  18  19
ATOM     19  C   UNL     1      34.380 -10.315 -23.435  0.00  0.00    -0.017 C 
BRANCH  19  20
ATOM     20  N   UNL     1      35.403  -9.619 -24.224  0.00  0.00    +0.384 N 
ATOM     21  H   UNL     1      35.480  -8.653 -23.904  0.00  0.00    -0.089 HD
ATOM     22  H   UNL     1      35.141  -9.631 -25.209  0.00  0.00    -0.089 HD
ATOM     23  H   UNL     1      36.302 -10.088 -24.105  0.00  0.00    -0.089 HD
ENDBRANCH  19  20
BRANCH  19  24
ATOM     24  C   UNL     1      33.112  -9.439 -23.395  0.00  0.00    +0.009 C 
BRANCH  24  26
ATOM     25  N   UNL     1      32.278  -7.771 -20.257  0.00  0.00    -0.312 N 
ATOM     26  C   UNL     1      32.715  -9.020 -22.008  0.00  0.00    -0.008 C 
ATOM     27  C   UNL     1      32.315  -9.883 -20.971  0.00  0.00    +0.011 C 
ATOM     28  C   UNL     1      32.042  -9.070 -19.869  0.00  0.00    +0.048 C 
ATOM     29  C   UNL     1      32.689  -7.734 -21.562  0.00  0.00    +0.058 C 
ATOM     30  C   UNL     1      32.151 -11.277 -20.843  0.00  0.00    +0.001 C 
ATOM     31  C   UNL     1      31.611  -9.583 -18.640  0.00  0.00    +0.015 C 
ATOM     32  C   UNL     1      31.722 -11.805 -19.620  0.00  0.00    +0.000 C 
ATOM     33  C   UNL     1      31.457 -10.969 -18.536  0.00  0.00    +0.001 C 
ATOM     34  H   UNL     1      32.167  -6.982 -19.679  0.00  0.00    +0.152 HD
ENDBRANCH  24  26
ENDBRANCH  19  24
ENDBRANCH  18  19
ENDBRANCH   1  18
TORSDOF 7
ENDMDL
MODEL 4
REMARK VINA RESULT:     -11.6      3.252      6.760
REMARK  Name = 6914614
REMARK  7 active torsions:
REMARK  status: ('A' for Active; 'I' for Inactive)
REMARK    1  A    between atoms: O_1  and  C_4
REMARK    2  A    between atoms: O_1  and  C_18
REMARK    3  A    between atoms: C_9  and  C_13
REMARK    4  A    between atoms: C_18  and  C_19
REMARK    5  A    between atoms: C_19  and  N_20
REMARK    6  A    between atoms: C_19  and  C_24
REMARK    7  A    between atoms: C_24  and  C_26
REMARK                            x       y       z     vdW  Elec       q    Type
REMARK                         _______ _______ _______ _____ _____    ______ ____
ROOT
ATOM      1  O   UNL     1      35.497 -14.499 -23.405  0.00  0.00    -0.476 OA
ENDROOT
BRANCH   1   4
ATOM      2  N   UNL     1      34.663 -19.008 -21.891  0.00  0.00    -0.404 NA
ATOM      3  N   UNL     1      34.077 -17.372 -25.102  0.00  0.00    -0.258 NA
ATOM      4  C   UNL     1      35.057 -15.772 -23.592  0.00  0.00    +0.159 C 
ATOM      5  C   UNL     1      35.107 -16.740 -22.581  0.00  0.00    +0.063 C 
ATOM      6  C   UNL     1      34.637 -18.040 -22.830  0.00  0.00    +0.136 C 
ATOM      7  C   UNL     1      35.616 -16.456 -21.307  0.00  0.00    +0.008 C 
ATOM      8  C   UNL     1      34.538 -16.136 -24.821  0.00  0.00    +0.130 C 
ATOM      9  C   UNL     1      35.163 -18.694 -20.674  0.00  0.00    +0.131 C 
ATOM     10  C   UNL     1      35.648 -17.447 -20.334  0.00  0.00    +0.032 C 
ATOM     11  C   UNL     1      34.141 -18.281 -24.100  0.00  0.00    +0.184 C 
BRANCH   9  13
ATOM     12  N   UNL     1      35.155 -21.878 -17.871  0.00  0.00    -0.242 NA
ATOM     13  C   UNL     1      35.160 -19.778 -19.719  0.00  0.00    +0.033 C 
ATOM     14  C   UNL     1      36.342 -20.162 -19.093  0.00  0.00    +0.023 C 
ATOM     15  C   UNL     1      33.976 -20.445 -19.421  0.00  0.00    +0.023 C 
ATOM     16  C   UNL     1      36.286 -21.207 -18.184  0.00  0.00    +0.099 C 
ATOM     17  C   UNL     1      34.027 -21.478 -18.498  0.00  0.00    +0.099 C 
ENDBRANCH   9  13
ENDBRANCH   1   4
BRANCH   1  18
ATOM     18  C   UNL     1      34.690 -13.446 -23.933  0.00  0.00    +0.184 C 
BRANCH  18  19
ATOM     19  C   UNL     1      34.228 -12.478 -22.837  0.00  0.00    -0.017 C 
BRANCH  19  20
ATOM     20  N   UNL     1      34.498 -11.105 -23.280  0.00  0.00    +0.384 N 
ATOM     21  H   UNL     1      33.650 -10.704 -23.683  0.00  0.00    -0.089 HD
ATOM     22  H   UNL     1      35.236 -11.114 -23.983  0.00  0.00    -0.089 HD
ATOM     23  H   UNL     1      34.793 -10.542 -22.483  0.00  0.00    -0.089 HD
ENDBRANCH  19  20
BRANCH  19  24
ATOM     24  C   UNL     1      32.732 -12.594 -22.487  0.00  0.00    +0.009 C 
BRANCH  24  26
ATOM     25  N   UNL     1      32.034 -12.626 -18.903  0.00  0.00    -0.312 N 
ATOM     26  C   UNL     1      32.429 -12.320 -21.041  0.00  0.00    -0.008 C 
ATOM     27  C   UNL     1      32.223 -11.050 -20.470  0.00  0.00    +0.011 C 
ATOM     28  C   UNL     1      31.974 -11.267 -19.113  0.00  0.00    +0.048 C 
ATOM     29  C   UNL     1      32.312 -13.274 -20.077  0.00  0.00    +0.058 C 
ATOM     30  C   UNL     1      32.220  -9.727 -20.957  0.00  0.00    +0.001 C 
ATOM     31  C   UNL     1      31.722 -10.224 -18.215  0.00  0.00    +0.015 C 
ATOM     32  C   UNL     1      31.969  -8.674 -20.071  0.00  0.00    +0.000 C 
ATOM     33  C   UNL     1      31.724  -8.920 -18.721  0.00  0.00    +0.001 C 
ATOM     34  H   UNL     1      31.898 -13.068 -18.035  0.00  0.00    +0.152 HD
ENDBRANCH  24  26
ENDBRANCH  19  24
ENDBRANCH  18  19
ENDBRANCH   1  18
TORSDOF 7
ENDMDL
MODEL 5
REMARK VINA RESULT:     -11.6      2.681     10.596
REMARK  Name = 6914614
REMARK  7 active torsions:
REMARK  status: ('A' for Active; 'I' for Inactive)
REMARK    1  A    between atoms: O_1  and  C_4
REMARK    2  A    between atoms: O_1  and  C_18
REMARK    3  A    between atoms: C_9  and  C_13
REMARK    4  A    between atoms: C_18  and  C_19
REMARK    5  A    between atoms: C_19  and  N_20
REMARK    6  A    between atoms: C_19  and  C_24
REMARK    7  A    between atoms: C_24  and  C_26
REMARK                            x       y       z     vdW  Elec       q    Type
REMARK                         _______ _______ _______ _____ _____    ______ ____
ROOT
ATOM      1  O   UNL     1      34.060 -23.076 -15.674  0.00  0.00    -0.476 OA
ENDROOT
BRANCH   1   4
ATOM      2  N   UNL     1      36.458 -20.157 -18.682  0.00  0.00    -0.404 NA
ATOM      3  N   UNL     1      37.484 -21.883 -15.633  0.00  0.00    -0.258 NA
ATOM      4  C   UNL     1      35.174 -22.406 -16.072  0.00  0.00    +0.159 C 
ATOM      5  C   UNL     1      35.201 -21.608 -17.222  0.00  0.00    +0.063 C 
ATOM      6  C   UNL     1      36.381 -20.937 -17.585  0.00  0.00    +0.136 C 
ATOM      7  C   UNL     1      34.075 -21.448 -18.040  0.00  0.00    +0.008 C 
ATOM      8  C   UNL     1      36.332 -22.508 -15.321  0.00  0.00    +0.130 C 
ATOM      9  C   UNL     1      35.349 -20.029 -19.446  0.00  0.00    +0.131 C 
ATOM     10  C   UNL     1      34.145 -20.648 -19.172  0.00  0.00    +0.032 C 
ATOM     11  C   UNL     1      37.471 -21.119 -16.751  0.00  0.00    +0.184 C 
BRANCH   9  13
ATOM     12  N   UNL     1      35.805 -17.535 -22.847  0.00  0.00    -0.242 NA
ATOM     13  C   UNL     1      35.504 -19.180 -20.603  0.00  0.00    +0.033 C 
ATOM     14  C   UNL     1      34.540 -19.181 -21.607  0.00  0.00    +0.023 C 
ATOM     15  C   UNL     1      36.619 -18.355 -20.723  0.00  0.00    +0.023 C 
ATOM     16  C   UNL     1      34.734 -18.348 -22.697  0.00  0.00    +0.099 C 
ATOM     17  C   UNL     1      36.721 -17.559 -21.853  0.00  0.00    +0.099 C 
ENDBRANCH   9  13
ENDBRANCH   1   4
BRANCH   1  18
ATOM     18  C   UNL     1      34.178 -23.913 -14.524  0.00  0.00    +0.184 C 
BRANCH  18  19
ATOM     19  C   UNL     1      34.197 -23.097 -13.225  0.00  0.00    -0.017 C 
BRANCH  19  20
ATOM     20  N   UNL     1      32.816 -22.746 -12.872  0.00  0.00    +0.384 N 
ATOM     21  H   UNL     1      32.439 -22.103 -13.569  0.00  0.00    -0.089 HD
ATOM     22  H   UNL     1      32.801 -22.301 -11.956  0.00  0.00    -0.089 HD
ATOM     23  H   UNL     1      32.245 -23.592 -12.849  0.00  0.00    -0.089 HD
ENDBRANCH  19  20
BRANCH  19  24
ATOM     24  C   UNL     1      34.835 -23.832 -12.031  0.00  0.00    +0.009 C 
BRANCH  24  26
ATOM     25  N   UNL     1      38.287 -22.853 -11.356  0.00  0.00    -0.312 N 
ATOM     26  C   UNL     1      36.323 -23.643 -11.935  0.00  0.00    -0.008 C 
ATOM     27  C   UNL     1      37.294 -24.403 -12.614  0.00  0.00    +0.011 C 
ATOM     28  C   UNL     1      38.533 -23.886 -12.232  0.00  0.00    +0.048 C 
ATOM     29  C   UNL     1      36.939 -22.701 -11.170  0.00  0.00    +0.058 C 
ATOM     30  C   UNL     1      37.260 -25.484 -13.518  0.00  0.00    +0.001 C 
ATOM     31  C   UNL     1      39.745 -24.396 -12.710  0.00  0.00    +0.015 C 
ATOM     32  C   UNL     1      38.464 -26.005 -14.005  0.00  0.00    +0.000 C 
ATOM     33  C   UNL     1      39.687 -25.468 -13.606  0.00  0.00    +0.001 C 
ATOM     34  H   UNL     1      38.981 -22.304 -10.924  0.00  0.00    +0.152 HD
ENDBRANCH  24  26
ENDBRANCH  19  24
ENDBRANCH  18  19
ENDBRANCH   1  18
TORSDOF 7
ENDMDL
MODEL 6
REMARK VINA RESULT:     -11.5      2.036     10.089
REMARK  Name = 6914614
REMARK  7 active torsions:
REMARK  status: ('A' for Active; 'I' for Inactive)
REMARK    1  A    between atoms: O_1  and  C_4
REMARK    2  A    between atoms: O_1  and  C_18
REMARK    3  A    between atoms: C_9  and  C_13
REMARK    4  A    between atoms: C_18  and  C_19
REMARK    5  A    between atoms: C_19  and  N_20
REMARK    6  A    between atoms: C_19  and  C_24
REMARK    7  A    between atoms: C_24  and  C_26
REMARK                            x       y       z     vdW  Elec       q    Type
REMARK                         _______ _______ _______ _____ _____    ______ ____
ROOT
ATOM      1  O   UNL     1      36.764 -21.635 -17.716  0.00  0.00    -0.476 OA
ENDROOT
BRANCH   1   4
ATOM      2  N   UNL     1      34.241 -18.969 -20.853  0.00  0.00    -0.404 NA
ATOM      3  N   UNL     1      33.234 -21.613 -18.545  0.00  0.00    -0.258 NA
ATOM      4  C   UNL     1      35.608 -21.269 -18.331  0.00  0.00    +0.159 C 
ATOM      5  C   UNL     1      35.562 -20.264 -19.306  0.00  0.00    +0.063 C 
ATOM      6  C   UNL     1      34.339 -19.927 -19.910  0.00  0.00    +0.136 C 
ATOM      7  C   UNL     1      36.709 -19.570 -19.710  0.00  0.00    +0.008 C 
ATOM      8  C   UNL     1      34.428 -21.905 -17.991  0.00  0.00    +0.130 C 
ATOM      9  C   UNL     1      35.372 -18.321 -21.216  0.00  0.00    +0.131 C 
ATOM     10  C   UNL     1      36.618 -18.580 -20.680  0.00  0.00    +0.032 C 
ATOM     11  C   UNL     1      33.229 -20.637 -19.484  0.00  0.00    +0.184 C 
BRANCH   9  13
ATOM     12  N   UNL     1      34.845 -15.346 -24.194  0.00  0.00    -0.242 NA
ATOM     13  C   UNL     1      35.192 -17.308 -22.229  0.00  0.00    +0.033 C 
ATOM     14  C   UNL     1      34.706 -17.654 -23.486  0.00  0.00    +0.023 C 
ATOM     15  C   UNL     1      35.505 -15.980 -21.956  0.00  0.00    +0.023 C 
ATOM     16  C   UNL     1      34.551 -16.646 -24.424  0.00  0.00    +0.099 C 
ATOM     17  C   UNL     1      35.315 -15.046 -22.962  0.00  0.00    +0.099 C 
ENDBRANCH   9  13
ENDBRANCH   1   4
BRANCH   1  18
ATOM     18  C   UNL     1      36.966 -21.173 -16.380  0.00  0.00    +0.184 C 
BRANCH  18  19
ATOM     19  C   UNL     1      37.038 -22.335 -15.381  0.00  0.00    -0.017 C 
BRANCH  19  20
ATOM     20  N   UNL     1      38.405 -22.868 -15.380  0.00  0.00    +0.384 N 
ATOM     21  H   UNL     1      38.978 -22.336 -16.035  0.00  0.00    -0.089 HD
ATOM     22  H   UNL     1      38.388 -23.848 -15.662  0.00  0.00    -0.089 HD
ATOM     23  H   UNL     1      38.800 -22.790 -14.443  0.00  0.00    -0.089 HD
ENDBRANCH  19  20
BRANCH  19  24
ATOM     24  C   UNL     1      36.664 -21.945 -13.938  0.00  0.00    +0.009 C 
BRANCH  24  26
ATOM     25  N   UNL     1      34.551 -24.224 -12.021  0.00  0.00    -0.312 N 
ATOM     26  C   UNL     1      35.590 -22.810 -13.340  0.00  0.00    -0.008 C 
ATOM     27  C   UNL     1      34.273 -22.934 -13.819  0.00  0.00    +0.011 C 
ATOM     28  C   UNL     1      33.630 -23.835 -12.968  0.00  0.00    +0.048 C 
ATOM     29  C   UNL     1      35.749 -23.601 -12.244  0.00  0.00    +0.058 C 
ATOM     30  C   UNL     1      33.545 -22.376 -14.890  0.00  0.00    +0.001 C 
ATOM     31  C   UNL     1      32.291 -24.208 -13.133  0.00  0.00    +0.015 C 
ATOM     32  C   UNL     1      32.206 -22.740 -15.068  0.00  0.00    +0.000 C 
ATOM     33  C   UNL     1      31.590 -23.642 -14.202  0.00  0.00    +0.001 C 
ATOM     34  H   UNL     1      34.373 -24.858 -11.290  0.00  0.00    +0.152 HD
ENDBRANCH  24  26
ENDBRANCH  19  24
ENDBRANCH  18  19
ENDBRANCH   1  18
TORSDOF 7
ENDMDL
MODEL 7
REMARK VINA RESULT:     -11.5      2.714     10.533
REMARK  Name = 6914614
REMARK  7 active torsions:
REMARK  status: ('A' for Active; 'I' for Inactive)
REMARK    1  A    between atoms: O_1  and  C_4
REMARK    2  A    between atoms: O_1  and  C_18
REMARK    3  A    between atoms: C_9  and  C_13
REMARK    4  A    between atoms: C_18  and  C_19
REMARK    5  A    between atoms: C_19  and  N_20
REMARK    6  A    between atoms: C_19  and  C_24
REMARK    7  A    between atoms: C_24  and  C_26
REMARK                            x       y       z     vdW  Elec       q    Type
REMARK                         _______ _______ _______ _____ _____    ______ ____
ROOT
ATOM      1  O   UNL     1      35.189 -23.145 -15.571  0.00  0.00    -0.476 OA
ENDROOT
BRANCH   1   4
ATOM      2  N   UNL     1      33.984 -20.291 -19.276  0.00  0.00    -0.404 NA
ATOM      3  N   UNL     1      31.957 -22.234 -16.943  0.00  0.00    -0.258 NA
ATOM      4  C   UNL     1      34.281 -22.548 -16.388  0.00  0.00    +0.159 C 
ATOM      5  C   UNL     1      34.657 -21.701 -17.438  0.00  0.00    +0.063 C 
ATOM      6  C   UNL     1      33.675 -21.112 -18.253  0.00  0.00    +0.136 C 
ATOM      7  C   UNL     1      36.000 -21.414 -17.714  0.00  0.00    +0.008 C 
ATOM      8  C   UNL     1      32.932 -22.779 -16.186  0.00  0.00    +0.130 C 
ATOM      9  C   UNL     1      35.293 -20.038 -19.509  0.00  0.00    +0.131 C 
ATOM     10  C   UNL     1      36.328 -20.568 -18.765  0.00  0.00    +0.032 C 
ATOM     11  C   UNL     1      32.360 -21.422 -17.948  0.00  0.00    +0.184 C 
BRANCH   9  13
ATOM     12  N   UNL     1      36.049 -17.431 -22.769  0.00  0.00    -0.242 NA
ATOM     13  C   UNL     1      35.551 -19.151 -20.619  0.00  0.00    +0.033 C 
ATOM     14  C   UNL     1      36.722 -18.401 -20.658  0.00  0.00    +0.023 C 
ATOM     15  C   UNL     1      34.629 -19.039 -21.655  0.00  0.00    +0.023 C 
ATOM     16  C   UNL     1      36.923 -17.564 -21.745  0.00  0.00    +0.099 C 
ATOM     17  C   UNL     1      34.923 -18.174 -22.697  0.00  0.00    +0.099 C 
ENDBRANCH   9  13
ENDBRANCH   1   4
BRANCH   1  18
ATOM     18  C   UNL     1      34.680 -23.938 -14.499  0.00  0.00    +0.184 C 
BRANCH  18  19
ATOM     19  C   UNL     1      34.751 -23.197 -13.158  0.00  0.00    -0.017 C 
BRANCH  19  20
ATOM     20  N   UNL     1      33.386 -22.864 -12.734  0.00  0.00    +0.384 N 
ATOM     21  H   UNL     1      33.361 -22.757 -11.719  0.00  0.00    -0.089 HD
ATOM     22  H   UNL     1      32.751 -23.612 -13.012  0.00  0.00    -0.089 HD
ATOM     23  H   UNL     1      33.096 -21.991 -13.174  0.00  0.00    -0.089 HD
ENDBRANCH  19  20
BRANCH  19  24
ATOM     24  C   UNL     1      35.431 -24.000 -12.033  0.00  0.00    +0.009 C 
BRANCH  24  26
ATOM     25  N   UNL     1      38.909 -23.084 -11.401  0.00  0.00    -0.312 N 
ATOM     26  C   UNL     1      36.922 -23.816 -11.980  0.00  0.00    -0.008 C 
ATOM     27  C   UNL     1      37.863 -24.493 -12.778  0.00  0.00    +0.011 C 
ATOM     28  C   UNL     1      39.117 -24.014 -12.394  0.00  0.00    +0.048 C 
ATOM     29  C   UNL     1      37.570 -22.960 -11.143  0.00  0.00    +0.058 C 
ATOM     30  C   UNL     1      37.790 -25.468 -13.793  0.00  0.00    +0.001 C 
ATOM     31  C   UNL     1      40.308 -24.464 -12.976  0.00  0.00    +0.015 C 
ATOM     32  C   UNL     1      38.973 -25.927 -14.384  0.00  0.00    +0.000 C 
ATOM     33  C   UNL     1      40.212 -25.431 -13.981  0.00  0.00    +0.001 C 
ATOM     34  H   UNL     1      39.620 -22.582 -10.942  0.00  0.00    +0.152 HD
ENDBRANCH  24  26
ENDBRANCH  19  24
ENDBRANCH  18  19
ENDBRANCH   1  18
TORSDOF 7
ENDMDL
MODEL 8
REMARK VINA RESULT:     -11.4      3.301      9.640
REMARK  Name = 6914614
REMARK  7 active torsions:
REMARK  status: ('A' for Active; 'I' for Inactive)
REMARK    1  A    between atoms: O_1  and  C_4
REMARK    2  A    between atoms: O_1  and  C_18
REMARK    3  A    between atoms: C_9  and  C_13
REMARK    4  A    between atoms: C_18  and  C_19
REMARK    5  A    between atoms: C_19  and  N_20
REMARK    6  A    between atoms: C_19  and  C_24
REMARK    7  A    between atoms: C_24  and  C_26
REMARK                            x       y       z     vdW  Elec       q    Type
REMARK                         _______ _______ _______ _____ _____    ______ ____
ROOT
ATOM      1  O   UNL     1      34.657 -23.302 -15.324  0.00  0.00    -0.476 OA
ENDROOT
BRANCH   1   4
ATOM      2  N   UNL     1      36.683 -20.147 -18.367  0.00  0.00    -0.404 NA
ATOM      3  N   UNL     1      37.895 -21.668 -15.278  0.00  0.00    -0.258 NA
ATOM      4  C   UNL     1      35.678 -22.499 -15.725  0.00  0.00    +0.159 C 
ATOM      5  C   UNL     1      35.612 -21.725 -16.890  0.00  0.00    +0.063 C 
ATOM      6  C   UNL     1      36.697 -20.911 -17.257  0.00  0.00    +0.136 C 
ATOM      7  C   UNL     1      34.483 -21.729 -17.720  0.00  0.00    +0.008 C 
ATOM      8  C   UNL     1      36.831 -22.435 -14.963  0.00  0.00    +0.130 C 
ATOM      9  C   UNL     1      35.574 -20.180 -19.143  0.00  0.00    +0.131 C 
ATOM     10  C   UNL     1      34.459 -20.946 -18.867  0.00  0.00    +0.032 C 
ATOM     11  C   UNL     1      37.793 -20.934 -16.410  0.00  0.00    +0.184 C 
BRANCH   9  13
ATOM     12  N   UNL     1      35.734 -17.705 -22.584  0.00  0.00    -0.242 NA
ATOM     13  C   UNL     1      35.629 -19.338 -20.314  0.00  0.00    +0.033 C 
ATOM     14  C   UNL     1      36.732 -18.520 -20.538  0.00  0.00    +0.023 C 
ATOM     15  C   UNL     1      34.578 -19.338 -21.227  0.00  0.00    +0.023 C 
ATOM     16  C   UNL     1      36.737 -17.731 -21.677  0.00  0.00    +0.099 C 
ATOM     17  C   UNL     1      34.679 -18.512 -22.335  0.00  0.00    +0.099 C 
ENDBRANCH   9  13
ENDBRANCH   1   4
BRANCH   1  18
ATOM     18  C   UNL     1      34.896 -24.145 -14.197  0.00  0.00    +0.184 C 
BRANCH  18  19
ATOM     19  C   UNL     1      34.080 -23.706 -12.974  0.00  0.00    -0.017 C 
BRANCH  19  20
ATOM     20  N   UNL     1      34.983 -23.051 -12.020  0.00  0.00    +0.384 N 
ATOM     21  H   UNL     1      35.538 -22.346 -12.505  0.00  0.00    -0.089 HD
ATOM     22  H   UNL     1      35.603 -23.746 -11.607  0.00  0.00    -0.089 HD
ATOM     23  H   UNL     1      34.434 -22.604 -11.284  0.00  0.00    -0.089 HD
ENDBRANCH  19  20
BRANCH  19  24
ATOM     24  C   UNL     1      32.929 -22.736 -13.304  0.00  0.00    +0.009 C 
BRANCH  24  26
ATOM     25  N   UNL     1      29.938 -24.825 -13.444  0.00  0.00    -0.312 N 
ATOM     26  C   UNL     1      31.623 -23.426 -13.583  0.00  0.00    -0.008 C 
ATOM     27  C   UNL     1      30.710 -23.078 -14.596  0.00  0.00    +0.011 C 
ATOM     28  C   UNL     1      29.648 -23.979 -14.490  0.00  0.00    +0.048 C 
ATOM     29  C   UNL     1      31.143 -24.491 -12.886  0.00  0.00    +0.058 C 
ATOM     30  C   UNL     1      30.665 -22.091 -15.601  0.00  0.00    +0.001 C 
ATOM     31  C   UNL     1      28.538 -23.941 -15.341  0.00  0.00    +0.015 C 
ATOM     32  C   UNL     1      29.561 -22.041 -16.460  0.00  0.00    +0.000 C 
ATOM     33  C   UNL     1      28.515 -22.953 -16.331  0.00  0.00    +0.001 C 
ATOM     34  H   UNL     1      29.362 -25.563 -13.140  0.00  0.00    +0.152 HD
ENDBRANCH  24  26
ENDBRANCH  19  24
ENDBRANCH  18  19
ENDBRANCH   1  18
TORSDOF 7
ENDMDL
MODEL 9
REMARK VINA RESULT:     -11.4      3.632      7.132
REMARK  Name = 6914614
REMARK  7 active torsions:
REMARK  status: ('A' for Active; 'I' for Inactive)
REMARK    1  A    between atoms: O_1  and  C_4
REMARK    2  A    between atoms: O_1  and  C_18
REMARK    3  A    between atoms: C_9  and  C_13
REMARK    4  A    between atoms: C_18  and  C_19
REMARK    5  A    between atoms: C_19  and  N_20
REMARK    6  A    between atoms: C_19  and  C_24
REMARK    7  A    between atoms: C_24  and  C_26
REMARK                            x       y       z     vdW  Elec       q    Type
REMARK                         _______ _______ _______ _____ _____    ______ ____
ROOT
ATOM      1  O   UNL     1      35.102 -14.384 -23.664  0.00  0.00    -0.476 OA
ENDROOT
BRANCH   1   4
ATOM      2  N   UNL     1      34.756 -18.917 -22.035  0.00  0.00    -0.404 NA
ATOM      3  N   UNL     1      33.924 -17.420 -25.259  0.00  0.00    -0.258 NA
ATOM      4  C   UNL     1      34.784 -15.698 -23.812  0.00  0.00    +0.159 C 
ATOM      5  C   UNL     1      34.957 -16.633 -22.783  0.00  0.00    +0.063 C 
ATOM      6  C   UNL     1      34.610 -17.978 -22.991  0.00  0.00    +0.136 C 
ATOM      7  C   UNL     1      35.471 -16.272 -21.531  0.00  0.00    +0.008 C 
ATOM      8  C   UNL     1      34.269 -16.140 -25.017  0.00  0.00    +0.130 C 
ATOM      9  C   UNL     1      35.256 -18.528 -20.839  0.00  0.00    +0.131 C 
ATOM     10  C   UNL     1      35.626 -17.232 -20.540  0.00  0.00    +0.032 C 
ATOM     11  C   UNL     1      34.104 -18.295 -24.241  0.00  0.00    +0.184 C 
BRANCH   9  13
ATOM     12  N   UNL     1      35.637 -21.631 -17.973  0.00  0.00    -0.242 NA
ATOM     13  C   UNL     1      35.386 -19.584 -19.863  0.00  0.00    +0.033 C 
ATOM     14  C   UNL     1      36.625 -19.865 -19.296  0.00  0.00    +0.023 C 
ATOM     15  C   UNL     1      34.272 -20.328 -19.485  0.00  0.00    +0.023 C 
ATOM     16  C   UNL     1      36.697 -20.888 -18.363  0.00  0.00    +0.099 C 
ATOM     17  C   UNL     1      34.449 -21.331 -18.544  0.00  0.00    +0.099 C 
ENDBRANCH   9  13
ENDBRANCH   1   4
BRANCH   1  18
ATOM     18  C   UNL     1      34.093 -13.428 -23.989  0.00  0.00    +0.184 C 
BRANCH  18  19
ATOM     19  C   UNL     1      33.889 -12.410 -22.860  0.00  0.00    -0.017 C 
BRANCH  19  20
ATOM     20  N   UNL     1      34.858 -12.690 -21.794  0.00  0.00    +0.384 N 
ATOM     21  H   UNL     1      35.788 -12.797 -22.200  0.00  0.00    -0.089 HD
ATOM     22  H   UNL     1      34.596 -13.551 -21.315  0.00  0.00    -0.089 HD
ATOM     23  H   UNL     1      34.865 -11.918 -21.128  0.00  0.00    -0.089 HD
ENDBRANCH  19  20
BRANCH  19  24
ATOM     24  C   UNL     1      34.058 -10.943 -23.301  0.00  0.00    +0.009 C 
BRANCH  24  26
ATOM     25  N   UNL     1      31.555  -9.214 -21.282  0.00  0.00    -0.312 N 
ATOM     26  C   UNL     1      33.117  -9.995 -22.611  0.00  0.00    -0.008 C 
ATOM     27  C   UNL     1      33.027  -8.610 -22.845  0.00  0.00    +0.011 C 
ATOM     28  C   UNL     1      32.030  -8.134 -21.991  0.00  0.00    +0.048 C 
ATOM     29  C   UNL     1      32.216 -10.353 -21.656  0.00  0.00    +0.058 C 
ATOM     30  C   UNL     1      33.686  -7.698 -23.693  0.00  0.00    +0.001 C 
ATOM     31  C   UNL     1      31.658  -6.786 -21.942  0.00  0.00    +0.015 C 
ATOM     32  C   UNL     1      33.325  -6.347 -23.656  0.00  0.00    +0.000 C 
ATOM     33  C   UNL     1      32.325  -5.899 -22.793  0.00  0.00    +0.001 C 
ATOM     34  H   UNL     1      30.843  -9.173 -20.603  0.00  0.00    +0.152 HD
ENDBRANCH  24  26
ENDBRANCH  19  24
ENDBRANCH  18  19
ENDBRANCH   1  18
TORSDOF 7
ENDMDL
