MODEL 1
REMARK VINA RESULT:     -11.9      0.000      0.000
REMARK  Name = 18376177
REMARK  11 active torsions:
REMARK  status: ('A' for Active; 'I' for Inactive)
REMARK    1  A    between atoms: N_1  and  S_2
REMARK    2  A    between atoms: N_1  and  C_11
REMARK    3  A    between atoms: N_1  and  C_23
REMARK    4  A    between atoms: S_2  and  C_6
REMARK    5  A    between atoms: C_11  and  C_12
REMARK    6  A    between atoms: C_15  and  N_18
REMARK    7  A    between atoms: C_23  and  C_24
REMARK    8  A    between atoms: C_27  and  O_30
REMARK    9  A    between atoms: O_30  and  C_31
REMARK   10  A    between atoms: C_31  and  C_33
REMARK   11  A    between atoms: C_33  and  O_34
REMARK                            x       y       z     vdW  Elec       q    Type
REMARK                         _______ _______ _______ _____ _____    ______ ____
ROOT
ATOM      1  N   UNL     1      33.477 -22.632 -14.893  0.00  0.00    -0.147 NA
ENDROOT
BRANCH   1   2
ATOM      2  S   UNL     1      32.295 -23.429 -13.923  0.00  0.00    +0.065 S 
ATOM      3  O   UNL     1      32.120 -22.702 -12.679  0.00  0.00    -0.153 OA
ATOM      4  O   UNL     1      32.582 -24.851 -13.884  0.00  0.00    -0.153 OA
BRANCH   2   6
ATOM      5  N   UNL     1      29.563 -21.927 -16.487  0.00  0.00    -0.241 NA
ATOM      6  C   UNL     1      30.813 -23.217 -14.869  0.00  0.00    +0.141 C 
ATOM      7  C   UNL     1      29.761 -24.119 -14.763  0.00  0.00    +0.023 C 
ATOM      8  C   UNL     1      30.666 -22.147 -15.737  0.00  0.00    +0.119 C 
ATOM      9  C   UNL     1      28.610 -23.928 -15.518  0.00  0.00    +0.022 C 
ATOM     10  C   UNL     1      28.561 -22.826 -16.358  0.00  0.00    +0.099 C 
ENDBRANCH   2   6
ENDBRANCH   1   2
BRANCH   1  11
ATOM     11  C   UNL     1      33.844 -23.253 -16.191  0.00  0.00    +0.122 C 
BRANCH  11  12
ATOM     12  C   UNL     1      34.246 -22.232 -17.218  0.00  0.00    -0.004 C 
ATOM     13  C   UNL     1      35.583 -21.857 -17.340  0.00  0.00    -0.002 C 
ATOM     14  C   UNL     1      33.282 -21.659 -18.047  0.00  0.00    -0.002 C 
ATOM     15  C   UNL     1      34.993 -20.334 -19.121  0.00  0.00    +0.074 C 
ATOM     16  C   UNL     1      35.957 -20.907 -18.292  0.00  0.00    +0.016 C 
ATOM     17  C   UNL     1      33.656 -20.711 -18.999  0.00  0.00    +0.016 C 
BRANCH  15  18
ATOM     18  N   UNL     1      35.364 -19.395 -20.066  0.00  0.00    -0.189 N 
ATOM     19  N   UNL     1      36.509 -18.704 -19.926  0.00  0.00    -0.172 NA
ATOM     20  C   UNL     1      34.661 -19.075 -21.190  0.00  0.00    +0.091 C 
ATOM     21  C   UNL     1      35.396 -18.107 -21.829  0.00  0.00    +0.040 C 
ATOM     22  C   UNL     1      36.522 -17.918 -21.007  0.00  0.00    +0.120 C 
ENDBRANCH  15  18
ENDBRANCH  11  12
ENDBRANCH   1  11
BRANCH   1  23
ATOM     23  C   UNL     1      34.657 -22.045 -14.206  0.00  0.00    +0.123 C 
BRANCH  23  24
ATOM     24  C   UNL     1      35.493 -23.088 -13.521  0.00  0.00    -0.001 C 
ATOM     25  C   UNL     1      36.399 -23.851 -14.258  0.00  0.00    +0.034 C 
ATOM     26  C   UNL     1      35.365 -23.294 -12.147  0.00  0.00    -0.003 C 
ATOM     27  C   UNL     1      37.175 -24.819 -13.622  0.00  0.00    +0.139 C 
ATOM     28  C   UNL     1      36.141 -24.262 -11.511  0.00  0.00    +0.003 C 
ATOM     29  C   UNL     1      37.047 -25.025 -12.249  0.00  0.00    +0.037 C 
BRANCH  27  30
ATOM     30  O   UNL     1      38.057 -25.566 -14.342  0.00  0.00    -0.464 OA
BRANCH  30  31
ATOM     31  C   UNL     1      39.319 -25.846 -13.736  0.00  0.00    +0.314 C 
BRANCH  31  33
ATOM     32  O   UNL     1      40.945 -24.042 -13.758  0.00  0.00    -0.246 OA
ATOM     33  C   UNL     1      40.377 -24.959 -14.330  0.00  0.00    +0.359 C 
BRANCH  33  34
ATOM     34  O   UNL     1      40.623 -25.321 -15.614  0.00  0.00    -0.478 OA
ATOM     35  H   UNL     1      40.096 -24.977 -16.308  0.00  0.00    +0.295 HD
ENDBRANCH  33  34
ENDBRANCH  31  33
ENDBRANCH  30  31
ENDBRANCH  27  30
ENDBRANCH  23  24
ENDBRANCH   1  23
TORSDOF 11
ENDMDL
MODEL 2
REMARK VINA RESULT:     -10.9      3.345      7.579
REMARK  Name = 18376177
REMARK  11 active torsions:
REMARK  status: ('A' for Active; 'I' for Inactive)
REMARK    1  A    between atoms: N_1  and  S_2
REMARK    2  A    between atoms: N_1  and  C_11
REMARK    3  A    between atoms: N_1  and  C_23
REMARK    4  A    between atoms: S_2  and  C_6
REMARK    5  A    between atoms: C_11  and  C_12
REMARK    6  A    between atoms: C_15  and  N_18
REMARK    7  A    between atoms: C_23  and  C_24
REMARK    8  A    between atoms: C_27  and  O_30
REMARK    9  A    between atoms: O_30  and  C_31
REMARK   10  A    between atoms: C_31  and  C_33
REMARK   11  A    between atoms: C_33  and  O_34
REMARK                            x       y       z     vdW  Elec       q    Type
REMARK                         _______ _______ _______ _____ _____    ______ ____
ROOT
ATOM      1  N   UNL     1      35.440 -23.555 -12.611  0.00  0.00    -0.147 NA
ENDROOT
BRANCH   1   2
ATOM      2  S   UNL     1      36.850 -23.423 -11.628  0.00  0.00    +0.065 S 
ATOM      3  O   UNL     1      36.617 -24.084 -10.357  0.00  0.00    -0.153 OA
ATOM      4  O   UNL     1      37.322 -22.050 -11.642  0.00  0.00    -0.153 OA
BRANCH   2   6
ATOM      5  N   UNL     1      38.561 -26.443 -13.689  0.00  0.00    -0.241 NA
ATOM      6  C   UNL     1      38.034 -24.394 -12.518  0.00  0.00    +0.141 C 
ATOM      7  C   UNL     1      39.319 -23.921 -12.750  0.00  0.00    +0.023 C 
ATOM      8  C   UNL     1      37.707 -25.651 -13.003  0.00  0.00    +0.119 C 
ATOM      9  C   UNL     1      40.227 -24.706 -13.452  0.00  0.00    +0.022 C 
ATOM     10  C   UNL     1      39.802 -25.948 -13.897  0.00  0.00    +0.099 C 
ENDBRANCH   2   6
ENDBRANCH   1   2
BRANCH   1  11
ATOM     11  C   UNL     1      34.168 -23.947 -11.951  0.00  0.00    +0.122 C 
BRANCH  11  12
ATOM     12  C   UNL     1      32.967 -23.634 -12.799  0.00  0.00    -0.004 C 
ATOM     13  C   UNL     1      32.166 -24.669 -13.280  0.00  0.00    -0.002 C 
ATOM     14  C   UNL     1      32.654 -22.310 -13.104  0.00  0.00    -0.002 C 
ATOM     15  C   UNL     1      30.739 -23.054 -14.374  0.00  0.00    +0.074 C 
ATOM     16  C   UNL     1      31.051 -24.378 -14.068  0.00  0.00    +0.016 C 
ATOM     17  C   UNL     1      31.541 -22.020 -13.892  0.00  0.00    +0.016 C 
BRANCH  15  18
ATOM     18  N   UNL     1      29.634 -22.767 -15.154  0.00  0.00    -0.189 N 
ATOM     19  N   UNL     1      28.913 -21.655 -14.929  0.00  0.00    -0.172 NA
ATOM     20  C   UNL     1      29.168 -23.527 -16.186  0.00  0.00    +0.091 C 
ATOM     21  C   UNL     1      28.065 -22.867 -16.670  0.00  0.00    +0.040 C 
ATOM     22  C   UNL     1      27.955 -21.723 -15.859  0.00  0.00    +0.120 C 
ENDBRANCH  15  18
ENDBRANCH  11  12
ENDBRANCH   1  11
BRANCH   1  23
ATOM     23  C   UNL     1      35.585 -24.179 -13.951  0.00  0.00    +0.123 C 
BRANCH  23  24
ATOM     24  C   UNL     1      35.754 -23.157 -15.039  0.00  0.00    -0.001 C 
ATOM     25  C   UNL     1      34.701 -22.885 -15.912  0.00  0.00    +0.034 C 
ATOM     26  C   UNL     1      36.966 -22.479 -15.177  0.00  0.00    -0.003 C 
ATOM     27  C   UNL     1      34.858 -21.937 -16.922  0.00  0.00    +0.139 C 
ATOM     28  C   UNL     1      37.124 -21.530 -16.187  0.00  0.00    +0.003 C 
ATOM     29  C   UNL     1      36.069 -21.259 -17.060  0.00  0.00    +0.037 C 
BRANCH  27  30
ATOM     30  O   UNL     1      33.831 -21.674 -17.775  0.00  0.00    -0.464 OA
BRANCH  30  31
ATOM     31  C   UNL     1      34.160 -21.493 -19.152  0.00  0.00    +0.314 C 
BRANCH  31  33
ATOM     32  O   UNL     1      32.491 -19.813 -19.693  0.00  0.00    -0.246 OA
ATOM     33  C   UNL     1      33.662 -20.155 -19.623  0.00  0.00    +0.359 C 
BRANCH  33  34
ATOM     34  O   UNL     1      34.707 -19.361 -19.966  0.00  0.00    -0.478 OA
ATOM     35  H   UNL     1      35.473 -19.735 -20.354  0.00  0.00    +0.295 HD
ENDBRANCH  33  34
ENDBRANCH  31  33
ENDBRANCH  30  31
ENDBRANCH  27  30
ENDBRANCH  23  24
ENDBRANCH   1  23
TORSDOF 11
ENDMDL
MODEL 3
REMARK VINA RESULT:     -10.2      3.202      7.436
REMARK  Name = 18376177
REMARK  11 active torsions:
REMARK  status: ('A' for Active; 'I' for Inactive)
REMARK    1  A    between atoms: N_1  and  S_2
REMARK    2  A    between atoms: N_1  and  C_11
REMARK    3  A    between atoms: N_1  and  C_23
REMARK    4  A    between atoms: S_2  and  C_6
REMARK    5  A    between atoms: C_11  and  C_12
REMARK    6  A    between atoms: C_15  and  N_18
REMARK    7  A    between atoms: C_23  and  C_24
REMARK    8  A    between atoms: C_27  and  O_30
REMARK    9  A    between atoms: O_30  and  C_31
REMARK   10  A    between atoms: C_31  and  C_33
REMARK   11  A    between atoms: C_33  and  O_34
REMARK                            x       y       z     vdW  Elec       q    Type
REMARK                         _______ _______ _______ _____ _____    ______ ____
ROOT
ATOM      1  N   UNL     1      34.860 -23.250 -13.658  0.00  0.00    -0.147 NA
ENDROOT
BRANCH   1   2
ATOM      2  S   UNL     1      36.254 -22.858 -12.722  0.00  0.00    +0.065 S 
ATOM      3  O   UNL     1      35.955 -23.033 -11.313  0.00  0.00    -0.153 OA
ATOM      4  O   UNL     1      36.807 -21.597 -13.183  0.00  0.00    -0.153 OA
BRANCH   2   6
ATOM      5  N   UNL     1      38.028 -26.463 -13.107  0.00  0.00    -0.241 NA
ATOM      6  C   UNL     1      37.398 -24.130 -13.180  0.00  0.00    +0.141 C 
ATOM      7  C   UNL     1      38.526 -23.841 -13.939  0.00  0.00    +0.023 C 
ATOM      8  C   UNL     1      37.196 -25.446 -12.792  0.00  0.00    +0.119 C 
ATOM      9  C   UNL     1      39.405 -24.861 -14.283  0.00  0.00    +0.022 C 
ATOM     10  C   UNL     1      39.114 -26.144 -13.846  0.00  0.00    +0.099 C 
ENDBRANCH   2   6
ENDBRANCH   1   2
BRANCH   1  11
ATOM     11  C   UNL     1      33.684 -23.814 -12.949  0.00  0.00    +0.122 C 
BRANCH  11  12
ATOM     12  C   UNL     1      32.387 -23.436 -13.606  0.00  0.00    -0.004 C 
ATOM     13  C   UNL     1      31.534 -24.428 -14.087  0.00  0.00    -0.002 C 
ATOM     14  C   UNL     1      32.037 -22.092 -13.737  0.00  0.00    -0.002 C 
ATOM     15  C   UNL     1      29.980 -22.733 -14.830  0.00  0.00    +0.074 C 
ATOM     16  C   UNL     1      30.330 -24.077 -14.699  0.00  0.00    +0.016 C 
ATOM     17  C   UNL     1      30.834 -21.741 -14.348  0.00  0.00    +0.016 C 
BRANCH  15  18
ATOM     18  N   UNL     1      28.786 -22.386 -15.435  0.00  0.00    -0.189 N 
ATOM     19  N   UNL     1      28.593 -22.622 -16.744  0.00  0.00    -0.172 NA
ATOM     20  C   UNL     1      27.721 -21.801 -14.816  0.00  0.00    +0.091 C 
ATOM     21  C   UNL     1      26.764 -21.641 -15.788  0.00  0.00    +0.040 C 
ATOM     22  C   UNL     1      27.354 -22.163 -16.954  0.00  0.00    +0.120 C 
ENDBRANCH  15  18
ENDBRANCH  11  12
ENDBRANCH   1  11
BRANCH   1  23
ATOM     23  C   UNL     1      35.072 -23.893 -14.981  0.00  0.00    +0.123 C 
BRANCH  23  24
ATOM     24  C   UNL     1      34.789 -22.956 -16.121  0.00  0.00    -0.001 C 
ATOM     25  C   UNL     1      35.786 -22.096 -16.583  0.00  0.00    +0.034 C 
ATOM     26  C   UNL     1      33.528 -22.945 -16.718  0.00  0.00    -0.003 C 
ATOM     27  C   UNL     1      35.522 -21.227 -17.641  0.00  0.00    +0.139 C 
ATOM     28  C   UNL     1      33.264 -22.076 -17.776  0.00  0.00    +0.003 C 
ATOM     29  C   UNL     1      34.262 -21.217 -18.238  0.00  0.00    +0.037 C 
BRANCH  27  30
ATOM     30  O   UNL     1      36.494 -20.387 -18.090  0.00  0.00    -0.464 OA
BRANCH  30  31
ATOM     31  C   UNL     1      36.820 -20.452 -19.478  0.00  0.00    +0.314 C 
BRANCH  31  33
ATOM     32  O   UNL     1      37.709 -18.524 -20.658  0.00  0.00    -0.246 OA
ATOM     33  C   UNL     1      36.787 -19.073 -20.073  0.00  0.00    +0.359 C 
BRANCH  33  34
ATOM     34  O   UNL     1      35.571 -18.505 -19.872  0.00  0.00    -0.478 OA
ATOM     35  H   UNL     1      35.429 -17.607 -20.100  0.00  0.00    +0.295 HD
ENDBRANCH  33  34
ENDBRANCH  31  33
ENDBRANCH  30  31
ENDBRANCH  27  30
ENDBRANCH  23  24
ENDBRANCH   1  23
TORSDOF 11
ENDMDL
MODEL 4
REMARK VINA RESULT:      -9.2     11.517     16.152
REMARK  Name = 18376177
REMARK  11 active torsions:
REMARK  status: ('A' for Active; 'I' for Inactive)
REMARK    1  A    between atoms: N_1  and  S_2
REMARK    2  A    between atoms: N_1  and  C_11
REMARK    3  A    between atoms: N_1  and  C_23
REMARK    4  A    between atoms: S_2  and  C_6
REMARK    5  A    between atoms: C_11  and  C_12
REMARK    6  A    between atoms: C_15  and  N_18
REMARK    7  A    between atoms: C_23  and  C_24
REMARK    8  A    between atoms: C_27  and  O_30
REMARK    9  A    between atoms: O_30  and  C_31
REMARK   10  A    between atoms: C_31  and  C_33
REMARK   11  A    between atoms: C_33  and  O_34
REMARK                            x       y       z     vdW  Elec       q    Type
REMARK                         _______ _______ _______ _____ _____    ______ ____
ROOT
ATOM      1  N   UNL     1      33.520  -9.149 -23.618  0.00  0.00    -0.147 NA
ENDROOT
BRANCH   1   2
ATOM      2  S   UNL     1      34.604  -7.810 -23.687  0.00  0.00    +0.065 S 
ATOM      3  O   UNL     1      35.324  -7.835 -24.948  0.00  0.00    -0.153 OA
ATOM      4  O   UNL     1      35.346  -7.725 -22.443  0.00  0.00    -0.153 OA
BRANCH   2   6
ATOM      5  N   UNL     1      32.172  -4.800 -22.540  0.00  0.00    -0.241 NA
ATOM      6  C   UNL     1      33.503  -6.424 -23.738  0.00  0.00    +0.141 C 
ATOM      7  C   UNL     1      33.104  -5.870 -24.949  0.00  0.00    +0.023 C 
ATOM      8  C   UNL     1      33.013  -5.857 -22.572  0.00  0.00    +0.119 C 
ATOM      9  C   UNL     1      32.239  -4.781 -24.957  0.00  0.00    +0.022 C 
ATOM     10  C   UNL     1      31.806  -4.288 -23.737  0.00  0.00    +0.099 C 
ENDBRANCH   2   6
ENDBRANCH   1   2
BRANCH   1  11
ATOM     11  C   UNL     1      33.583 -10.150 -24.713  0.00  0.00    +0.122 C 
BRANCH  11  12
ATOM     12  C   UNL     1      33.921 -11.525 -24.208  0.00  0.00    -0.004 C 
ATOM     13  C   UNL     1      34.396 -11.693 -22.908  0.00  0.00    -0.002 C 
ATOM     14  C   UNL     1      33.760 -12.633 -25.041  0.00  0.00    -0.002 C 
ATOM     15  C   UNL     1      34.552 -14.077 -23.273  0.00  0.00    +0.074 C 
ATOM     16  C   UNL     1      34.711 -12.969 -22.440  0.00  0.00    +0.016 C 
ATOM     17  C   UNL     1      34.076 -13.908 -24.573  0.00  0.00    +0.016 C 
BRANCH  15  18
ATOM     18  N   UNL     1      34.863 -15.341 -22.808  0.00  0.00    -0.189 N 
ATOM     19  N   UNL     1      35.232 -15.524 -21.528  0.00  0.00    -0.172 NA
ATOM     20  C   UNL     1      34.831 -16.490 -23.542  0.00  0.00    +0.091 C 
ATOM     21  C   UNL     1      35.208 -17.494 -22.685  0.00  0.00    +0.040 C 
ATOM     22  C   UNL     1      35.443 -16.842 -21.460  0.00  0.00    +0.120 C 
ENDBRANCH  15  18
ENDBRANCH  11  12
ENDBRANCH   1  11
BRANCH   1  23
ATOM     23  C   UNL     1      32.123  -8.888 -23.184  0.00  0.00    +0.123 C 
BRANCH  23  24
ATOM     24  C   UNL     1      31.906  -9.221 -21.735  0.00  0.00    -0.001 C 
ATOM     25  C   UNL     1      32.362  -8.354 -20.743  0.00  0.00    +0.034 C 
ATOM     26  C   UNL     1      31.247 -10.399 -21.381  0.00  0.00    -0.003 C 
ATOM     27  C   UNL     1      32.160  -8.663 -19.398  0.00  0.00    +0.139 C 
ATOM     28  C   UNL     1      31.045 -10.709 -20.037  0.00  0.00    +0.003 C 
ATOM     29  C   UNL     1      31.501  -9.841 -19.045  0.00  0.00    +0.037 C 
BRANCH  27  30
ATOM     30  O   UNL     1      32.608  -7.818 -18.430  0.00  0.00    -0.464 OA
BRANCH  30  31
ATOM     31  C   UNL     1      33.314  -6.654 -18.859  0.00  0.00    +0.314 C 
BRANCH  31  33
ATOM     32  O   UNL     1      32.677  -4.754 -17.486  0.00  0.00    -0.246 OA
ATOM     33  C   UNL     1      32.532  -5.423 -18.498  0.00  0.00    +0.359 C 
BRANCH  33  34
ATOM     34  O   UNL     1      31.622  -5.146 -19.466  0.00  0.00    -0.478 OA
ATOM     35  H   UNL     1      30.939  -4.525 -19.305  0.00  0.00    +0.295 HD
ENDBRANCH  33  34
ENDBRANCH  31  33
ENDBRANCH  30  31
ENDBRANCH  27  30
ENDBRANCH  23  24
ENDBRANCH   1  23
TORSDOF 11
ENDMDL
MODEL 5
REMARK VINA RESULT:      -9.2      3.346      7.568
REMARK  Name = 18376177
REMARK  11 active torsions:
REMARK  status: ('A' for Active; 'I' for Inactive)
REMARK    1  A    between atoms: N_1  and  S_2
REMARK    2  A    between atoms: N_1  and  C_11
REMARK    3  A    between atoms: N_1  and  C_23
REMARK    4  A    between atoms: S_2  and  C_6
REMARK    5  A    between atoms: C_11  and  C_12
REMARK    6  A    between atoms: C_15  and  N_18
REMARK    7  A    between atoms: C_23  and  C_24
REMARK    8  A    between atoms: C_27  and  O_30
REMARK    9  A    between atoms: O_30  and  C_31
REMARK   10  A    between atoms: C_31  and  C_33
REMARK   11  A    between atoms: C_33  and  O_34
REMARK                            x       y       z     vdW  Elec       q    Type
REMARK                         _______ _______ _______ _____ _____    ______ ____
ROOT
ATOM      1  N   UNL     1      34.784 -22.919 -15.033  0.00  0.00    -0.147 NA
ENDROOT
BRANCH   1   2
ATOM      2  S   UNL     1      36.450 -22.969 -14.593  0.00  0.00    +0.065 S 
ATOM      3  O   UNL     1      37.063 -21.683 -14.872  0.00  0.00    -0.153 OA
ATOM      4  O   UNL     1      37.054 -24.177 -15.124  0.00  0.00    -0.153 OA
BRANCH   2   6
ATOM      5  N   UNL     1      35.413 -24.241 -10.905  0.00  0.00    -0.241 NA
ATOM      6  C   UNL     1      36.380 -23.148 -12.832  0.00  0.00    +0.141 C 
ATOM      7  C   UNL     1      37.190 -22.382 -12.002  0.00  0.00    +0.023 C 
ATOM      8  C   UNL     1      35.516 -24.055 -12.240  0.00  0.00    +0.119 C 
ATOM      9  C   UNL     1      37.113 -22.544 -10.623  0.00  0.00    +0.022 C 
ATOM     10  C   UNL     1      36.216 -23.479 -10.129  0.00  0.00    +0.099 C 
ENDBRANCH   2   6
ENDBRANCH   1   2
BRANCH   1  11
ATOM     11  C   UNL     1      33.784 -23.331 -14.015  0.00  0.00    +0.122 C 
BRANCH  11  12
ATOM     12  C   UNL     1      32.380 -22.986 -14.423  0.00  0.00    -0.004 C 
ATOM     13  C   UNL     1      31.811 -21.781 -14.011  0.00  0.00    -0.002 C 
ATOM     14  C   UNL     1      31.645 -23.870 -15.213  0.00  0.00    -0.002 C 
ATOM     15  C   UNL     1      29.771 -22.346 -15.177  0.00  0.00    +0.074 C 
ATOM     16  C   UNL     1      30.506 -21.461 -14.388  0.00  0.00    +0.016 C 
ATOM     17  C   UNL     1      30.341 -23.550 -15.590  0.00  0.00    +0.016 C 
BRANCH  15  18
ATOM     18  N   UNL     1      28.479 -22.027 -15.553  0.00  0.00    -0.189 N 
ATOM     19  N   UNL     1      28.142 -21.972 -16.853  0.00  0.00    -0.172 NA
ATOM     20  C   UNL     1      27.449 -21.750 -14.703  0.00  0.00    +0.091 C 
ATOM     21  C   UNL     1      26.362 -21.495 -15.503  0.00  0.00    +0.040 C 
ATOM     22  C   UNL     1      26.846 -21.645 -16.815  0.00  0.00    +0.120 C 
ENDBRANCH  15  18
ENDBRANCH  11  12
ENDBRANCH   1  11
BRANCH   1  23
ATOM     23  C   UNL     1      34.412 -23.383 -16.395  0.00  0.00    +0.123 C 
BRANCH  23  24
ATOM     24  C   UNL     1      34.268 -22.243 -17.364  0.00  0.00    -0.001 C 
ATOM     25  C   UNL     1      35.400 -21.574 -17.829  0.00  0.00    +0.034 C 
ATOM     26  C   UNL     1      33.000 -21.854 -17.799  0.00  0.00    -0.003 C 
ATOM     27  C   UNL     1      35.265 -20.517 -18.728  0.00  0.00    +0.139 C 
ATOM     28  C   UNL     1      32.865 -20.797 -18.698  0.00  0.00    +0.003 C 
ATOM     29  C   UNL     1      33.998 -20.128 -19.163  0.00  0.00    +0.037 C 
BRANCH  27  30
ATOM     30  O   UNL     1      36.369 -19.863 -19.180  0.00  0.00    -0.464 OA
BRANCH  30  31
ATOM     31  C   UNL     1      36.391 -19.499 -20.560  0.00  0.00    +0.314 C 
BRANCH  31  33
ATOM     32  O   UNL     1      35.895 -17.200 -19.951  0.00  0.00    -0.246 OA
ATOM     33  C   UNL     1      36.443 -18.003 -20.691  0.00  0.00    +0.359 C 
BRANCH  33  34
ATOM     34  O   UNL     1      37.197 -17.653 -21.764  0.00  0.00    -0.478 OA
ATOM     35  H   UNL     1      37.178 -16.773 -22.084  0.00  0.00    +0.295 HD
ENDBRANCH  33  34
ENDBRANCH  31  33
ENDBRANCH  30  31
ENDBRANCH  27  30
ENDBRANCH  23  24
ENDBRANCH   1  23
TORSDOF 11
ENDMDL
MODEL 6
REMARK VINA RESULT:      -8.9      2.008      5.889
REMARK  Name = 18376177
REMARK  11 active torsions:
REMARK  status: ('A' for Active; 'I' for Inactive)
REMARK    1  A    between atoms: N_1  and  S_2
REMARK    2  A    between atoms: N_1  and  C_11
REMARK    3  A    between atoms: N_1  and  C_23
REMARK    4  A    between atoms: S_2  and  C_6
REMARK    5  A    between atoms: C_11  and  C_12
REMARK    6  A    between atoms: C_15  and  N_18
REMARK    7  A    between atoms: C_23  and  C_24
REMARK    8  A    between atoms: C_27  and  O_30
REMARK    9  A    between atoms: O_30  and  C_31
REMARK   10  A    between atoms: C_31  and  C_33
REMARK   11  A    between atoms: C_33  and  O_34
REMARK                            x       y       z     vdW  Elec       q    Type
REMARK                         _______ _______ _______ _____ _____    ______ ____
ROOT
ATOM      1  N   UNL     1      33.833 -23.386 -15.146  0.00  0.00    -0.147 NA
ENDROOT
BRANCH   1   2
ATOM      2  S   UNL     1      33.515 -22.784 -16.730  0.00  0.00    +0.065 S 
ATOM      3  O   UNL     1      32.431 -21.822 -16.673  0.00  0.00    -0.153 OA
ATOM      4  O   UNL     1      33.436 -23.894 -17.662  0.00  0.00    -0.153 OA
BRANCH   2   6
ATOM      5  N   UNL     1      36.223 -20.483 -18.645  0.00  0.00    -0.241 NA
ATOM      6  C   UNL     1      34.995 -21.887 -17.107  0.00  0.00    +0.141 C 
ATOM      7  C   UNL     1      36.064 -21.864 -16.219  0.00  0.00    +0.023 C 
ATOM      8  C   UNL     1      35.123 -21.187 -18.296  0.00  0.00    +0.119 C 
ATOM      9  C   UNL     1      37.213 -21.151 -16.542  0.00  0.00    +0.022 C 
ATOM     10  C   UNL     1      37.242 -20.482 -17.756  0.00  0.00    +0.099 C 
ENDBRANCH   2   6
ENDBRANCH   1   2
BRANCH   1  11
ATOM     11  C   UNL     1      32.739 -24.103 -14.444  0.00  0.00    +0.122 C 
BRANCH  11  12
ATOM     12  C   UNL     1      31.388 -23.516 -14.743  0.00  0.00    -0.004 C 
ATOM     13  C   UNL     1      31.033 -22.278 -14.209  0.00  0.00    -0.002 C 
ATOM     14  C   UNL     1      30.490 -24.209 -15.554  0.00  0.00    -0.002 C 
ATOM     15  C   UNL     1      28.880 -22.426 -15.296  0.00  0.00    +0.074 C 
ATOM     16  C   UNL     1      29.779 -21.733 -14.486  0.00  0.00    +0.016 C 
ATOM     17  C   UNL     1      29.236 -23.665 -15.831  0.00  0.00    +0.016 C 
BRANCH  15  18
ATOM     18  N   UNL     1      27.638 -21.885 -15.572  0.00  0.00    -0.189 N 
ATOM     19  N   UNL     1      26.679 -21.869 -14.630  0.00  0.00    -0.172 NA
ATOM     20  C   UNL     1      27.256 -21.331 -16.758  0.00  0.00    +0.091 C 
ATOM     21  C   UNL     1      25.956 -20.925 -16.581  0.00  0.00    +0.040 C 
ATOM     22  C   UNL     1      25.653 -21.281 -15.254  0.00  0.00    +0.120 C 
ENDBRANCH  15  18
ENDBRANCH  11  12
ENDBRANCH   1  11
BRANCH   1  23
ATOM     23  C   UNL     1      34.616 -22.526 -14.222  0.00  0.00    +0.123 C 
BRANCH  23  24
ATOM     24  C   UNL     1      35.469 -23.330 -13.282  0.00  0.00    -0.001 C 
ATOM     25  C   UNL     1      36.509 -24.115 -13.781  0.00  0.00    +0.034 C 
ATOM     26  C   UNL     1      35.223 -23.291 -11.909  0.00  0.00    -0.003 C 
ATOM     27  C   UNL     1      37.300 -24.861 -12.908  0.00  0.00    +0.139 C 
ATOM     28  C   UNL     1      36.014 -24.036 -11.036  0.00  0.00    +0.003 C 
ATOM     29  C   UNL     1      37.054 -24.821 -11.536  0.00  0.00    +0.037 C 
BRANCH  27  30
ATOM     30  O   UNL     1      38.313 -25.629 -13.395  0.00  0.00    -0.464 OA
BRANCH  30  31
ATOM     31  C   UNL     1      39.638 -25.112 -13.274  0.00  0.00    +0.314 C 
BRANCH  31  33
ATOM     32  O   UNL     1      40.938 -25.404 -15.305  0.00  0.00    -0.246 OA
ATOM     33  C   UNL     1      40.165 -24.739 -14.631  0.00  0.00    +0.359 C 
BRANCH  33  34
ATOM     34  O   UNL     1      39.657 -23.542 -15.018  0.00  0.00    -0.478 OA
ATOM     35  H   UNL     1      39.627 -23.317 -15.927  0.00  0.00    +0.295 HD
ENDBRANCH  33  34
ENDBRANCH  31  33
ENDBRANCH  30  31
ENDBRANCH  27  30
ENDBRANCH  23  24
ENDBRANCH   1  23
TORSDOF 11
ENDMDL
