MODEL 1
REMARK VINA RESULT:     -11.3      0.000      0.000
REMARK  Name = 17754104
REMARK  13 active torsions:
REMARK  status: ('A' for Active; 'I' for Inactive)
REMARK    1  A    between atoms: C_1  and  C_29
REMARK    2  A    between atoms: C_3  and  N_11
REMARK    3  A    between atoms: C_4  and  O_7
REMARK    4  A    between atoms: C_5  and  O_9
REMARK    5  A    between atoms: C_13  and  C_14
REMARK    6  A    between atoms: C_13  and  C_17
REMARK    7  A    between atoms: C_14  and  C_16
REMARK    8  A    between atoms: C_17  and  O_18
REMARK    9  A    between atoms: O_18  and  C_21
REMARK   10  A    between atoms: C_29  and  CA_30
REMARK   11  A    between atoms: CA_30  and  N_31
REMARK   12  A    between atoms: CA_30  and  C_36
REMARK   13  A    between atoms: C_36  and  O_37
REMARK                            x       y       z     vdW  Elec       q    Type
REMARK                         _______ _______ _______ _____ _____    ______ ____
ROOT
ATOM      1  C   UNL     1      30.844 -23.481 -15.044  0.00  0.00    +0.012 C 
ATOM      2  C   UNL     1      32.060 -22.804 -15.150  0.00  0.00    +0.019 C 
ATOM      3  C   UNL     1      33.043 -22.983 -14.177  0.00  0.00    +0.090 C 
ATOM      4  C   UNL     1      30.613 -24.335 -13.966  0.00  0.00    +0.133 C 
ATOM      5  C   UNL     1      32.812 -23.837 -13.100  0.00  0.00    +0.152 C 
ATOM      6  C   UNL     1      31.596 -24.512 -12.994  0.00  0.00    +0.074 C 
ENDROOT
BRANCH   3   7
ATOM      7  N   UNL     1      34.256 -22.300 -14.296  0.00  0.00    -0.354 N 
ATOM      8  H   UNL     1      34.273 -21.387 -13.928  0.00  0.00    +0.166 HD
ATOM      9  C   UNL     1      35.425 -22.739 -14.858  0.00  0.00    +0.063 C 
BRANCH   9  10
ATOM     10  C   UNL     1      35.859 -24.011 -14.910  0.00  0.00    +0.115 C 
BRANCH  10  12
ATOM     11  O   UNL     1      36.559 -24.309 -12.670  0.00  0.00    -0.288 OA
ATOM     12  C   UNL     1      36.663 -24.648 -13.844  0.00  0.00    +0.213 C 
ENDBRANCH  10  12
ENDBRANCH   9  10
BRANCH   9  13
ATOM     13  C   UNL     1      36.293 -21.653 -15.450  0.00  0.00    +0.245 C 
BRANCH  13  14
ATOM     14  O   UNL     1      36.660 -22.011 -16.781  0.00  0.00    -0.469 OA
BRANCH  14  17
ATOM     15  C   UNL     1      36.279 -19.657 -19.575  0.00  0.00    +0.003 C 
ATOM     16  C   UNL     1      34.910 -19.840 -19.880  0.00  0.00    +0.000 C 
ATOM     17  C   UNL     1      36.089 -21.303 -17.793  0.00  0.00    +0.139 C 
ATOM     18  C   UNL     1      36.854 -20.398 -18.528  0.00  0.00    +0.037 C 
ATOM     19  C   UNL     1      34.154 -20.755 -19.129  0.00  0.00    +0.003 C 
ATOM     20  C   UNL     1      34.741 -21.482 -18.093  0.00  0.00    +0.037 C 
ATOM     21  C   UNL     1      37.034 -18.742 -20.325  0.00  0.00    +0.000 C 
ATOM     22  C   UNL     1      34.334 -19.099 -20.926  0.00  0.00    +0.000 C 
ATOM     23  C   UNL     1      36.448 -18.015 -21.361  0.00  0.00    +0.000 C 
ATOM     24  C   UNL     1      35.100 -18.194 -21.661  0.00  0.00    +0.000 C 
ENDBRANCH  14  17
ENDBRANCH  13  14
ENDBRANCH   9  13
ENDBRANCH   3   7
BRANCH   4  25
ATOM     25  O   UNL     1      29.432 -25.004 -13.849  0.00  0.00    -0.506 OA
ATOM     26  H   UNL     1      29.281 -25.781 -14.351  0.00  0.00    +0.292 HD
ENDBRANCH   4  25
BRANCH   5  27
ATOM     27  O   UNL     1      33.761 -24.025 -12.140  0.00  0.00    -0.504 OA
ATOM     28  H   UNL     1      33.730 -24.784 -11.592  0.00  0.00    +0.292 HD
ENDBRANCH   5  27
BRANCH   1  29
ATOM     29  C   UNL     1      29.801 -23.277 -16.093  0.00  0.00    +0.018 C 
BRANCH  29  30
ATOM     30  CA  UNL     1      29.007 -21.964 -15.926  0.00  0.00    +0.040 C 
BRANCH  30  31
ATOM     31  N   UNL     1      28.629 -21.772 -14.527  0.00  0.00    +0.389 N 
ATOM     32  H1  UNL     1      28.830 -20.811 -14.250  0.00  0.00    -0.088 HD
ATOM     33  H2  UNL     1      29.160 -22.414 -13.940  0.00  0.00    -0.088 HD
ATOM     34  H3  UNL     1      27.631 -21.956 -14.417  0.00  0.00    -0.088 HD
ENDBRANCH  30  31
BRANCH  30  36
ATOM     35  OXT UNL     1      26.994 -21.005 -16.907  0.00  0.00    -0.253 OA
ATOM     36  C   UNL     1      27.716 -21.978 -16.726  0.00  0.00    +0.293 C 
BRANCH  36  37
ATOM     37  O   UNL     1      27.454 -23.198 -17.263  0.00  0.00    -0.482 OA
ATOM     38  H   UNL     1      27.341 -23.941 -16.704  0.00  0.00    +0.295 HD
ENDBRANCH  36  37
ENDBRANCH  30  36
ENDBRANCH  29  30
ENDBRANCH   1  29
TORSDOF 13
ENDMDL
MODEL 2
REMARK VINA RESULT:     -11.1      3.356      6.139
REMARK  Name = 17754104
REMARK  13 active torsions:
REMARK  status: ('A' for Active; 'I' for Inactive)
REMARK    1  A    between atoms: C_1  and  C_29
REMARK    2  A    between atoms: C_3  and  N_11
REMARK    3  A    between atoms: C_4  and  O_7
REMARK    4  A    between atoms: C_5  and  O_9
REMARK    5  A    between atoms: C_13  and  C_14
REMARK    6  A    between atoms: C_13  and  C_17
REMARK    7  A    between atoms: C_14  and  C_16
REMARK    8  A    between atoms: C_17  and  O_18
REMARK    9  A    between atoms: O_18  and  C_21
REMARK   10  A    between atoms: C_29  and  CA_30
REMARK   11  A    between atoms: CA_30  and  N_31
REMARK   12  A    between atoms: CA_30  and  C_36
REMARK   13  A    between atoms: C_36  and  O_37
REMARK                            x       y       z     vdW  Elec       q    Type
REMARK                         _______ _______ _______ _____ _____    ______ ____
ROOT
ATOM      1  C   UNL     1      37.083 -25.181 -13.128  0.00  0.00    +0.012 C 
ATOM      2  C   UNL     1      36.260 -24.606 -14.097  0.00  0.00    +0.019 C 
ATOM      3  C   UNL     1      35.168 -23.829 -13.711  0.00  0.00    +0.090 C 
ATOM      4  C   UNL     1      36.814 -24.978 -11.774  0.00  0.00    +0.133 C 
ATOM      5  C   UNL     1      34.899 -23.625 -12.358  0.00  0.00    +0.152 C 
ATOM      6  C   UNL     1      35.721 -24.201 -11.390  0.00  0.00    +0.074 C 
ENDROOT
BRANCH   3   7
ATOM      7  N   UNL     1      34.353 -23.258 -14.692  0.00  0.00    -0.354 N 
ATOM      8  H   UNL     1      33.408 -23.534 -14.679  0.00  0.00    +0.166 HD
ATOM      9  C   UNL     1      34.701 -22.365 -15.669  0.00  0.00    +0.063 C 
BRANCH   9  10
ATOM     10  C   UNL     1      35.673 -21.438 -15.596  0.00  0.00    +0.115 C 
BRANCH  10  12
ATOM     11  O   UNL     1      37.959 -21.611 -15.011  0.00  0.00    -0.288 OA
ATOM     12  C   UNL     1      37.098 -21.719 -15.878  0.00  0.00    +0.213 C 
ENDBRANCH  10  12
ENDBRANCH   9  10
BRANCH   9  13
ATOM     13  C   UNL     1      33.872 -22.447 -16.931  0.00  0.00    +0.245 C 
BRANCH  13  14
ATOM     14  O   UNL     1      34.737 -22.470 -18.065  0.00  0.00    -0.469 OA
BRANCH  14  17
ATOM     15  C   UNL     1      35.958 -19.640 -20.062  0.00  0.00    +0.003 C 
ATOM     16  C   UNL     1      34.733 -19.103 -20.522  0.00  0.00    +0.000 C 
ATOM     17  C   UNL     1      34.735 -21.372 -18.868  0.00  0.00    +0.139 C 
ATOM     18  C   UNL     1      35.941 -20.776 -19.235  0.00  0.00    +0.037 C 
ATOM     19  C   UNL     1      33.527 -19.716 -20.143  0.00  0.00    +0.003 C 
ATOM     20  C   UNL     1      33.530 -20.843 -19.322  0.00  0.00    +0.037 C 
ATOM     21  C   UNL     1      37.162 -19.027 -20.441  0.00  0.00    +0.000 C 
ATOM     22  C   UNL     1      34.748 -17.967 -21.349  0.00  0.00    +0.000 C 
ATOM     23  C   UNL     1      37.160 -17.899 -21.262  0.00  0.00    +0.000 C 
ATOM     24  C   UNL     1      35.955 -17.371 -21.716  0.00  0.00    +0.000 C 
ENDBRANCH  14  17
ENDBRANCH  13  14
ENDBRANCH   9  13
ENDBRANCH   3   7
BRANCH   4  25
ATOM     25  O   UNL     1      37.608 -25.531 -10.815  0.00  0.00    -0.506 OA
ATOM     26  H   UNL     1      38.346 -25.056 -10.487  0.00  0.00    +0.292 HD
ENDBRANCH   4  25
BRANCH   5  27
ATOM     27  O   UNL     1      33.837 -22.869 -11.962  0.00  0.00    -0.504 OA
ATOM     28  H   UNL     1      33.106 -23.273 -11.539  0.00  0.00    +0.292 HD
ENDBRANCH   5  27
BRANCH   1  29
ATOM     29  C   UNL     1      38.247 -26.012 -13.557  0.00  0.00    +0.018 C 
BRANCH  29  30
ATOM     30  CA  UNL     1      39.607 -25.301 -13.391  0.00  0.00    +0.040 C 
BRANCH  30  31
ATOM     31  N   UNL     1      39.453 -24.089 -12.590  0.00  0.00    +0.389 N 
ATOM     32  H1  UNL     1      40.356 -23.622 -12.504  0.00  0.00    -0.088 HD
ATOM     33  H2  UNL     1      39.107 -24.334 -11.663  0.00  0.00    -0.088 HD
ATOM     34  H3  UNL     1      38.790 -23.462 -13.047  0.00  0.00    -0.088 HD
ENDBRANCH  30  31
BRANCH  30  36
ATOM     35  OXT UNL     1      40.924 -25.552 -15.425  0.00  0.00    -0.253 OA
ATOM     36  C   UNL     1      40.185 -24.868 -14.728  0.00  0.00    +0.293 C 
BRANCH  36  37
ATOM     37  O   UNL     1      39.761 -23.631 -15.098  0.00  0.00    -0.482 OA
ATOM     38  H   UNL     1      40.365 -22.915 -15.114  0.00  0.00    +0.295 HD
ENDBRANCH  36  37
ENDBRANCH  30  36
ENDBRANCH  29  30
ENDBRANCH   1  29
TORSDOF 13
ENDMDL
MODEL 3
REMARK VINA RESULT:     -10.7      2.375      6.454
REMARK  Name = 17754104
REMARK  13 active torsions:
REMARK  status: ('A' for Active; 'I' for Inactive)
REMARK    1  A    between atoms: C_1  and  C_29
REMARK    2  A    between atoms: C_3  and  N_11
REMARK    3  A    between atoms: C_4  and  O_7
REMARK    4  A    between atoms: C_5  and  O_9
REMARK    5  A    between atoms: C_13  and  C_14
REMARK    6  A    between atoms: C_13  and  C_17
REMARK    7  A    between atoms: C_14  and  C_16
REMARK    8  A    between atoms: C_17  and  O_18
REMARK    9  A    between atoms: O_18  and  C_21
REMARK   10  A    between atoms: C_29  and  CA_30
REMARK   11  A    between atoms: CA_30  and  N_31
REMARK   12  A    between atoms: CA_30  and  C_36
REMARK   13  A    between atoms: C_36  and  O_37
REMARK                            x       y       z     vdW  Elec       q    Type
REMARK                         _______ _______ _______ _____ _____    ______ ____
ROOT
ATOM      1  C   UNL     1      37.199 -24.034 -12.841  0.00  0.00    +0.012 C 
ATOM      2  C   UNL     1      36.365 -23.966 -13.958  0.00  0.00    +0.019 C 
ATOM      3  C   UNL     1      34.981 -23.931 -13.792  0.00  0.00    +0.090 C 
ATOM      4  C   UNL     1      36.649 -24.066 -11.560  0.00  0.00    +0.133 C 
ATOM      5  C   UNL     1      34.430 -23.963 -12.511  0.00  0.00    +0.152 C 
ATOM      6  C   UNL     1      35.265 -24.031 -11.395  0.00  0.00    +0.074 C 
ENDROOT
BRANCH   3   7
ATOM      7  N   UNL     1      34.157 -23.863 -14.918  0.00  0.00    -0.354 N 
ATOM      8  H   UNL     1      34.204 -24.631 -15.532  0.00  0.00    +0.166 HD
ATOM      9  C   UNL     1      33.293 -22.863 -15.276  0.00  0.00    +0.063 C 
BRANCH   9  10
ATOM     10  C   UNL     1      32.628 -22.043 -14.442  0.00  0.00    +0.115 C 
BRANCH  10  12
ATOM     11  O   UNL     1      30.620 -23.161 -13.883  0.00  0.00    -0.288 OA
ATOM     12  C   UNL     1      31.169 -22.114 -14.211  0.00  0.00    +0.213 C 
ENDBRANCH  10  12
ENDBRANCH   9  10
BRANCH   9  13
ATOM     13  C   UNL     1      33.075 -22.714 -16.764  0.00  0.00    +0.245 C 
BRANCH  13  14
ATOM     14  O   UNL     1      34.336 -22.569 -17.416  0.00  0.00    -0.469 OA
BRANCH  14  17
ATOM     15  C   UNL     1      35.860 -19.970 -19.516  0.00  0.00    +0.003 C 
ATOM     16  C   UNL     1      34.711 -19.444 -20.150  0.00  0.00    +0.000 C 
ATOM     17  C   UNL     1      34.458 -21.549 -18.309  0.00  0.00    +0.139 C 
ATOM     18  C   UNL     1      35.717 -21.024 -18.598  0.00  0.00    +0.037 C 
ATOM     19  C   UNL     1      33.450 -19.985 -19.847  0.00  0.00    +0.003 C 
ATOM     20  C   UNL     1      33.326 -21.031 -18.933  0.00  0.00    +0.037 C 
ATOM     21  C   UNL     1      37.120 -19.429 -19.819  0.00  0.00    +0.000 C 
ATOM     22  C   UNL     1      34.853 -18.390 -21.068  0.00  0.00    +0.000 C 
ATOM     23  C   UNL     1      37.245 -18.383 -20.733  0.00  0.00    +0.000 C 
ATOM     24  C   UNL     1      36.113 -17.865 -21.357  0.00  0.00    +0.000 C 
ENDBRANCH  14  17
ENDBRANCH  13  14
ENDBRANCH   9  13
ENDBRANCH   3   7
BRANCH   4  25
ATOM     25  O   UNL     1      37.449 -24.130 -10.460  0.00  0.00    -0.506 OA
ATOM     26  H   UNL     1      38.003 -24.874 -10.325  0.00  0.00    +0.292 HD
ENDBRANCH   4  25
BRANCH   5  27
ATOM     27  O   UNL     1      33.080 -23.929 -12.328  0.00  0.00    -0.504 OA
ATOM     28  H   UNL     1      32.711 -24.193 -11.509  0.00  0.00    +0.292 HD
ENDBRANCH   5  27
BRANCH   1  29
ATOM     29  C   UNL     1      38.679 -24.073 -13.036  0.00  0.00    +0.018 C 
BRANCH  29  30
ATOM     30  CA  UNL     1      39.137 -25.125 -14.069  0.00  0.00    +0.040 C 
BRANCH  30  31
ATOM     31  N   UNL     1      38.692 -26.458 -13.669  0.00  0.00    +0.389 N 
ATOM     32  H1  UNL     1      38.855 -27.114 -14.433  0.00  0.00    -0.088 HD
ATOM     33  H2  UNL     1      37.697 -26.434 -13.448  0.00  0.00    -0.088 HD
ATOM     34  H3  UNL     1      39.217 -26.758 -12.847  0.00  0.00    -0.088 HD
ENDBRANCH  30  31
BRANCH  30  36
ATOM     35  OXT UNL     1      41.308 -26.220 -14.222  0.00  0.00    -0.253 OA
ATOM     36  C   UNL     1      40.651 -25.187 -14.179  0.00  0.00    +0.293 C 
BRANCH  36  37
ATOM     37  O   UNL     1      41.214 -23.954 -14.264  0.00  0.00    -0.482 OA
ATOM     38  H   UNL     1      40.953 -23.279 -13.669  0.00  0.00    +0.295 HD
ENDBRANCH  36  37
ENDBRANCH  30  36
ENDBRANCH  29  30
ENDBRANCH   1  29
TORSDOF 13
ENDMDL
MODEL 4
REMARK VINA RESULT:     -10.2      2.329      4.896
REMARK  Name = 17754104
REMARK  13 active torsions:
REMARK  status: ('A' for Active; 'I' for Inactive)
REMARK    1  A    between atoms: C_1  and  C_29
REMARK    2  A    between atoms: C_3  and  N_11
REMARK    3  A    between atoms: C_4  and  O_7
REMARK    4  A    between atoms: C_5  and  O_9
REMARK    5  A    between atoms: C_13  and  C_14
REMARK    6  A    between atoms: C_13  and  C_17
REMARK    7  A    between atoms: C_14  and  C_16
REMARK    8  A    between atoms: C_17  and  O_18
REMARK    9  A    between atoms: O_18  and  C_21
REMARK   10  A    between atoms: C_29  and  CA_30
REMARK   11  A    between atoms: CA_30  and  N_31
REMARK   12  A    between atoms: CA_30  and  C_36
REMARK   13  A    between atoms: C_36  and  O_37
REMARK                            x       y       z     vdW  Elec       q    Type
REMARK                         _______ _______ _______ _____ _____    ______ ____
ROOT
ATOM      1  C   UNL     1      34.659 -22.543 -14.491  0.00  0.00    +0.012 C 
ATOM      2  C   UNL     1      35.080 -21.904 -15.658  0.00  0.00    +0.019 C 
ATOM      3  C   UNL     1      36.427 -21.929 -16.019  0.00  0.00    +0.090 C 
ATOM      4  C   UNL     1      35.585 -23.207 -13.687  0.00  0.00    +0.133 C 
ATOM      5  C   UNL     1      37.353 -22.592 -15.214  0.00  0.00    +0.152 C 
ATOM      6  C   UNL     1      36.932 -23.230 -14.048  0.00  0.00    +0.074 C 
ENDROOT
BRANCH   3   7
ATOM      7  N   UNL     1      36.835 -21.285 -17.189  0.00  0.00    -0.354 N 
ATOM      8  H   UNL     1      37.787 -21.036 -17.234  0.00  0.00    +0.166 HD
ATOM      9  C   UNL     1      36.080 -20.956 -18.283  0.00  0.00    +0.063 C 
BRANCH   9  10
ATOM     10  C   UNL     1      34.998 -21.615 -18.735  0.00  0.00    +0.115 C 
BRANCH  10  12
ATOM     11  O   UNL     1      32.732 -21.554 -18.059  0.00  0.00    -0.288 OA
ATOM     12  C   UNL     1      33.630 -21.052 -18.726  0.00  0.00    +0.213 C 
ENDBRANCH  10  12
ENDBRANCH   9  10
BRANCH   9  13
ATOM     13  C   UNL     1      36.555 -19.738 -19.041  0.00  0.00    +0.245 C 
BRANCH  13  14
ATOM     14  O   UNL     1      36.029 -19.770 -20.367  0.00  0.00    -0.469 OA
BRANCH  14  17
ATOM     15  C   UNL     1      35.240 -16.204 -20.754  0.00  0.00    +0.003 C 
ATOM     16  C   UNL     1      35.185 -16.104 -22.164  0.00  0.00    +0.000 C 
ATOM     17  C   UNL     1      35.755 -18.573 -20.954  0.00  0.00    +0.139 C 
ATOM     18  C   UNL     1      35.527 -17.446 -20.164  0.00  0.00    +0.037 C 
ATOM     19  C   UNL     1      35.416 -17.249 -22.944  0.00  0.00    +0.003 C 
ATOM     20  C   UNL     1      35.700 -18.475 -22.341  0.00  0.00    +0.037 C 
ATOM     21  C   UNL     1      35.009 -15.059 -19.975  0.00  0.00    +0.000 C 
ATOM     22  C   UNL     1      34.898 -14.862 -22.755  0.00  0.00    +0.000 C 
ATOM     23  C   UNL     1      34.725 -13.833 -20.577  0.00  0.00    +0.000 C 
ATOM     24  C   UNL     1      34.670 -13.735 -21.965  0.00  0.00    +0.000 C 
ENDBRANCH  14  17
ENDBRANCH  13  14
ENDBRANCH   9  13
ENDBRANCH   3   7
BRANCH   4  25
ATOM     25  O   UNL     1      35.191 -23.837 -12.545  0.00  0.00    -0.506 OA
ATOM     26  H   UNL     1      35.827 -24.237 -11.986  0.00  0.00    +0.292 HD
ENDBRANCH   4  25
BRANCH   5  27
ATOM     27  O   UNL     1      38.673 -22.628 -15.550  0.00  0.00    -0.504 OA
ATOM     28  H   UNL     1      39.107 -23.451 -15.661  0.00  0.00    +0.292 HD
ENDBRANCH   5  27
BRANCH   1  29
ATOM     29  C   UNL     1      33.214 -22.505 -14.118  0.00  0.00    +0.018 C 
BRANCH  29  30
ATOM     30  CA  UNL     1      32.370 -23.597 -14.811  0.00  0.00    +0.040 C 
BRANCH  30  31
ATOM     31  N   UNL     1      31.329 -22.988 -15.636  0.00  0.00    +0.389 N 
ATOM     32  H1  UNL     1      31.066 -23.633 -16.381  0.00  0.00    -0.088 HD
ATOM     33  H2  UNL     1      31.679 -22.122 -16.043  0.00  0.00    -0.088 HD
ATOM     34  H3  UNL     1      30.512 -22.787 -15.058  0.00  0.00    -0.088 HD
ENDBRANCH  30  31
BRANCH  30  36
ATOM     35  OXT UNL     1      30.628 -25.106 -14.022  0.00  0.00    -0.253 OA
ATOM     36  C   UNL     1      31.661 -24.487 -13.803  0.00  0.00    +0.293 C 
BRANCH  36  37
ATOM     37  O   UNL     1      32.324 -24.557 -12.619  0.00  0.00    -0.482 OA
ATOM     38  H   UNL     1      33.149 -24.997 -12.570  0.00  0.00    +0.295 HD
ENDBRANCH  36  37
ENDBRANCH  30  36
ENDBRANCH  29  30
ENDBRANCH   1  29
TORSDOF 13
ENDMDL
MODEL 5
REMARK VINA RESULT:     -10.0      7.812     12.061
REMARK  Name = 17754104
REMARK  13 active torsions:
REMARK  status: ('A' for Active; 'I' for Inactive)
REMARK    1  A    between atoms: C_1  and  C_29
REMARK    2  A    between atoms: C_3  and  N_11
REMARK    3  A    between atoms: C_4  and  O_7
REMARK    4  A    between atoms: C_5  and  O_9
REMARK    5  A    between atoms: C_13  and  C_14
REMARK    6  A    between atoms: C_13  and  C_17
REMARK    7  A    between atoms: C_14  and  C_16
REMARK    8  A    between atoms: C_17  and  O_18
REMARK    9  A    between atoms: O_18  and  C_21
REMARK   10  A    between atoms: C_29  and  CA_30
REMARK   11  A    between atoms: CA_30  and  N_31
REMARK   12  A    between atoms: CA_30  and  C_36
REMARK   13  A    between atoms: C_36  and  O_37
REMARK                            x       y       z     vdW  Elec       q    Type
REMARK                         _______ _______ _______ _____ _____    ______ ____
ROOT
ATOM      1  C   UNL     1      33.182 -10.757 -22.383  0.00  0.00    +0.012 C 
ATOM      2  C   UNL     1      33.757 -12.023 -22.493  0.00  0.00    +0.019 C 
ATOM      3  C   UNL     1      33.368 -13.042 -21.624  0.00  0.00    +0.090 C 
ATOM      4  C   UNL     1      32.219 -10.510 -21.405  0.00  0.00    +0.133 C 
ATOM      5  C   UNL     1      32.404 -12.796 -20.646  0.00  0.00    +0.152 C 
ATOM      6  C   UNL     1      31.831 -11.530 -20.537  0.00  0.00    +0.074 C 
ENDROOT
BRANCH   3   7
ATOM      7  N   UNL     1      33.951 -14.306 -21.745  0.00  0.00    -0.354 N 
ATOM      8  H   UNL     1      33.826 -14.912 -20.980  0.00  0.00    +0.166 HD
ATOM      9  C   UNL     1      34.674 -14.809 -22.793  0.00  0.00    +0.063 C 
BRANCH   9  10
ATOM     10  C   UNL     1      34.534 -14.483 -24.091  0.00  0.00    +0.115 C 
BRANCH  10  12
ATOM     11  O   UNL     1      33.497 -16.009 -25.572  0.00  0.00    -0.288 OA
ATOM     12  C   UNL     1      33.421 -14.960 -24.941  0.00  0.00    +0.213 C 
ENDBRANCH  10  12
ENDBRANCH   9  10
BRANCH   9  13
ATOM     13  C   UNL     1      35.708 -15.844 -22.414  0.00  0.00    +0.245 C 
BRANCH  13  14
ATOM     14  O   UNL     1      35.154 -17.149 -22.578  0.00  0.00    -0.469 OA
BRANCH  14  17
ATOM     15  C   UNL     1      34.528 -19.713 -20.024  0.00  0.00    +0.003 C 
ATOM     16  C   UNL     1      35.837 -19.897 -19.519  0.00  0.00    +0.000 C 
ATOM     17  C   UNL     1      35.377 -18.047 -21.580  0.00  0.00    +0.139 C 
ATOM     18  C   UNL     1      34.316 -18.783 -21.056  0.00  0.00    +0.037 C 
ATOM     19  C   UNL     1      36.894 -19.147 -20.058  0.00  0.00    +0.003 C 
ATOM     20  C   UNL     1      36.665 -18.228 -21.083  0.00  0.00    +0.037 C 
ATOM     21  C   UNL     1      33.471 -20.463 -19.485  0.00  0.00    +0.000 C 
ATOM     22  C   UNL     1      36.050 -20.826 -18.487  0.00  0.00    +0.000 C 
ATOM     23  C   UNL     1      33.700 -21.382 -18.460  0.00  0.00    +0.000 C 
ATOM     24  C   UNL     1      34.988 -21.564 -17.963  0.00  0.00    +0.000 C 
ENDBRANCH  14  17
ENDBRANCH  13  14
ENDBRANCH   9  13
ENDBRANCH   3   7
BRANCH   4  25
ATOM     25  O   UNL     1      31.647  -9.280 -21.285  0.00  0.00    -0.506 OA
ATOM     26  H   UNL     1      32.130  -8.512 -21.521  0.00  0.00    +0.292 HD
ENDBRANCH   4  25
BRANCH   5  27
ATOM     27  O   UNL     1      32.011 -13.779 -19.788  0.00  0.00    -0.504 OA
ATOM     28  H   UNL     1      32.209 -13.712 -18.875  0.00  0.00    +0.292 HD
ENDBRANCH   5  27
BRANCH   1  29
ATOM     29  C   UNL     1      33.612  -9.676 -23.320  0.00  0.00    +0.018 C 
BRANCH  29  30
ATOM     30  CA  UNL     1      34.995  -9.927 -23.957  0.00  0.00    +0.040 C 
BRANCH  30  31
ATOM     31  N   UNL     1      35.898  -8.814 -23.669  0.00  0.00    +0.389 N 
ATOM     32  H1  UNL     1      35.384  -7.936 -23.728  0.00  0.00    -0.088 HD
ATOM     33  H2  UNL     1      36.659  -8.809 -24.347  0.00  0.00    -0.088 HD
ATOM     34  H3  UNL     1      36.279  -8.922 -22.729  0.00  0.00    -0.088 HD
ENDBRANCH  30  31
BRANCH  30  36
ATOM     35  OXT UNL     1      35.718  -9.554 -26.254  0.00  0.00    -0.253 OA
ATOM     36  C   UNL     1      34.909 -10.035 -25.470  0.00  0.00    +0.293 C 
BRANCH  36  37
ATOM     37  O   UNL     1      33.837 -10.765 -25.876  0.00  0.00    -0.482 OA
ATOM     38  H   UNL     1      33.122 -10.345 -26.311  0.00  0.00    +0.295 HD
ENDBRANCH  36  37
ENDBRANCH  30  36
ENDBRANCH  29  30
ENDBRANCH   1  29
TORSDOF 13
ENDMDL
MODEL 6
REMARK VINA RESULT:      -9.8      4.876      9.216
REMARK  Name = 17754104
REMARK  13 active torsions:
REMARK  status: ('A' for Active; 'I' for Inactive)
REMARK    1  A    between atoms: C_1  and  C_29
REMARK    2  A    between atoms: C_3  and  N_11
REMARK    3  A    between atoms: C_4  and  O_7
REMARK    4  A    between atoms: C_5  and  O_9
REMARK    5  A    between atoms: C_13  and  C_14
REMARK    6  A    between atoms: C_13  and  C_17
REMARK    7  A    between atoms: C_14  and  C_16
REMARK    8  A    between atoms: C_17  and  O_18
REMARK    9  A    between atoms: O_18  and  C_21
REMARK   10  A    between atoms: C_29  and  CA_30
REMARK   11  A    between atoms: CA_30  and  N_31
REMARK   12  A    between atoms: CA_30  and  C_36
REMARK   13  A    between atoms: C_36  and  O_37
REMARK                            x       y       z     vdW  Elec       q    Type
REMARK                         _______ _______ _______ _____ _____    ______ ____
ROOT
ATOM      1  C   UNL     1      34.931 -14.976 -21.292  0.00  0.00    +0.012 C 
ATOM      2  C   UNL     1      35.236 -16.032 -20.432  0.00  0.00    +0.019 C 
ATOM      3  C   UNL     1      35.578 -17.279 -20.955  0.00  0.00    +0.090 C 
ATOM      4  C   UNL     1      34.968 -15.167 -22.673  0.00  0.00    +0.133 C 
ATOM      5  C   UNL     1      35.615 -17.470 -22.336  0.00  0.00    +0.152 C 
ATOM      6  C   UNL     1      35.309 -16.414 -23.194  0.00  0.00    +0.074 C 
ENDROOT
BRANCH   3   7
ATOM      7  N   UNL     1      35.881 -18.328 -20.084  0.00  0.00    -0.354 N 
ATOM      8  H   UNL     1      36.682 -18.205 -19.526  0.00  0.00    +0.166 HD
ATOM      9  C   UNL     1      35.206 -19.506 -19.908  0.00  0.00    +0.063 C 
BRANCH   9  10
ATOM     10  C   UNL     1      33.884 -19.703 -20.070  0.00  0.00    +0.115 C 
BRANCH  10  12
ATOM     11  O   UNL     1      32.815 -21.653 -19.266  0.00  0.00    -0.288 OA
ATOM     12  C   UNL     1      33.044 -20.458 -19.116  0.00  0.00    +0.213 C 
ENDBRANCH  10  12
ENDBRANCH   9  10
BRANCH   9  13
ATOM     13  C   UNL     1      36.062 -20.671 -19.468  0.00  0.00    +0.245 C 
BRANCH  13  14
ATOM     14  O   UNL     1      36.839 -20.286 -18.335  0.00  0.00    -0.469 OA
BRANCH  14  17
ATOM     15  C   UNL     1      35.225 -22.311 -15.731  0.00  0.00    +0.003 C 
ATOM     16  C   UNL     1      36.302 -22.477 -14.829  0.00  0.00    +0.000 C 
ATOM     17  C   UNL     1      36.664 -21.002 -17.191  0.00  0.00    +0.139 C 
ATOM     18  C   UNL     1      35.423 -21.571 -16.908  0.00  0.00    +0.037 C 
ATOM     19  C   UNL     1      37.546 -21.898 -15.130  0.00  0.00    +0.003 C 
ATOM     20  C   UNL     1      37.724 -21.166 -16.304  0.00  0.00    +0.037 C 
ATOM     21  C   UNL     1      33.981 -22.890 -15.430  0.00  0.00    +0.000 C 
ATOM     22  C   UNL     1      36.105 -23.218 -13.651  0.00  0.00    +0.000 C 
ATOM     23  C   UNL     1      33.802 -23.623 -14.256  0.00  0.00    +0.000 C 
ATOM     24  C   UNL     1      34.862 -23.786 -13.369  0.00  0.00    +0.000 C 
ENDBRANCH  14  17
ENDBRANCH  13  14
ENDBRANCH   9  13
ENDBRANCH   3   7
BRANCH   4  25
ATOM     25  O   UNL     1      34.674 -14.146 -23.525  0.00  0.00    -0.506 OA
ATOM     26  H   UNL     1      34.255 -13.372 -23.204  0.00  0.00    +0.292 HD
ENDBRANCH   4  25
BRANCH   5  27
ATOM     27  O   UNL     1      35.947 -18.681 -22.866  0.00  0.00    -0.504 OA
ATOM     28  H   UNL     1      35.795 -19.465 -22.376  0.00  0.00    +0.292 HD
ENDBRANCH   5  27
BRANCH   1  29
ATOM     29  C   UNL     1      34.564 -13.648 -20.715  0.00  0.00    +0.018 C 
BRANCH  29  30
ATOM     30  CA  UNL     1      33.110 -13.226 -21.014  0.00  0.00    +0.040 C 
BRANCH  30  31
ATOM     31  N   UNL     1      33.085 -11.953 -21.730  0.00  0.00    +0.389 N 
ATOM     32  H1  UNL     1      33.628 -11.262 -21.213  0.00  0.00    -0.088 HD
ATOM     33  H2  UNL     1      32.122 -11.631 -21.820  0.00  0.00    -0.088 HD
ATOM     34  H3  UNL     1      33.491 -12.078 -22.658  0.00  0.00    -0.088 HD
ENDBRANCH  30  31
BRANCH  30  36
ATOM     35  OXT UNL     1      31.732 -11.987 -19.433  0.00  0.00    -0.253 OA
ATOM     36  C   UNL     1      32.307 -13.023 -19.740  0.00  0.00    +0.293 C 
BRANCH  36  37
ATOM     37  O   UNL     1      32.261 -14.145 -18.973  0.00  0.00    -0.482 OA
ATOM     38  H   UNL     1      32.125 -14.074 -18.049  0.00  0.00    +0.295 HD
ENDBRANCH  36  37
ENDBRANCH  30  36
ENDBRANCH  29  30
ENDBRANCH   1  29
TORSDOF 13
ENDMDL
MODEL 7
REMARK VINA RESULT:      -9.7      2.583      5.370
REMARK  Name = 17754104
REMARK  13 active torsions:
REMARK  status: ('A' for Active; 'I' for Inactive)
REMARK    1  A    between atoms: C_1  and  C_29
REMARK    2  A    between atoms: C_3  and  N_11
REMARK    3  A    between atoms: C_4  and  O_7
REMARK    4  A    between atoms: C_5  and  O_9
REMARK    5  A    between atoms: C_13  and  C_14
REMARK    6  A    between atoms: C_13  and  C_17
REMARK    7  A    between atoms: C_14  and  C_16
REMARK    8  A    between atoms: C_17  and  O_18
REMARK    9  A    between atoms: O_18  and  C_21
REMARK   10  A    between atoms: C_29  and  CA_30
REMARK   11  A    between atoms: CA_30  and  N_31
REMARK   12  A    between atoms: CA_30  and  C_36
REMARK   13  A    between atoms: C_36  and  O_37
REMARK                            x       y       z     vdW  Elec       q    Type
REMARK                         _______ _______ _______ _____ _____    ______ ____
ROOT
ATOM      1  C   UNL     1      34.574 -23.652 -14.113  0.00  0.00    +0.012 C 
ATOM      2  C   UNL     1      35.085 -22.939 -15.197  0.00  0.00    +0.019 C 
ATOM      3  C   UNL     1      34.216 -22.380 -16.135  0.00  0.00    +0.090 C 
ATOM      4  C   UNL     1      33.196 -23.807 -13.966  0.00  0.00    +0.133 C 
ATOM      5  C   UNL     1      32.838 -22.534 -15.988  0.00  0.00    +0.152 C 
ATOM      6  C   UNL     1      32.328 -23.249 -14.904  0.00  0.00    +0.074 C 
ENDROOT
BRANCH   3   7
ATOM      7  N   UNL     1      34.740 -21.667 -17.216  0.00  0.00    -0.354 N 
ATOM      8  H   UNL     1      34.108 -21.457 -17.940  0.00  0.00    +0.166 HD
ATOM      9  C   UNL     1      36.023 -21.224 -17.396  0.00  0.00    +0.063 C 
BRANCH   9  10
ATOM     10  C   UNL     1      36.890 -20.868 -16.431  0.00  0.00    +0.115 C 
BRANCH  10  12
ATOM     11  O   UNL     1      38.221 -22.336 -15.138  0.00  0.00    -0.288 OA
ATOM     12  C   UNL     1      38.130 -21.614 -16.126  0.00  0.00    +0.213 C 
ENDBRANCH  10  12
ENDBRANCH   9  10
BRANCH   9  13
ATOM     13  C   UNL     1      36.462 -21.117 -18.839  0.00  0.00    +0.245 C 
BRANCH  13  14
ATOM     14  O   UNL     1      35.339 -20.784 -19.653  0.00  0.00    -0.469 OA
BRANCH  14  17
ATOM     15  C   UNL     1      34.870 -18.364 -22.376  0.00  0.00    +0.003 C 
ATOM     16  C   UNL     1      35.572 -17.252 -21.855  0.00  0.00    +0.000 C 
ATOM     17  C   UNL     1      35.414 -19.630 -20.371  0.00  0.00    +0.139 C 
ATOM     18  C   UNL     1      34.801 -19.547 -21.620  0.00  0.00    +0.037 C 
ATOM     19  C   UNL     1      36.184 -17.353 -20.595  0.00  0.00    +0.003 C 
ATOM     20  C   UNL     1      36.105 -18.536 -19.858  0.00  0.00    +0.037 C 
ATOM     21  C   UNL     1      34.259 -18.263 -23.635  0.00  0.00    +0.000 C 
ATOM     22  C   UNL     1      35.642 -16.069 -22.610  0.00  0.00    +0.000 C 
ATOM     23  C   UNL     1      34.338 -17.080 -24.372  0.00  0.00    +0.000 C 
ATOM     24  C   UNL     1      35.028 -15.986 -23.860  0.00  0.00    +0.000 C 
ENDBRANCH  14  17
ENDBRANCH  13  14
ENDBRANCH   9  13
ENDBRANCH   3   7
BRANCH   4  25
ATOM     25  O   UNL     1      32.681 -24.500 -12.912  0.00  0.00    -0.506 OA
ATOM     26  H   UNL     1      33.099 -25.285 -12.618  0.00  0.00    +0.292 HD
ENDBRANCH   4  25
BRANCH   5  27
ATOM     27  O   UNL     1      31.973 -21.996 -16.894  0.00  0.00    -0.504 OA
ATOM     28  H   UNL     1      31.453 -22.555 -17.436  0.00  0.00    +0.292 HD
ENDBRANCH   5  27
BRANCH   1  29
ATOM     29  C   UNL     1      35.518 -24.246 -13.120  0.00  0.00    +0.018 C 
BRANCH  29  30
ATOM     30  CA  UNL     1      35.928 -23.268 -11.998  0.00  0.00    +0.040 C 
BRANCH  30  31
ATOM     31  N   UNL     1      37.122 -22.520 -12.387  0.00  0.00    +0.389 N 
ATOM     32  H1  UNL     1      37.202 -22.513 -13.403  0.00  0.00    -0.088 HD
ATOM     33  H2  UNL     1      37.947 -22.962 -11.983  0.00  0.00    -0.088 HD
ATOM     34  H3  UNL     1      37.047 -21.561 -12.046  0.00  0.00    -0.088 HD
ENDBRANCH  30  31
BRANCH  30  36
ATOM     35  OXT UNL     1      35.467 -24.596 -10.009  0.00  0.00    -0.253 OA
ATOM     36  C   UNL     1      36.272 -23.996 -10.710  0.00  0.00    +0.293 C 
BRANCH  36  37
ATOM     37  O   UNL     1      37.600 -23.944 -10.425  0.00  0.00    -0.482 OA
ATOM     38  H   UNL     1      38.225 -24.240 -11.056  0.00  0.00    +0.295 HD
ENDBRANCH  36  37
ENDBRANCH  30  36
ENDBRANCH  29  30
ENDBRANCH   1  29
TORSDOF 13
ENDMDL
MODEL 8
REMARK VINA RESULT:      -9.4      2.099      6.088
REMARK  Name = 17754104
REMARK  13 active torsions:
REMARK  status: ('A' for Active; 'I' for Inactive)
REMARK    1  A    between atoms: C_1  and  C_29
REMARK    2  A    between atoms: C_3  and  N_11
REMARK    3  A    between atoms: C_4  and  O_7
REMARK    4  A    between atoms: C_5  and  O_9
REMARK    5  A    between atoms: C_13  and  C_14
REMARK    6  A    between atoms: C_13  and  C_17
REMARK    7  A    between atoms: C_14  and  C_16
REMARK    8  A    between atoms: C_17  and  O_18
REMARK    9  A    between atoms: O_18  and  C_21
REMARK   10  A    between atoms: C_29  and  CA_30
REMARK   11  A    between atoms: CA_30  and  N_31
REMARK   12  A    between atoms: CA_30  and  C_36
REMARK   13  A    between atoms: C_36  and  O_37
REMARK                            x       y       z     vdW  Elec       q    Type
REMARK                         _______ _______ _______ _____ _____    ______ ____
ROOT
ATOM      1  C   UNL     1      35.832 -24.219 -13.038  0.00  0.00    +0.012 C 
ATOM      2  C   UNL     1      35.443 -23.805 -14.312  0.00  0.00    +0.019 C 
ATOM      3  C   UNL     1      34.268 -23.072 -14.478  0.00  0.00    +0.090 C 
ATOM      4  C   UNL     1      35.045 -23.901 -11.931  0.00  0.00    +0.133 C 
ATOM      5  C   UNL     1      33.482 -22.753 -13.371  0.00  0.00    +0.152 C 
ATOM      6  C   UNL     1      33.871 -23.169 -12.098  0.00  0.00    +0.074 C 
ENDROOT
BRANCH   3   7
ATOM      7  N   UNL     1      33.891 -22.662 -15.760  0.00  0.00    -0.354 N 
ATOM      8  H   UNL     1      34.626 -22.412 -16.365  0.00  0.00    +0.166 HD
ATOM      9  C   UNL     1      32.628 -22.565 -16.281  0.00  0.00    +0.063 C 
BRANCH   9  10
ATOM     10  C   UNL     1      31.564 -23.318 -15.945  0.00  0.00    +0.115 C 
BRANCH  10  12
ATOM     11  O   UNL     1      29.734 -21.976 -16.612  0.00  0.00    -0.288 OA
ATOM     12  C   UNL     1      30.192 -22.784 -15.811  0.00  0.00    +0.213 C 
ENDBRANCH  10  12
ENDBRANCH   9  10
BRANCH   9  13
ATOM     13  C   UNL     1      32.461 -21.511 -17.351  0.00  0.00    +0.245 C 
BRANCH  13  14
ATOM     14  O   UNL     1      33.125 -21.934 -18.540  0.00  0.00    -0.469 OA
BRANCH  14  17
ATOM     15  C   UNL     1      34.856 -19.372 -20.523  0.00  0.00    +0.003 C 
ATOM     16  C   UNL     1      36.165 -19.481 -19.997  0.00  0.00    +0.000 C 
ATOM     17  C   UNL     1      34.117 -21.132 -19.015  0.00  0.00    +0.139 C 
ATOM     18  C   UNL     1      33.843 -20.206 -20.020  0.00  0.00    +0.037 C 
ATOM     19  C   UNL     1      36.424 -20.420 -18.985  0.00  0.00    +0.003 C 
ATOM     20  C   UNL     1      35.405 -21.239 -18.498  0.00  0.00    +0.037 C 
ATOM     21  C   UNL     1      34.598 -18.434 -21.535  0.00  0.00    +0.000 C 
ATOM     22  C   UNL     1      37.179 -18.648 -20.499  0.00  0.00    +0.000 C 
ATOM     23  C   UNL     1      35.616 -17.614 -22.022  0.00  0.00    +0.000 C 
ATOM     24  C   UNL     1      36.904 -17.721 -21.505  0.00  0.00    +0.000 C 
ENDBRANCH  14  17
ENDBRANCH  13  14
ENDBRANCH   9  13
ENDBRANCH   3   7
BRANCH   4  25
ATOM     25  O   UNL     1      35.411 -24.297 -10.680  0.00  0.00    -0.506 OA
ATOM     26  H   UNL     1      36.242 -24.040 -10.330  0.00  0.00    +0.292 HD
ENDBRANCH   4  25
BRANCH   5  27
ATOM     27  O   UNL     1      32.331 -22.038 -13.513  0.00  0.00    -0.504 OA
ATOM     28  H   UNL     1      32.250 -21.412 -14.206  0.00  0.00    +0.292 HD
ENDBRANCH   5  27
BRANCH   1  29
ATOM     29  C   UNL     1      37.091 -25.005 -12.878  0.00  0.00    +0.018 C 
BRANCH  29  30
ATOM     30  CA  UNL     1      38.362 -24.129 -12.826  0.00  0.00    +0.040 C 
BRANCH  30  31
ATOM     31  N   UNL     1      39.551 -24.942 -13.067  0.00  0.00    +0.389 N 
ATOM     32  H1  UNL     1      39.819 -24.869 -14.049  0.00  0.00    -0.088 HD
ATOM     33  H2  UNL     1      39.350 -25.916 -12.841  0.00  0.00    -0.088 HD
ATOM     34  H3  UNL     1      40.316 -24.607 -12.482  0.00  0.00    -0.088 HD
ENDBRANCH  30  31
BRANCH  30  36
ATOM     35  OXT UNL     1      39.010 -22.364 -11.276  0.00  0.00    -0.253 OA
ATOM     36  C   UNL     1      38.547 -23.483 -11.463  0.00  0.00    +0.293 C 
BRANCH  36  37
ATOM     37  O   UNL     1      38.105 -24.275 -10.451  0.00  0.00    -0.482 OA
ATOM     38  H   UNL     1      38.719 -24.683  -9.874  0.00  0.00    +0.295 HD
ENDBRANCH  36  37
ENDBRANCH  30  36
ENDBRANCH  29  30
ENDBRANCH   1  29
TORSDOF 13
ENDMDL
MODEL 9
REMARK VINA RESULT:      -9.4      6.098      9.979
REMARK  Name = 17754104
REMARK  13 active torsions:
REMARK  status: ('A' for Active; 'I' for Inactive)
REMARK    1  A    between atoms: C_1  and  C_29
REMARK    2  A    between atoms: C_3  and  N_11
REMARK    3  A    between atoms: C_4  and  O_7
REMARK    4  A    between atoms: C_5  and  O_9
REMARK    5  A    between atoms: C_13  and  C_14
REMARK    6  A    between atoms: C_13  and  C_17
REMARK    7  A    between atoms: C_14  and  C_16
REMARK    8  A    between atoms: C_17  and  O_18
REMARK    9  A    between atoms: O_18  and  C_21
REMARK   10  A    between atoms: C_29  and  CA_30
REMARK   11  A    between atoms: CA_30  and  N_31
REMARK   12  A    between atoms: CA_30  and  C_36
REMARK   13  A    between atoms: C_36  and  O_37
REMARK                            x       y       z     vdW  Elec       q    Type
REMARK                         _______ _______ _______ _____ _____    ______ ____
ROOT
ATOM      1  C   UNL     1      33.115 -13.423 -20.613  0.00  0.00    +0.012 C 
ATOM      2  C   UNL     1      33.712 -14.549 -20.046  0.00  0.00    +0.019 C 
ATOM      3  C   UNL     1      34.743 -15.205 -20.720  0.00  0.00    +0.090 C 
ATOM      4  C   UNL     1      33.550 -12.952 -21.852  0.00  0.00    +0.133 C 
ATOM      5  C   UNL     1      35.178 -14.734 -21.958  0.00  0.00    +0.152 C 
ATOM      6  C   UNL     1      34.580 -13.608 -22.524  0.00  0.00    +0.074 C 
ENDROOT
BRANCH   3   7
ATOM      7  N   UNL     1      35.332 -16.332 -20.141  0.00  0.00    -0.354 N 
ATOM      8  H   UNL     1      35.773 -16.188 -19.272  0.00  0.00    +0.166 HD
ATOM      9  C   UNL     1      35.376 -17.610 -20.629  0.00  0.00    +0.063 C 
BRANCH   9  10
ATOM     10  C   UNL     1      34.457 -18.197 -21.417  0.00  0.00    +0.115 C 
BRANCH  10  12
ATOM     11  O   UNL     1      34.648 -17.621 -23.704  0.00  0.00    -0.288 OA
ATOM     12  C   UNL     1      34.676 -18.500 -22.848  0.00  0.00    +0.213 C 
ENDBRANCH  10  12
ENDBRANCH   9  10
BRANCH   9  13
ATOM     13  C   UNL     1      36.581 -18.415 -20.199  0.00  0.00    +0.245 C 
BRANCH  13  14
ATOM     14  O   UNL     1      36.295 -19.806 -20.335  0.00  0.00    -0.469 OA
BRANCH  14  17
ATOM     15  C   UNL     1      36.470 -21.343 -17.004  0.00  0.00    +0.003 C 
ATOM     16  C   UNL     1      35.158 -21.860 -16.890  0.00  0.00    +0.000 C 
ATOM     17  C   UNL     1      35.923 -20.475 -19.210  0.00  0.00    +0.139 C 
ATOM     18  C   UNL     1      36.837 -20.652 -18.171  0.00  0.00    +0.037 C 
ATOM     19  C   UNL     1      34.251 -21.673 -17.946  0.00  0.00    +0.003 C 
ATOM     20  C   UNL     1      34.632 -20.984 -19.097  0.00  0.00    +0.037 C 
ATOM     21  C   UNL     1      37.377 -21.531 -15.948  0.00  0.00    +0.000 C 
ATOM     22  C   UNL     1      34.791 -22.551 -15.723  0.00  0.00    +0.000 C 
ATOM     23  C   UNL     1      36.996 -22.219 -14.796  0.00  0.00    +0.000 C 
ATOM     24  C   UNL     1      35.705 -22.728 -14.684  0.00  0.00    +0.000 C 
ENDBRANCH  14  17
ENDBRANCH  13  14
ENDBRANCH   9  13
ENDBRANCH   3   7
BRANCH   4  25
ATOM     25  O   UNL     1      32.979 -11.853 -22.418  0.00  0.00    -0.506 OA
ATOM     26  H   UNL     1      32.363 -11.341 -21.932  0.00  0.00    +0.292 HD
ENDBRANCH   4  25
BRANCH   5  27
ATOM     27  O   UNL     1      36.184 -15.360 -22.631  0.00  0.00    -0.504 OA
ATOM     28  H   UNL     1      36.433 -16.232 -22.396  0.00  0.00    +0.292 HD
ENDBRANCH   5  27
BRANCH   1  29
ATOM     29  C   UNL     1      32.011 -12.735 -19.880  0.00  0.00    +0.018 C 
BRANCH  29  30
ATOM     30  CA  UNL     1      32.338 -11.273 -19.506  0.00  0.00    +0.040 C 
BRANCH  30  31
ATOM     31  N   UNL     1      31.823 -10.961 -18.174  0.00  0.00    +0.389 N 
ATOM     32  H1  UNL     1      32.222 -11.609 -17.496  0.00  0.00    -0.088 HD
ATOM     33  H2  UNL     1      30.807 -11.049 -18.172  0.00  0.00    -0.088 HD
ATOM     34  H3  UNL     1      32.083 -10.006 -17.925  0.00  0.00    -0.088 HD
ENDBRANCH  30  31
BRANCH  30  36
ATOM     35  OXT UNL     1      32.161  -9.198 -20.770  0.00  0.00    -0.253 OA
ATOM     36  C   UNL     1      31.691 -10.286 -20.463  0.00  0.00    +0.293 C 
BRANCH  36  37
ATOM     37  O   UNL     1      30.528 -10.759 -20.985  0.00  0.00    -0.482 OA
ATOM     38  H   UNL     1      30.040 -10.236 -21.589  0.00  0.00    +0.295 HD
ENDBRANCH  36  37
ENDBRANCH  30  36
ENDBRANCH  29  30
ENDBRANCH   1  29
TORSDOF 13
ENDMDL
