MODEL 1
REMARK VINA RESULT:     -12.0      0.000      0.000
REMARK  Name = 2754
REMARK  7 active torsions:
REMARK  status: ('A' for Active; 'I' for Inactive)
REMARK    1  A    between atoms: C_1  and  C_2
REMARK    2  A    between atoms: C_1  and  C_15
REMARK    3  A    between atoms: C_2  and  C_3
REMARK    4  A    between atoms: C_3  and  C_8
REMARK    5  A    between atoms: N_4  and  C_9
REMARK    6  A    between atoms: C_15  and  O_16
REMARK    7  A    between atoms: O_16  and  C_23
REMARK                            x       y       z     vdW  Elec       q    Type
REMARK                         _______ _______ _______ _____ _____    ______ ____
ROOT
ATOM      1  C   UNL     1      33.513 -22.793 -15.100  0.00  0.00    +0.048 C 
ENDROOT
BRANCH   1   2
ATOM      2  C   UNL     1      34.696 -23.574 -14.530  0.00  0.00    +0.012 C 
BRANCH   2   3
ATOM      3  C   UNL     1      35.445 -22.756 -13.474  0.00  0.00    +0.068 C 
BRANCH   3   8
ATOM      4  N   UNL     1      36.827 -24.320 -12.107  0.00  0.00    -0.219 N 
ATOM      5  N   UNL     1      36.793 -24.922 -10.910  0.00  0.00    -0.043 NA
ATOM      6  N   UNL     1      34.977 -23.659 -11.188  0.00  0.00    -0.113 NA
ATOM      7  N   UNL     1      35.661 -24.514 -10.351  0.00  0.00    -0.023 NA
ATOM      8  C   UNL     1      35.724 -23.573 -12.238  0.00  0.00    +0.161 A 
BRANCH   4   9
ATOM      9  C   UNL     1      37.950 -24.531 -13.029  0.00  0.00    +0.108 C 
ATOM     10  C   UNL     1      38.042 -25.988 -13.513  0.00  0.00    +0.024 C 
ATOM     11  C   UNL     1      39.286 -24.044 -12.442  0.00  0.00    +0.024 C 
ATOM     12  C   UNL     1      39.198 -26.176 -14.495  0.00  0.00    +0.002 C 
ATOM     13  C   UNL     1      40.432 -24.244 -13.431  0.00  0.00    +0.002 C 
ATOM     14  C   UNL     1      40.521 -25.693 -13.906  0.00  0.00    +0.000 C 
ENDBRANCH   4   9
ENDBRANCH   3   8
ENDBRANCH   2   3
ENDBRANCH   1   2
BRANCH   1  15
ATOM     15  C   UNL     1      33.464 -22.878 -16.618  0.00  0.00    +0.205 C 
BRANCH  15  16
ATOM     16  O   UNL     1      34.716 -22.444 -17.146  0.00  0.00    -0.475 OA
BRANCH  16  23
ATOM     17  O   UNL     1      35.648 -17.046 -22.473  0.00  0.00    -0.275 OA
ATOM     18  N   UNL     1      34.579 -18.540 -21.095  0.00  0.00    -0.284 N 
ATOM     19  C   UNL     1      35.838 -19.856 -19.484  0.00  0.00    -0.005 C 
ATOM     20  C   UNL     1      37.072 -19.078 -19.840  0.00  0.00    +0.037 C 
ATOM     21  C   UNL     1      34.621 -19.532 -20.099  0.00  0.00    +0.046 C 
ATOM     22  C   UNL     1      37.022 -18.613 -21.287  0.00  0.00    +0.090 C 
ATOM     23  C   UNL     1      34.682 -21.476 -18.103  0.00  0.00    +0.138 C 
ATOM     24  C   UNL     1      35.860 -20.828 -18.479  0.00  0.00    +0.034 C 
ATOM     25  C   UNL     1      35.702 -17.963 -21.655  0.00  0.00    +0.226 C 
ATOM     26  C   UNL     1      33.439 -20.165 -19.710  0.00  0.00    +0.017 C 
ATOM     27  C   UNL     1      33.475 -21.144 -18.716  0.00  0.00    +0.038 C 
ATOM     28  H   UNL     1      33.696 -18.238 -21.411  0.00  0.00    +0.155 HD
ENDBRANCH  16  23
ENDBRANCH  15  16
ENDBRANCH   1  15
TORSDOF 7
ENDMDL
MODEL 2
REMARK VINA RESULT:     -11.4      2.461      9.852
REMARK  Name = 2754
REMARK  7 active torsions:
REMARK  status: ('A' for Active; 'I' for Inactive)
REMARK    1  A    between atoms: C_1  and  C_2
REMARK    2  A    between atoms: C_1  and  C_15
REMARK    3  A    between atoms: C_2  and  C_3
REMARK    4  A    between atoms: C_3  and  C_8
REMARK    5  A    between atoms: N_4  and  C_9
REMARK    6  A    between atoms: C_15  and  O_16
REMARK    7  A    between atoms: O_16  and  C_23
REMARK                            x       y       z     vdW  Elec       q    Type
REMARK                         _______ _______ _______ _____ _____    ______ ____
ROOT
ATOM      1  C   UNL     1      33.761 -21.995 -18.792  0.00  0.00    +0.048 C 
ENDROOT
BRANCH   1   2
ATOM      2  C   UNL     1      33.228 -20.563 -18.826  0.00  0.00    +0.012 C 
BRANCH   2   3
ATOM      3  C   UNL     1      33.629 -19.852 -20.121  0.00  0.00    +0.068 C 
BRANCH   3   8
ATOM      4  N   UNL     1      35.551 -18.476 -20.922  0.00  0.00    -0.219 N 
ATOM      5  N   UNL     1      36.846 -18.280 -20.639  0.00  0.00    -0.043 NA
ATOM      6  N   UNL     1      35.980 -19.806 -19.264  0.00  0.00    -0.113 NA
ATOM      7  N   UNL     1      37.104 -19.096 -19.624  0.00  0.00    -0.023 NA
ATOM      8  C   UNL     1      35.066 -19.396 -20.078  0.00  0.00    +0.161 A 
BRANCH   4   9
ATOM      9  C   UNL     1      34.892 -17.736 -22.005  0.00  0.00    +0.108 C 
ATOM     10  C   UNL     1      34.837 -18.543 -23.314  0.00  0.00    +0.024 C 
ATOM     11  C   UNL     1      35.513 -16.346 -22.224  0.00  0.00    +0.024 C 
ATOM     12  C   UNL     1      34.120 -17.766 -24.417  0.00  0.00    +0.002 C 
ATOM     13  C   UNL     1      34.791 -15.583 -23.333  0.00  0.00    +0.002 C 
ATOM     14  C   UNL     1      34.741 -16.388 -24.630  0.00  0.00    +0.000 C 
ENDBRANCH   4   9
ENDBRANCH   3   8
ENDBRANCH   2   3
ENDBRANCH   1   2
BRANCH   1  15
ATOM     15  C   UNL     1      33.704 -22.581 -17.389  0.00  0.00    +0.205 C 
BRANCH  15  16
ATOM     16  O   UNL     1      34.939 -22.316 -16.727  0.00  0.00    -0.475 OA
BRANCH  16  23
ATOM     17  O   UNL     1      36.414 -23.737  -9.366  0.00  0.00    -0.275 OA
ATOM     18  N   UNL     1      35.254 -23.658 -11.346  0.00  0.00    -0.284 N 
ATOM     19  C   UNL     1      36.306 -22.796 -13.362  0.00  0.00    -0.005 C 
ATOM     20  C   UNL     1      37.608 -22.700 -12.620  0.00  0.00    +0.037 C 
ATOM     21  C   UNL     1      35.179 -23.310 -12.707  0.00  0.00    +0.046 C 
ATOM     22  C   UNL     1      37.371 -22.440 -11.140  0.00  0.00    +0.090 C 
ATOM     23  C   UNL     1      35.023 -22.657 -15.412  0.00  0.00    +0.138 C 
ATOM     24  C   UNL     1      36.222 -22.477 -14.721  0.00  0.00    +0.034 C 
ATOM     25  C   UNL     1      36.332 -23.363 -10.535  0.00  0.00    +0.226 C 
ATOM     26  C   UNL     1      33.984 -23.510 -13.402  0.00  0.00    +0.017 C 
ATOM     27  C   UNL     1      33.907 -23.175 -14.755  0.00  0.00    +0.038 C 
ATOM     28  H   UNL     1      34.493 -24.140 -10.948  0.00  0.00    +0.155 HD
ENDBRANCH  16  23
ENDBRANCH  15  16
ENDBRANCH   1  15
TORSDOF 7
ENDMDL
MODEL 3
REMARK VINA RESULT:     -11.4      1.245      1.904
REMARK  Name = 2754
REMARK  7 active torsions:
REMARK  status: ('A' for Active; 'I' for Inactive)
REMARK    1  A    between atoms: C_1  and  C_2
REMARK    2  A    between atoms: C_1  and  C_15
REMARK    3  A    between atoms: C_2  and  C_3
REMARK    4  A    between atoms: C_3  and  C_8
REMARK    5  A    between atoms: N_4  and  C_9
REMARK    6  A    between atoms: C_15  and  O_16
REMARK    7  A    between atoms: O_16  and  C_23
REMARK                            x       y       z     vdW  Elec       q    Type
REMARK                         _______ _______ _______ _____ _____    ______ ____
ROOT
ATOM      1  C   UNL     1      32.739 -23.760 -14.024  0.00  0.00    +0.048 C 
ENDROOT
BRANCH   1   2
ATOM      2  C   UNL     1      33.502 -23.496 -12.726  0.00  0.00    +0.012 C 
BRANCH   2   3
ATOM      3  C   UNL     1      35.014 -23.499 -12.961  0.00  0.00    +0.068 C 
BRANCH   3   8
ATOM      4  N   UNL     1      37.063 -23.982 -11.621  0.00  0.00    -0.219 N 
ATOM      5  N   UNL     1      37.456 -24.001 -10.340  0.00  0.00    -0.043 NA
ATOM      6  N   UNL     1      35.312 -23.407 -10.478  0.00  0.00    -0.113 NA
ATOM      7  N   UNL     1      36.382 -23.648  -9.645  0.00  0.00    -0.023 NA
ATOM      8  C   UNL     1      35.774 -23.622 -11.664  0.00  0.00    +0.161 A 
BRANCH   4   9
ATOM      9  C   UNL     1      37.994 -24.321 -12.704  0.00  0.00    +0.108 C 
ATOM     10  C   UNL     1      37.908 -25.803 -13.105  0.00  0.00    +0.024 C 
ATOM     11  C   UNL     1      39.440 -23.906 -12.382  0.00  0.00    +0.024 C 
ATOM     12  C   UNL     1      38.863 -26.125 -14.254  0.00  0.00    +0.002 C 
ATOM     13  C   UNL     1      40.384 -24.240 -13.535  0.00  0.00    +0.002 C 
ATOM     14  C   UNL     1      40.296 -25.713 -13.928  0.00  0.00    +0.000 C 
ENDBRANCH   4   9
ENDBRANCH   3   8
ENDBRANCH   2   3
ENDBRANCH   1   2
BRANCH   1  15
ATOM     15  C   UNL     1      33.040 -22.704 -15.077  0.00  0.00    +0.205 C 
BRANCH  15  16
ATOM     16  O   UNL     1      33.921 -23.260 -16.050  0.00  0.00    -0.475 OA
BRANCH  16  23
ATOM     17  O   UNL     1      36.767 -18.165 -20.982  0.00  0.00    -0.275 OA
ATOM     18  N   UNL     1      36.696 -19.649 -19.231  0.00  0.00    -0.284 N 
ATOM     19  C   UNL     1      34.662 -20.889 -18.743  0.00  0.00    -0.005 C 
ATOM     20  C   UNL     1      34.043 -20.330 -19.992  0.00  0.00    +0.037 C 
ATOM     21  C   UNL     1      35.986 -20.558 -18.426  0.00  0.00    +0.046 C 
ATOM     22  C   UNL     1      34.606 -18.952 -20.307  0.00  0.00    +0.090 C 
ATOM     23  C   UNL     1      34.604 -22.386 -16.840  0.00  0.00    +0.138 C 
ATOM     24  C   UNL     1      33.977 -21.812 -17.947  0.00  0.00    +0.034 C 
ATOM     25  C   UNL     1      36.120 -18.902 -20.239  0.00  0.00    +0.226 C 
ATOM     26  C   UNL     1      36.621 -21.147 -17.330  0.00  0.00    +0.017 C 
ATOM     27  C   UNL     1      35.923 -22.056 -16.534  0.00  0.00    +0.038 C 
ATOM     28  H   UNL     1      37.661 -19.539 -19.065  0.00  0.00    +0.155 HD
ENDBRANCH  16  23
ENDBRANCH  15  16
ENDBRANCH   1  15
TORSDOF 7
ENDMDL
MODEL 4
REMARK VINA RESULT:     -11.1      3.008      5.173
REMARK  Name = 2754
REMARK  7 active torsions:
REMARK  status: ('A' for Active; 'I' for Inactive)
REMARK    1  A    between atoms: C_1  and  C_2
REMARK    2  A    between atoms: C_1  and  C_15
REMARK    3  A    between atoms: C_2  and  C_3
REMARK    4  A    between atoms: C_3  and  C_8
REMARK    5  A    between atoms: N_4  and  C_9
REMARK    6  A    between atoms: C_15  and  O_16
REMARK    7  A    between atoms: O_16  and  C_23
REMARK                            x       y       z     vdW  Elec       q    Type
REMARK                         _______ _______ _______ _____ _____    ______ ____
ROOT
ATOM      1  C   UNL     1      36.106 -21.085 -17.847  0.00  0.00    +0.048 C 
ENDROOT
BRANCH   1   2
ATOM      2  C   UNL     1      37.285 -21.079 -16.875  0.00  0.00    +0.012 C 
BRANCH   2   3
ATOM      3  C   UNL     1      36.819 -21.313 -15.436  0.00  0.00    +0.068 C 
BRANCH   3   8
ATOM      4  N   UNL     1      35.346 -23.284 -15.023  0.00  0.00    -0.219 N 
ATOM      5  N   UNL     1      35.453 -24.601 -14.795  0.00  0.00    -0.043 NA
ATOM      6  N   UNL     1      37.475 -23.695 -15.038  0.00  0.00    -0.113 NA
ATOM      7  N   UNL     1      36.757 -24.847 -14.805  0.00  0.00    -0.023 NA
ATOM      8  C   UNL     1      36.577 -22.777 -15.164  0.00  0.00    +0.161 A 
BRANCH   4   9
ATOM      9  C   UNL     1      34.033 -22.631 -15.086  0.00  0.00    +0.108 C 
ATOM     10  C   UNL     1      33.141 -22.995 -13.887  0.00  0.00    +0.024 C 
ATOM     11  C   UNL     1      33.316 -22.889 -16.423  0.00  0.00    +0.024 C 
ATOM     12  C   UNL     1      31.794 -22.279 -13.958  0.00  0.00    +0.002 C 
ATOM     13  C   UNL     1      31.968 -22.173 -16.477  0.00  0.00    +0.002 C 
ATOM     14  C   UNL     1      31.086 -22.540 -15.286  0.00  0.00    +0.000 C 
ENDBRANCH   4   9
ENDBRANCH   3   8
ENDBRANCH   2   3
ENDBRANCH   1   2
BRANCH   1  15
ATOM     15  C   UNL     1      36.437 -20.344 -19.134  0.00  0.00    +0.205 C 
BRANCH  15  16
ATOM     16  O   UNL     1      35.220 -19.984 -19.785  0.00  0.00    -0.475 OA
BRANCH  16  23
ATOM     17  O   UNL     1      34.878 -15.071 -25.627  0.00  0.00    -0.275 OA
ATOM     18  N   UNL     1      35.443 -15.926 -23.572  0.00  0.00    -0.284 N 
ATOM     19  C   UNL     1      34.735 -18.161 -22.926  0.00  0.00    -0.005 C 
ATOM     20  C   UNL     1      34.195 -18.371 -24.311  0.00  0.00    +0.037 C 
ATOM     21  C   UNL     1      35.378 -16.955 -22.615  0.00  0.00    +0.046 C 
ATOM     22  C   UNL     1      33.734 -17.055 -24.919  0.00  0.00    +0.090 C 
ATOM     23  C   UNL     1      35.286 -18.996 -20.719  0.00  0.00    +0.138 C 
ATOM     24  C   UNL     1      34.699 -19.183 -21.972  0.00  0.00    +0.034 C 
ATOM     25  C   UNL     1      34.754 -15.944 -24.769  0.00  0.00    +0.226 C 
ATOM     26  C   UNL     1      35.983 -16.775 -21.369  0.00  0.00    +0.017 C 
ATOM     27  C   UNL     1      35.928 -17.796 -20.420  0.00  0.00    +0.038 C 
ATOM     28  H   UNL     1      36.015 -15.148 -23.377  0.00  0.00    +0.155 HD
ENDBRANCH  16  23
ENDBRANCH  15  16
ENDBRANCH   1  15
TORSDOF 7
ENDMDL
MODEL 5
REMARK VINA RESULT:     -10.9      5.421     12.159
REMARK  Name = 2754
REMARK  7 active torsions:
REMARK  status: ('A' for Active; 'I' for Inactive)
REMARK    1  A    between atoms: C_1  and  C_2
REMARK    2  A    between atoms: C_1  and  C_15
REMARK    3  A    between atoms: C_2  and  C_3
REMARK    4  A    between atoms: C_3  and  C_8
REMARK    5  A    between atoms: N_4  and  C_9
REMARK    6  A    between atoms: C_15  and  O_16
REMARK    7  A    between atoms: O_16  and  C_23
REMARK                            x       y       z     vdW  Elec       q    Type
REMARK                         _______ _______ _______ _____ _____    ______ ____
ROOT
ATOM      1  C   UNL     1      33.601 -16.566 -25.159  0.00  0.00    +0.048 C 
ENDROOT
BRANCH   1   2
ATOM      2  C   UNL     1      34.210 -15.185 -24.921  0.00  0.00    +0.012 C 
BRANCH   2   3
ATOM      3  C   UNL     1      33.128 -14.145 -24.619  0.00  0.00    +0.068 C 
BRANCH   3   8
ATOM      4  N   UNL     1      34.022 -12.054 -23.593  0.00  0.00    -0.219 N 
ATOM      5  N   UNL     1      34.471 -10.849 -23.973  0.00  0.00    -0.043 NA
ATOM      6  N   UNL     1      33.875 -12.045 -25.757  0.00  0.00    -0.113 NA
ATOM      7  N   UNL     1      34.380 -10.850 -25.297  0.00  0.00    -0.023 NA
ATOM      8  C   UNL     1      33.675 -12.741 -24.688  0.00  0.00    +0.161 A 
BRANCH   4   9
ATOM      9  C   UNL     1      33.973 -12.431 -22.175  0.00  0.00    +0.108 C 
ATOM     10  C   UNL     1      34.734 -13.738 -21.893  0.00  0.00    +0.024 C 
ATOM     11  C   UNL     1      32.533 -12.488 -21.637  0.00  0.00    +0.024 C 
ATOM     12  C   UNL     1      34.694 -14.095 -20.408  0.00  0.00    +0.002 C 
ATOM     13  C   UNL     1      32.509 -12.852 -20.154  0.00  0.00    +0.002 C 
ATOM     14  C   UNL     1      33.263 -14.151 -19.879  0.00  0.00    +0.000 C 
ENDBRANCH   4   9
ENDBRANCH   3   8
ENDBRANCH   2   3
ENDBRANCH   1   2
BRANCH   1  15
ATOM     15  C   UNL     1      34.273 -17.630 -24.304  0.00  0.00    +0.205 C 
BRANCH  15  16
ATOM     16  O   UNL     1      35.093 -16.989 -23.329  0.00  0.00    -0.475 OA
BRANCH  16  23
ATOM     17  O   UNL     1      36.045 -21.584 -17.299  0.00  0.00    -0.275 OA
ATOM     18  N   UNL     1      36.540 -20.015 -18.901  0.00  0.00    -0.284 N 
ATOM     19  C   UNL     1      34.857 -19.320 -20.512  0.00  0.00    -0.005 C 
ATOM     20  C   UNL     1      33.837 -20.138 -19.774  0.00  0.00    +0.037 C 
ATOM     21  C   UNL     1      36.169 -19.256 -20.026  0.00  0.00    +0.046 C 
ATOM     22  C   UNL     1      34.487 -21.340 -19.105  0.00  0.00    +0.090 C 
ATOM     23  C   UNL     1      35.442 -17.721 -22.235  0.00  0.00    +0.138 C 
ATOM     24  C   UNL     1      34.497 -18.542 -21.617  0.00  0.00    +0.034 C 
ATOM     25  C   UNL     1      35.736 -20.980 -18.325  0.00  0.00    +0.226 C 
ATOM     26  C   UNL     1      37.109 -18.419 -20.631  0.00  0.00    +0.017 C 
ATOM     27  C   UNL     1      36.744 -17.658 -21.741  0.00  0.00    +0.038 C 
ATOM     28  H   UNL     1      37.424 -19.848 -18.501  0.00  0.00    +0.155 HD
ENDBRANCH  16  23
ENDBRANCH  15  16
ENDBRANCH   1  15
TORSDOF 7
ENDMDL
MODEL 6
REMARK VINA RESULT:     -10.9      7.963     12.291
REMARK  Name = 2754
REMARK  7 active torsions:
REMARK  status: ('A' for Active; 'I' for Inactive)
REMARK    1  A    between atoms: C_1  and  C_2
REMARK    2  A    between atoms: C_1  and  C_15
REMARK    3  A    between atoms: C_2  and  C_3
REMARK    4  A    between atoms: C_3  and  C_8
REMARK    5  A    between atoms: N_4  and  C_9
REMARK    6  A    between atoms: C_15  and  O_16
REMARK    7  A    between atoms: O_16  and  C_23
REMARK                            x       y       z     vdW  Elec       q    Type
REMARK                         _______ _______ _______ _____ _____    ______ ____
ROOT
ATOM      1  C   UNL     1      34.105 -12.943 -21.541  0.00  0.00    +0.048 C 
ENDROOT
BRANCH   1   2
ATOM      2  C   UNL     1      34.247 -13.664 -22.881  0.00  0.00    +0.012 C 
BRANCH   2   3
ATOM      3  C   UNL     1      35.247 -14.819 -22.786  0.00  0.00    +0.068 C 
BRANCH   3   8
ATOM      4  N   UNL     1      34.807 -17.253 -23.119  0.00  0.00    -0.219 N 
ATOM      5  N   UNL     1      34.357 -18.081 -24.071  0.00  0.00    -0.043 NA
ATOM      6  N   UNL     1      34.370 -15.982 -24.821  0.00  0.00    -0.113 NA
ATOM      7  N   UNL     1      34.091 -17.300 -25.110  0.00  0.00    -0.023 NA
ATOM      8  C   UNL     1      34.800 -16.005 -23.604  0.00  0.00    +0.161 A 
BRANCH   4   9
ATOM      9  C   UNL     1      35.207 -17.760 -21.801  0.00  0.00    +0.108 C 
ATOM     10  C   UNL     1      36.726 -17.982 -21.698  0.00  0.00    +0.024 C 
ATOM     11  C   UNL     1      34.423 -19.021 -21.398  0.00  0.00    +0.024 C 
ATOM     12  C   UNL     1      37.122 -18.480 -20.309  0.00  0.00    +0.002 C 
ATOM     13  C   UNL     1      34.835 -19.512 -20.011  0.00  0.00    +0.002 C 
ATOM     14  C   UNL     1      36.343 -19.732 -19.915  0.00  0.00    +0.000 C 
ENDBRANCH   4   9
ENDBRANCH   3   8
ENDBRANCH   2   3
ENDBRANCH   1   2
BRANCH   1  15
ATOM     15  C   UNL     1      32.693 -13.062 -20.987  0.00  0.00    +0.205 C 
BRANCH  15  16
ATOM     16  O   UNL     1      31.936 -11.926 -21.403  0.00  0.00    -0.475 OA
BRANCH  16  23
ATOM     17  O   UNL     1      32.750  -4.994 -18.294  0.00  0.00    -0.275 OA
ATOM     18  N   UNL     1      32.458  -7.268 -18.422  0.00  0.00    -0.284 N 
ATOM     19  C   UNL     1      32.468  -8.397 -20.576  0.00  0.00    -0.005 C 
ATOM     20  C   UNL     1      32.853  -7.103 -21.232  0.00  0.00    +0.037 C 
ATOM     21  C   UNL     1      32.321  -8.443 -19.183  0.00  0.00    +0.046 C 
ATOM     22  C   UNL     1      32.297  -5.916 -20.460  0.00  0.00    +0.090 C 
ATOM     23  C   UNL     1      32.079 -10.786 -20.673  0.00  0.00    +0.138 C 
ATOM     24  C   UNL     1      32.352  -9.577 -21.316  0.00  0.00    +0.034 C 
ATOM     25  C   UNL     1      32.557  -6.004 -18.970  0.00  0.00    +0.226 C 
ATOM     26  C   UNL     1      32.068  -9.655 -18.537  0.00  0.00    +0.017 C 
ATOM     27  C   UNL     1      31.940 -10.825 -19.287  0.00  0.00    +0.038 C 
ATOM     28  H   UNL     1      32.485  -7.352 -17.441  0.00  0.00    +0.155 HD
ENDBRANCH  16  23
ENDBRANCH  15  16
ENDBRANCH   1  15
TORSDOF 7
ENDMDL
MODEL 7
REMARK VINA RESULT:     -10.8      2.288      3.655
REMARK  Name = 2754
REMARK  7 active torsions:
REMARK  status: ('A' for Active; 'I' for Inactive)
REMARK    1  A    between atoms: C_1  and  C_2
REMARK    2  A    between atoms: C_1  and  C_15
REMARK    3  A    between atoms: C_2  and  C_3
REMARK    4  A    between atoms: C_3  and  C_8
REMARK    5  A    between atoms: N_4  and  C_9
REMARK    6  A    between atoms: C_15  and  O_16
REMARK    7  A    between atoms: O_16  and  C_23
REMARK                            x       y       z     vdW  Elec       q    Type
REMARK                         _______ _______ _______ _____ _____    ______ ____
ROOT
ATOM      1  C   UNL     1      34.543 -21.787 -18.564  0.00  0.00    +0.048 C 
ENDROOT
BRANCH   1   2
ATOM      2  C   UNL     1      33.784 -22.058 -17.266  0.00  0.00    +0.012 C 
BRANCH   2   3
ATOM      3  C   UNL     1      34.744 -22.393 -16.121  0.00  0.00    +0.068 C 
BRANCH   3   8
ATOM      4  N   UNL     1      34.628 -23.213 -13.767  0.00  0.00    -0.219 N 
ATOM      5  N   UNL     1      33.706 -23.538 -12.851  0.00  0.00    -0.043 NA
ATOM      6  N   UNL     1      32.717 -22.892 -14.741  0.00  0.00    -0.113 NA
ATOM      7  N   UNL     1      32.539 -23.340 -13.451  0.00  0.00    -0.023 NA
ATOM      8  C   UNL     1      33.998 -22.830 -14.885  0.00  0.00    +0.161 A 
BRANCH   4   9
ATOM      9  C   UNL     1      36.062 -23.304 -13.465  0.00  0.00    +0.108 C 
ATOM     10  C   UNL     1      36.647 -24.681 -13.825  0.00  0.00    +0.024 C 
ATOM     11  C   UNL     1      36.377 -22.918 -12.010  0.00  0.00    +0.024 C 
ATOM     12  C   UNL     1      38.145 -24.742 -13.531  0.00  0.00    +0.002 C 
ATOM     13  C   UNL     1      37.877 -22.991 -11.729  0.00  0.00    +0.002 C 
ATOM     14  C   UNL     1      38.452 -24.360 -12.085  0.00  0.00    +0.000 C 
ENDBRANCH   4   9
ENDBRANCH   3   8
ENDBRANCH   2   3
ENDBRANCH   1   2
BRANCH   1  15
ATOM     15  C   UNL     1      34.218 -20.412 -19.128  0.00  0.00    +0.205 C 
BRANCH  15  16
ATOM     16  O   UNL     1      35.438 -19.732 -19.417  0.00  0.00    -0.475 OA
BRANCH  16  23
ATOM     17  O   UNL     1      34.705 -15.326 -25.617  0.00  0.00    -0.275 OA
ATOM     18  N   UNL     1      35.276 -15.949 -23.482  0.00  0.00    -0.284 N 
ATOM     19  C   UNL     1      34.865 -18.215 -22.703  0.00  0.00    -0.005 C 
ATOM     20  C   UNL     1      34.437 -18.596 -24.091  0.00  0.00    +0.037 C 
ATOM     21  C   UNL     1      35.309 -16.910 -22.455  0.00  0.00    +0.046 C 
ATOM     22  C   UNL     1      33.824 -17.406 -24.815  0.00  0.00    +0.090 C 
ATOM     23  C   UNL     1      35.411 -18.810 -20.419  0.00  0.00    +0.138 C 
ATOM     24  C   UNL     1      34.926 -19.166 -21.679  0.00  0.00    +0.034 C 
ATOM     25  C   UNL     1      34.662 -16.149 -24.703  0.00  0.00    +0.226 C 
ATOM     26  C   UNL     1      35.813 -16.558 -21.201  0.00  0.00    +0.017 C 
ATOM     27  C   UNL     1      35.856 -17.510 -20.182  0.00  0.00    +0.038 C 
ATOM     28  H   UNL     1      35.717 -15.083 -23.320  0.00  0.00    +0.155 HD
ENDBRANCH  16  23
ENDBRANCH  15  16
ENDBRANCH   1  15
TORSDOF 7
ENDMDL
MODEL 8
REMARK VINA RESULT:     -10.8      5.782     13.210
REMARK  Name = 2754
REMARK  7 active torsions:
REMARK  status: ('A' for Active; 'I' for Inactive)
REMARK    1  A    between atoms: C_1  and  C_2
REMARK    2  A    between atoms: C_1  and  C_15
REMARK    3  A    between atoms: C_2  and  C_3
REMARK    4  A    between atoms: C_3  and  C_8
REMARK    5  A    between atoms: N_4  and  C_9
REMARK    6  A    between atoms: C_15  and  O_16
REMARK    7  A    between atoms: O_16  and  C_23
REMARK                            x       y       z     vdW  Elec       q    Type
REMARK                         _______ _______ _______ _____ _____    ______ ____
ROOT
ATOM      1  C   UNL     1      34.421 -15.235 -24.374  0.00  0.00    +0.048 C 
ENDROOT
BRANCH   1   2
ATOM      2  C   UNL     1      33.717 -13.905 -24.110  0.00  0.00    +0.012 C 
BRANCH   2   3
ATOM      3  C   UNL     1      34.273 -13.221 -22.859  0.00  0.00    +0.068 C 
BRANCH   3   8
ATOM      4  N   UNL     1      33.504 -10.861 -22.604  0.00  0.00    -0.219 N 
ATOM      5  N   UNL     1      32.514 -10.174 -22.017  0.00  0.00    -0.043 NA
ATOM      6  N   UNL     1      32.282 -12.355 -21.615  0.00  0.00    -0.113 NA
ATOM      7  N   UNL     1      31.769 -11.092 -21.414  0.00  0.00    -0.023 NA
ATOM      8  C   UNL     1      33.331 -12.163 -22.342  0.00  0.00    +0.161 A 
BRANCH   4   9
ATOM      9  C   UNL     1      34.544 -10.176 -23.381  0.00  0.00    +0.108 C 
ATOM     10  C   UNL     1      34.649  -8.683 -23.026  0.00  0.00    +0.024 C 
ATOM     11  C   UNL     1      34.374 -10.386 -24.896  0.00  0.00    +0.024 C 
ATOM     12  C   UNL     1      35.758  -7.998 -23.824  0.00  0.00    +0.002 C 
ATOM     13  C   UNL     1      35.485  -9.691 -25.681  0.00  0.00    +0.002 C 
ATOM     14  C   UNL     1      35.584  -8.209 -25.326  0.00  0.00    +0.000 C 
ENDBRANCH   4   9
ENDBRANCH   3   8
ENDBRANCH   2   3
ENDBRANCH   1   2
BRANCH   1  15
ATOM     15  C   UNL     1      35.035 -15.807 -23.104  0.00  0.00    +0.205 C 
BRANCH  15  16
ATOM     16  O   UNL     1      35.134 -17.223 -23.236  0.00  0.00    -0.475 OA
BRANCH  16  23
ATOM     17  O   UNL     1      36.093 -21.666 -17.094  0.00  0.00    -0.275 OA
ATOM     18  N   UNL     1      36.584 -20.133 -18.732  0.00  0.00    -0.284 N 
ATOM     19  C   UNL     1      34.902 -19.488 -20.365  0.00  0.00    -0.005 C 
ATOM     20  C   UNL     1      33.885 -20.295 -19.611  0.00  0.00    +0.037 C 
ATOM     21  C   UNL     1      36.212 -19.403 -19.876  0.00  0.00    +0.046 C 
ATOM     22  C   UNL     1      34.541 -21.476 -18.911  0.00  0.00    +0.090 C 
ATOM     23  C   UNL     1      35.483 -17.926 -22.124  0.00  0.00    +0.138 C 
ATOM     24  C   UNL     1      34.542 -18.739 -21.490  0.00  0.00    +0.034 C 
ATOM     25  C   UNL     1      35.784 -21.089 -18.136  0.00  0.00    +0.226 C 
ATOM     26  C   UNL     1      37.149 -18.575 -20.497  0.00  0.00    +0.017 C 
ATOM     27  C   UNL     1      36.783 -17.843 -21.626  0.00  0.00    +0.038 C 
ATOM     28  H   UNL     1      37.465 -19.950 -18.332  0.00  0.00    +0.155 HD
ENDBRANCH  16  23
ENDBRANCH  15  16
ENDBRANCH   1  15
TORSDOF 7
ENDMDL
MODEL 9
REMARK VINA RESULT:     -10.7      8.137     14.671
REMARK  Name = 2754
REMARK  7 active torsions:
REMARK  status: ('A' for Active; 'I' for Inactive)
REMARK    1  A    between atoms: C_1  and  C_2
REMARK    2  A    between atoms: C_1  and  C_15
REMARK    3  A    between atoms: C_2  and  C_3
REMARK    4  A    between atoms: C_3  and  C_8
REMARK    5  A    between atoms: N_4  and  C_9
REMARK    6  A    between atoms: C_15  and  O_16
REMARK    7  A    between atoms: O_16  and  C_23
REMARK                            x       y       z     vdW  Elec       q    Type
REMARK                         _______ _______ _______ _____ _____    ______ ____
ROOT
ATOM      1  C   UNL     1      33.941 -10.041 -24.343  0.00  0.00    +0.048 C 
ENDROOT
BRANCH   1   2
ATOM      2  C   UNL     1      34.832  -8.800 -24.309  0.00  0.00    +0.012 C 
BRANCH   2   3
ATOM      3  C   UNL     1      34.711  -8.067 -22.970  0.00  0.00    +0.068 C 
BRANCH   3   8
ATOM      4  N   UNL     1      32.458  -7.688 -21.966  0.00  0.00    -0.219 N 
ATOM      5  N   UNL     1      31.413  -6.860 -22.103  0.00  0.00    -0.043 NA
ATOM      6  N   UNL     1      33.012  -6.327 -23.561  0.00  0.00    -0.113 NA
ATOM      7  N   UNL     1      31.757  -6.029 -23.078  0.00  0.00    -0.023 NA
ATOM      8  C   UNL     1      33.396  -7.338 -22.855  0.00  0.00    +0.161 A 
BRANCH   4   9
ATOM      9  C   UNL     1      32.448  -8.762 -20.965  0.00  0.00    +0.108 C 
ATOM     10  C   UNL     1      31.420  -9.858 -21.294  0.00  0.00    +0.024 C 
ATOM     11  C   UNL     1      32.264  -8.225 -19.535  0.00  0.00    +0.024 C 
ATOM     12  C   UNL     1      31.450 -10.978 -20.256  0.00  0.00    +0.002 C 
ATOM     13  C   UNL     1      32.289  -9.356 -18.510  0.00  0.00    +0.002 C 
ATOM     14  C   UNL     1      31.265 -10.440 -18.840  0.00  0.00    +0.000 C 
ENDBRANCH   4   9
ENDBRANCH   3   8
ENDBRANCH   2   3
ENDBRANCH   1   2
BRANCH   1  15
ATOM     15  C   UNL     1      34.276 -11.004 -23.214  0.00  0.00    +0.205 C 
BRANCH  15  16
ATOM     16  O   UNL     1      34.103 -12.340 -23.681  0.00  0.00    -0.475 OA
BRANCH  16  23
ATOM     17  O   UNL     1      36.162 -18.537 -19.712  0.00  0.00    -0.275 OA
ATOM     18  N   UNL     1      35.403 -16.410 -20.131  0.00  0.00    -0.284 N 
ATOM     19  C   UNL     1      35.138 -15.619 -22.415  0.00  0.00    -0.005 C 
ATOM     20  C   UNL     1      35.462 -16.998 -22.911  0.00  0.00    +0.037 C 
ATOM     21  C   UNL     1      35.081 -15.382 -21.035  0.00  0.00    +0.046 C 
ATOM     22  C   UNL     1      36.401 -17.714 -21.951  0.00  0.00    +0.090 C 
ATOM     23  C   UNL     1      34.409 -13.344 -22.812  0.00  0.00    +0.138 C 
ATOM     24  C   UNL     1      34.793 -14.594 -23.301  0.00  0.00    +0.034 C 
ATOM     25  C   UNL     1      35.954 -17.620 -20.506  0.00  0.00    +0.226 C 
ATOM     26  C   UNL     1      34.678 -14.138 -20.545  0.00  0.00    +0.017 C 
ATOM     27  C   UNL     1      34.349 -13.117 -21.438  0.00  0.00    +0.038 C 
ATOM     28  H   UNL     1      35.224 -16.259 -19.174  0.00  0.00    +0.155 HD
ENDBRANCH  16  23
ENDBRANCH  15  16
ENDBRANCH   1  15
TORSDOF 7
ENDMDL
