MODEL 1
REMARK VINA RESULT:     -11.6      0.000      0.000
REMARK  Name = 10200651
REMARK  5 active torsions:
REMARK  status: ('A' for Active; 'I' for Inactive)
REMARK    1  A    between atoms: C_1  and  C_7
REMARK    2  A    between atoms: C_4  and  C_22
REMARK    3  A    between atoms: C_10  and  C_17
REMARK    4  A    between atoms: N_21  and  C_24
REMARK    5  A    between atoms: C_27  and  C_31
REMARK                            x       y       z     vdW  Elec       q    Type
REMARK                         _______ _______ _______ _____ _____    ______ ____
ROOT
ATOM      1  C   UNL     1      35.336 -16.952 -21.488  0.00  0.00    -0.000 C 
ATOM      2  C   UNL     1      35.197 -15.757 -20.783  0.00  0.00    +0.000 C 
ATOM      3  C   UNL     1      35.115 -16.981 -22.865  0.00  0.00    +0.000 C 
ATOM      4  C   UNL     1      34.625 -14.644 -22.817  0.00  0.00    +0.054 C 
ATOM      5  C   UNL     1      34.838 -14.589 -21.455  0.00  0.00    +0.005 C 
ATOM      6  C   UNL     1      34.755 -15.813 -23.537  0.00  0.00    +0.005 C 
ENDROOT
BRANCH   1   7
ATOM      7  C   UNL     1      35.709 -18.164 -20.791  0.00  0.00    -0.004 C 
ATOM      8  C   UNL     1      37.023 -18.636 -20.815  0.00  0.00    -0.022 C 
ATOM      9  C   UNL     1      34.732 -18.868 -20.083  0.00  0.00    +0.004 C 
ATOM     10  C   UNL     1      35.067 -20.039 -19.404  0.00  0.00    +0.055 C 
ATOM     11  C   UNL     1      37.357 -19.808 -20.136  0.00  0.00    -0.004 C 
ATOM     12  C   UNL     1      36.380 -20.508 -19.430  0.00  0.00    +0.004 C 
ATOM     13  C   UNL     1      38.097 -17.912 -21.560  0.00  0.00    +0.031 C 
BRANCH  10  17
ATOM     14  O   UNL     1      34.516 -21.609 -17.716  0.00  0.00    -0.420 OA
ATOM     15  N   UNL     1      32.754 -20.744 -18.789  0.00  0.00    -0.107 NA
ATOM     16  N   UNL     1      32.282 -21.635 -17.843  0.00  0.00    -0.111 NA
ATOM     17  C   UNL     1      34.056 -20.765 -18.675  0.00  0.00    +0.250 A 
ATOM     18  C   UNL     1      33.345 -22.116 -17.242  0.00  0.00    +0.227 A 
ATOM     19  C   UNL     1      33.441 -23.099 -16.157  0.00  0.00    +0.097 C 
ENDBRANCH  10  17
ENDBRANCH   1   7
BRANCH   4  22
ATOM     20  O   UNL     1      33.656 -13.514 -24.604  0.00  0.00    -0.270 OA
ATOM     21  N   UNL     1      34.575 -12.204 -22.882  0.00  0.00    -0.280 N 
ATOM     22  C   UNL     1      34.240 -13.399 -23.532  0.00  0.00    +0.249 C 
ATOM     23  H   UNL     1      35.047 -12.298 -22.023  0.00  0.00    +0.155 HD
BRANCH  21  24
ATOM     24  C   UNL     1      34.319 -10.897 -23.300  0.00  0.00    +0.051 C 
ATOM     25  C   UNL     1      33.380 -10.120 -22.624  0.00  0.00    +0.025 C 
ATOM     26  C   UNL     1      35.004 -10.369 -24.394  0.00  0.00    +0.015 C 
ATOM     27  C   UNL     1      33.124  -8.813 -23.042  0.00  0.00    +0.070 C 
ATOM     28  C   UNL     1      34.750  -9.063 -24.813  0.00  0.00    +0.002 C 
ATOM     29  C   UNL     1      33.809  -8.286 -24.137  0.00  0.00    +0.010 C 
BRANCH  27  31
ATOM     30  N   UNL     1      31.379  -7.368 -21.788  0.00  0.00    -0.191 NA
ATOM     31  C   UNL     1      32.161  -8.016 -22.350  0.00  0.00    +0.100 C 
ENDBRANCH  27  31
ENDBRANCH  21  24
ENDBRANCH   4  22
TORSDOF 5
ENDMDL
MODEL 2
REMARK VINA RESULT:     -11.4      3.892      7.727
REMARK  Name = 10200651
REMARK  5 active torsions:
REMARK  status: ('A' for Active; 'I' for Inactive)
REMARK    1  A    between atoms: C_1  and  C_7
REMARK    2  A    between atoms: C_4  and  C_22
REMARK    3  A    between atoms: C_10  and  C_17
REMARK    4  A    between atoms: N_21  and  C_24
REMARK    5  A    between atoms: C_27  and  C_31
REMARK                            x       y       z     vdW  Elec       q    Type
REMARK                         _______ _______ _______ _____ _____    ______ ____
ROOT
ATOM      1  C   UNL     1      34.706 -22.032 -16.675  0.00  0.00    -0.000 C 
ATOM      2  C   UNL     1      35.723 -21.353 -17.346  0.00  0.00    +0.000 C 
ATOM      3  C   UNL     1      33.400 -21.994 -17.163  0.00  0.00    +0.000 C 
ATOM      4  C   UNL     1      34.134 -20.615 -18.969  0.00  0.00    +0.054 C 
ATOM      5  C   UNL     1      35.434 -20.637 -18.507  0.00  0.00    +0.005 C 
ATOM      6  C   UNL     1      33.111 -21.277 -18.324  0.00  0.00    +0.005 C 
ENDROOT
BRANCH   1   7
ATOM      7  C   UNL     1      35.006 -22.775 -15.470  0.00  0.00    -0.004 C 
ATOM      8  C   UNL     1      33.987 -23.270 -14.654  0.00  0.00    -0.022 C 
ATOM      9  C   UNL     1      36.341 -22.997 -15.124  0.00  0.00    +0.004 C 
ATOM     10  C   UNL     1      36.656 -23.709 -13.967  0.00  0.00    +0.055 C 
ATOM     11  C   UNL     1      34.302 -23.983 -13.497  0.00  0.00    -0.004 C 
ATOM     12  C   UNL     1      35.635 -24.203 -13.154  0.00  0.00    +0.004 C 
ATOM     13  C   UNL     1      32.547 -23.054 -14.988  0.00  0.00    +0.031 C 
BRANCH  10  17
ATOM     14  O   UNL     1      38.670 -24.910 -14.315  0.00  0.00    -0.420 OA
ATOM     15  N   UNL     1      38.781 -23.354 -12.712  0.00  0.00    -0.107 NA
ATOM     16  N   UNL     1      40.018 -23.966 -12.800  0.00  0.00    -0.111 NA
ATOM     17  C   UNL     1      38.035 -23.937 -13.612  0.00  0.00    +0.250 A 
ATOM     18  C   UNL     1      39.906 -24.867 -13.747  0.00  0.00    +0.227 A 
ATOM     19  C   UNL     1      40.905 -25.810 -14.264  0.00  0.00    +0.097 C 
ENDBRANCH  10  17
ENDBRANCH   1   7
BRANCH   4  22
ATOM     20  O   UNL     1      32.682 -19.907 -20.642  0.00  0.00    -0.270 OA
ATOM     21  N   UNL     1      34.893 -19.115 -20.740  0.00  0.00    -0.280 N 
ATOM     22  C   UNL     1      33.826 -19.851 -20.206  0.00  0.00    +0.249 C 
ATOM     23  H   UNL     1      35.750 -19.186 -20.258  0.00  0.00    +0.155 HD
BRANCH  21  24
ATOM     24  C   UNL     1      34.892 -18.293 -21.868  0.00  0.00    +0.051 C 
ATOM     25  C   UNL     1      34.986 -16.910 -21.722  0.00  0.00    +0.025 C 
ATOM     26  C   UNL     1      34.796 -18.856 -23.140  0.00  0.00    +0.015 C 
ATOM     27  C   UNL     1      34.984 -16.088 -22.850  0.00  0.00    +0.070 C 
ATOM     28  C   UNL     1      34.794 -18.035 -24.268  0.00  0.00    +0.002 C 
ATOM     29  C   UNL     1      34.888 -16.651 -24.122  0.00  0.00    +0.010 C 
BRANCH  27  31
ATOM     30  N   UNL     1      35.158 -13.517 -22.581  0.00  0.00    -0.191 NA
ATOM     31  C   UNL     1      35.080 -14.670 -22.702  0.00  0.00    +0.100 C 
ENDBRANCH  27  31
ENDBRANCH  21  24
ENDBRANCH   4  22
TORSDOF 5
ENDMDL
MODEL 3
REMARK VINA RESULT:     -11.3      2.508     10.909
REMARK  Name = 10200651
REMARK  5 active torsions:
REMARK  status: ('A' for Active; 'I' for Inactive)
REMARK    1  A    between atoms: C_1  and  C_7
REMARK    2  A    between atoms: C_4  and  C_22
REMARK    3  A    between atoms: C_10  and  C_17
REMARK    4  A    between atoms: N_21  and  C_24
REMARK    5  A    between atoms: C_27  and  C_31
REMARK                            x       y       z     vdW  Elec       q    Type
REMARK                         _______ _______ _______ _____ _____    ______ ____
ROOT
ATOM      1  C   UNL     1      35.034 -18.476 -21.323  0.00  0.00    -0.000 C 
ATOM      2  C   UNL     1      33.902 -19.122 -20.825  0.00  0.00    +0.000 C 
ATOM      3  C   UNL     1      36.292 -18.767 -20.799  0.00  0.00    +0.000 C 
ATOM      4  C   UNL     1      35.287 -20.331 -19.300  0.00  0.00    +0.054 C 
ATOM      5  C   UNL     1      34.031 -20.061 -19.801  0.00  0.00    +0.005 C 
ATOM      6  C   UNL     1      36.421 -19.706 -19.776  0.00  0.00    +0.005 C 
ENDROOT
BRANCH   1   7
ATOM      7  C   UNL     1      34.900 -17.502 -22.385  0.00  0.00    -0.004 C 
ATOM      8  C   UNL     1      34.873 -17.893 -23.725  0.00  0.00    -0.022 C 
ATOM      9  C   UNL     1      34.797 -16.149 -22.055  0.00  0.00    +0.004 C 
ATOM     10  C   UNL     1      34.669 -15.190 -23.060  0.00  0.00    +0.055 C 
ATOM     11  C   UNL     1      34.745 -16.935 -24.730  0.00  0.00    -0.004 C 
ATOM     12  C   UNL     1      34.642 -15.584 -24.399  0.00  0.00    +0.004 C 
ATOM     13  C   UNL     1      34.980 -19.330 -24.119  0.00  0.00    +0.031 C 
BRANCH  10  17
ATOM     14  O   UNL     1      34.325 -12.950 -23.755  0.00  0.00    -0.420 OA
ATOM     15  N   UNL     1      34.664 -13.200 -21.558  0.00  0.00    -0.107 NA
ATOM     16  N   UNL     1      34.482 -11.853 -21.811  0.00  0.00    -0.111 NA
ATOM     17  C   UNL     1      34.564 -13.794 -22.718  0.00  0.00    +0.250 A 
ATOM     18  C   UNL     1      34.288 -11.754 -23.106  0.00  0.00    +0.227 A 
ATOM     19  C   UNL     1      34.042 -10.563 -23.927  0.00  0.00    +0.097 C 
ENDBRANCH  10  17
ENDBRANCH   1   7
BRANCH   4  22
ATOM     20  O   UNL     1      34.807 -22.385 -18.320  0.00  0.00    -0.270 OA
ATOM     21  N   UNL     1      36.277 -20.964 -17.160  0.00  0.00    -0.280 N 
ATOM     22  C   UNL     1      35.424 -21.331 -18.209  0.00  0.00    +0.249 C 
ATOM     23  H   UNL     1      36.693 -20.074 -17.233  0.00  0.00    +0.155 HD
BRANCH  21  24
ATOM     24  C   UNL     1      36.613 -21.705 -16.026  0.00  0.00    +0.051 C 
ATOM     25  C   UNL     1      35.618 -22.110 -15.137  0.00  0.00    +0.025 C 
ATOM     26  C   UNL     1      37.944 -22.040 -15.781  0.00  0.00    +0.015 C 
ATOM     27  C   UNL     1      35.954 -22.850 -14.003  0.00  0.00    +0.070 C 
ATOM     28  C   UNL     1      38.282 -22.779 -14.648  0.00  0.00    +0.002 C 
ATOM     29  C   UNL     1      37.286 -23.184 -13.759  0.00  0.00    +0.010 C 
BRANCH  27  31
ATOM     30  N   UNL     1      34.105 -23.603 -12.352  0.00  0.00    -0.191 NA
ATOM     31  C   UNL     1      34.935 -23.265 -13.092  0.00  0.00    +0.100 C 
ENDBRANCH  27  31
ENDBRANCH  21  24
ENDBRANCH   4  22
TORSDOF 5
ENDMDL
MODEL 4
REMARK VINA RESULT:     -11.2      3.736      6.694
REMARK  Name = 10200651
REMARK  5 active torsions:
REMARK  status: ('A' for Active; 'I' for Inactive)
REMARK    1  A    between atoms: C_1  and  C_7
REMARK    2  A    between atoms: C_4  and  C_22
REMARK    3  A    between atoms: C_10  and  C_17
REMARK    4  A    between atoms: N_21  and  C_24
REMARK    5  A    between atoms: C_27  and  C_31
REMARK                            x       y       z     vdW  Elec       q    Type
REMARK                         _______ _______ _______ _____ _____    ______ ____
ROOT
ATOM      1  C   UNL     1      35.656 -21.194 -17.621  0.00  0.00    -0.000 C 
ATOM      2  C   UNL     1      36.895 -20.608 -17.879  0.00  0.00    +0.000 C 
ATOM      3  C   UNL     1      34.567 -20.920 -18.448  0.00  0.00    +0.000 C 
ATOM      4  C   UNL     1      35.953 -19.491 -19.768  0.00  0.00    +0.054 C 
ATOM      5  C   UNL     1      37.045 -19.747 -18.965  0.00  0.00    +0.005 C 
ATOM      6  C   UNL     1      34.718 -20.058 -19.534  0.00  0.00    +0.005 C 
ENDROOT
BRANCH   1   7
ATOM      7  C   UNL     1      35.500 -22.088 -16.493  0.00  0.00    -0.004 C 
ATOM      8  C   UNL     1      34.252 -22.619 -16.159  0.00  0.00    -0.022 C 
ATOM      9  C   UNL     1      36.622 -22.420 -15.731  0.00  0.00    +0.004 C 
ATOM     10  C   UNL     1      36.497 -23.279 -14.639  0.00  0.00    +0.055 C 
ATOM     11  C   UNL     1      34.128 -23.477 -15.067  0.00  0.00    -0.004 C 
ATOM     12  C   UNL     1      35.249 -23.808 -14.307  0.00  0.00    +0.004 C 
ATOM     13  C   UNL     1      33.028 -22.287 -16.949  0.00  0.00    +0.031 C 
BRANCH  10  17
ATOM     14  O   UNL     1      38.543 -24.461 -14.447  0.00  0.00    -0.420 OA
ATOM     15  N   UNL     1      37.998 -23.251 -12.646  0.00  0.00    -0.107 NA
ATOM     16  N   UNL     1      39.202 -23.878 -12.390  0.00  0.00    -0.111 NA
ATOM     17  C   UNL     1      37.657 -23.620 -13.853  0.00  0.00    +0.250 A 
ATOM     18  C   UNL     1      39.481 -24.574 -13.467  0.00  0.00    +0.227 A 
ATOM     19  C   UNL     1      40.636 -25.433 -13.753  0.00  0.00    +0.097 C 
ENDBRANCH  10  17
ENDBRANCH   1   7
BRANCH   4  22
ATOM     20  O   UNL     1      37.250 -18.364 -21.335  0.00  0.00    -0.270 OA
ATOM     21  N   UNL     1      34.923 -18.050 -21.448  0.00  0.00    -0.280 N 
ATOM     22  C   UNL     1      36.113 -18.573 -20.925  0.00  0.00    +0.249 C 
ATOM     23  H   UNL     1      34.094 -18.325 -20.992  0.00  0.00    +0.155 HD
BRANCH  21  24
ATOM     24  C   UNL     1      34.766 -17.191 -22.537  0.00  0.00    +0.051 C 
ATOM     25  C   UNL     1      34.741 -15.811 -22.339  0.00  0.00    +0.025 C 
ATOM     26  C   UNL     1      34.633 -17.713 -23.823  0.00  0.00    +0.015 C 
ATOM     27  C   UNL     1      34.584 -14.952 -23.427  0.00  0.00    +0.070 C 
ATOM     28  C   UNL     1      34.476 -16.856 -24.912  0.00  0.00    +0.002 C 
ATOM     29  C   UNL     1      34.451 -15.476 -24.713  0.00  0.00    +0.010 C 
BRANCH  27  31
ATOM     30  N   UNL     1      34.538 -12.389 -23.059  0.00  0.00    -0.191 NA
ATOM     31  C   UNL     1      34.559 -13.539 -23.225  0.00  0.00    +0.100 C 
ENDBRANCH  27  31
ENDBRANCH  21  24
ENDBRANCH   4  22
TORSDOF 5
ENDMDL
MODEL 5
REMARK VINA RESULT:     -11.2      3.107     11.166
REMARK  Name = 10200651
REMARK  5 active torsions:
REMARK  status: ('A' for Active; 'I' for Inactive)
REMARK    1  A    between atoms: C_1  and  C_7
REMARK    2  A    between atoms: C_4  and  C_22
REMARK    3  A    between atoms: C_10  and  C_17
REMARK    4  A    between atoms: N_21  and  C_24
REMARK    5  A    between atoms: C_27  and  C_31
REMARK                            x       y       z     vdW  Elec       q    Type
REMARK                         _______ _______ _______ _____ _____    ______ ____
ROOT
ATOM      1  C   UNL     1      35.118 -18.637 -21.052  0.00  0.00    -0.000 C 
ATOM      2  C   UNL     1      33.986 -19.287 -20.558  0.00  0.00    +0.000 C 
ATOM      3  C   UNL     1      36.372 -18.907 -20.506  0.00  0.00    +0.000 C 
ATOM      4  C   UNL     1      35.362 -20.458 -18.996  0.00  0.00    +0.054 C 
ATOM      5  C   UNL     1      34.110 -20.208 -19.519  0.00  0.00    +0.005 C 
ATOM      6  C   UNL     1      36.495 -19.829 -19.466  0.00  0.00    +0.005 C 
ENDROOT
BRANCH   1   7
ATOM      7  C   UNL     1      34.990 -17.681 -22.130  0.00  0.00    -0.004 C 
ATOM      8  C   UNL     1      34.985 -18.093 -23.464  0.00  0.00    -0.022 C 
ATOM      9  C   UNL     1      34.869 -16.324 -21.823  0.00  0.00    +0.004 C 
ATOM     10  C   UNL     1      34.746 -15.383 -22.846  0.00  0.00    +0.055 C 
ATOM     11  C   UNL     1      34.861 -17.152 -24.486  0.00  0.00    -0.004 C 
ATOM     12  C   UNL     1      34.741 -15.798 -24.178  0.00  0.00    +0.004 C 
ATOM     13  C   UNL     1      35.112 -19.535 -23.834  0.00  0.00    +0.031 C 
BRANCH  10  17
ATOM     14  O   UNL     1      34.383 -13.158 -23.579  0.00  0.00    -0.420 OA
ATOM     15  N   UNL     1      34.706 -13.368 -21.376  0.00  0.00    -0.107 NA
ATOM     16  N   UNL     1      34.510 -12.028 -21.652  0.00  0.00    -0.111 NA
ATOM     17  C   UNL     1      34.622 -13.982 -22.526  0.00  0.00    +0.250 A 
ATOM     18  C   UNL     1      34.327 -11.952 -22.950  0.00  0.00    +0.227 A 
ATOM     19  C   UNL     1      34.076 -10.777 -23.792  0.00  0.00    +0.097 C 
ENDBRANCH  10  17
ENDBRANCH   1   7
BRANCH   4  22
ATOM     20  O   UNL     1      34.785 -22.440 -17.924  0.00  0.00    -0.270 OA
ATOM     21  N   UNL     1      36.446 -21.120 -16.911  0.00  0.00    -0.280 N 
ATOM     22  C   UNL     1      35.493 -21.439 -17.888  0.00  0.00    +0.249 C 
ATOM     23  H   UNL     1      36.927 -20.269 -17.039  0.00  0.00    +0.155 HD
BRANCH  21  24
ATOM     24  C   UNL     1      36.799 -21.858 -15.781  0.00  0.00    +0.051 C 
ATOM     25  C   UNL     1      38.056 -22.457 -15.704  0.00  0.00    +0.025 C 
ATOM     26  C   UNL     1      35.895 -21.996 -14.728  0.00  0.00    +0.015 C 
ATOM     27  C   UNL     1      38.409 -23.196 -14.574  0.00  0.00    +0.070 C 
ATOM     28  C   UNL     1      36.247 -22.734 -13.598  0.00  0.00    +0.002 C 
ATOM     29  C   UNL     1      37.504 -23.334 -13.522  0.00  0.00    +0.010 C 
BRANCH  27  31
ATOM     30  N   UNL     1      40.743 -24.310 -14.432  0.00  0.00    -0.191 NA
ATOM     31  C   UNL     1      39.696 -23.810 -14.496  0.00  0.00    +0.100 C 
ENDBRANCH  27  31
ENDBRANCH  21  24
ENDBRANCH   4  22
TORSDOF 5
ENDMDL
MODEL 6
REMARK VINA RESULT:     -11.2      2.288      3.977
REMARK  Name = 10200651
REMARK  5 active torsions:
REMARK  status: ('A' for Active; 'I' for Inactive)
REMARK    1  A    between atoms: C_1  and  C_7
REMARK    2  A    between atoms: C_4  and  C_22
REMARK    3  A    between atoms: C_10  and  C_17
REMARK    4  A    between atoms: N_21  and  C_24
REMARK    5  A    between atoms: C_27  and  C_31
REMARK                            x       y       z     vdW  Elec       q    Type
REMARK                         _______ _______ _______ _____ _____    ______ ____
ROOT
ATOM      1  C   UNL     1      34.407 -14.530 -23.071  0.00  0.00    -0.000 C 
ATOM      2  C   UNL     1      33.945 -13.852 -24.199  0.00  0.00    +0.000 C 
ATOM      3  C   UNL     1      34.699 -13.826 -21.904  0.00  0.00    +0.000 C 
ATOM      4  C   UNL     1      34.071 -11.795 -22.992  0.00  0.00    +0.054 C 
ATOM      5  C   UNL     1      33.775 -12.468 -24.159  0.00  0.00    +0.005 C 
ATOM      6  C   UNL     1      34.529 -12.442 -21.864  0.00  0.00    +0.005 C 
ENDROOT
BRANCH   1   7
ATOM      7  C   UNL     1      34.583 -15.966 -23.112  0.00  0.00    -0.004 C 
ATOM      8  C   UNL     1      34.258 -16.701 -24.254  0.00  0.00    -0.022 C 
ATOM      9  C   UNL     1      35.088 -16.620 -21.987  0.00  0.00    +0.004 C 
ATOM     10  C   UNL     1      35.266 -18.004 -22.002  0.00  0.00    +0.055 C 
ATOM     11  C   UNL     1      34.436 -18.084 -24.269  0.00  0.00    -0.004 C 
ATOM     12  C   UNL     1      34.941 -18.735 -23.144  0.00  0.00    +0.004 C 
ATOM     13  C   UNL     1      33.715 -16.038 -25.478  0.00  0.00    +0.031 C 
BRANCH  10  17
ATOM     14  O   UNL     1      35.075 -19.753 -20.413  0.00  0.00    -0.420 OA
ATOM     15  N   UNL     1      36.845 -18.417 -20.115  0.00  0.00    -0.107 NA
ATOM     16  N   UNL     1      36.865 -19.380 -19.123  0.00  0.00    -0.111 NA
ATOM     17  C   UNL     1      35.787 -18.677 -20.838  0.00  0.00    +0.250 A 
ATOM     18  C   UNL     1      35.813 -20.136 -19.336  0.00  0.00    +0.227 A 
ATOM     19  C   UNL     1      35.338 -21.308 -18.592  0.00  0.00    +0.097 C 
ENDBRANCH  10  17
ENDBRANCH   1   7
BRANCH   4  22
ATOM     20  O   UNL     1      34.614  -9.636 -23.666  0.00  0.00    -0.270 OA
ATOM     21  N   UNL     1      32.878  -9.862 -22.096  0.00  0.00    -0.280 N 
ATOM     22  C   UNL     1      33.891 -10.320 -22.950  0.00  0.00    +0.249 C 
ATOM     23  H   UNL     1      32.393 -10.555 -21.591  0.00  0.00    +0.155 HD
BRANCH  21  24
ATOM     24  C   UNL     1      32.471  -8.546 -21.875  0.00  0.00    +0.051 C 
ATOM     25  C   UNL     1      32.710  -7.940 -20.642  0.00  0.00    +0.025 C 
ATOM     26  C   UNL     1      31.824  -7.837 -22.887  0.00  0.00    +0.015 C 
ATOM     27  C   UNL     1      32.303  -6.624 -20.421  0.00  0.00    +0.070 C 
ATOM     28  C   UNL     1      31.416  -6.522 -22.666  0.00  0.00    +0.002 C 
ATOM     29  C   UNL     1      31.655  -5.916 -21.433  0.00  0.00    +0.010 C 
BRANCH  27  31
ATOM     30  N   UNL     1      32.747  -5.497 -18.131  0.00  0.00    -0.191 NA
ATOM     31  C   UNL     1      32.548  -6.002 -19.158  0.00  0.00    +0.100 C 
ENDBRANCH  27  31
ENDBRANCH  21  24
ENDBRANCH   4  22
TORSDOF 5
ENDMDL
MODEL 7
REMARK VINA RESULT:     -10.8      3.054      5.357
REMARK  Name = 10200651
REMARK  5 active torsions:
REMARK  status: ('A' for Active; 'I' for Inactive)
REMARK    1  A    between atoms: C_1  and  C_7
REMARK    2  A    between atoms: C_4  and  C_22
REMARK    3  A    between atoms: C_10  and  C_17
REMARK    4  A    between atoms: N_21  and  C_24
REMARK    5  A    between atoms: C_27  and  C_31
REMARK                            x       y       z     vdW  Elec       q    Type
REMARK                         _______ _______ _______ _____ _____    ______ ____
ROOT
ATOM      1  C   UNL     1      33.641 -13.153 -22.298  0.00  0.00    -0.000 C 
ATOM      2  C   UNL     1      33.942 -11.928 -22.893  0.00  0.00    +0.000 C 
ATOM      3  C   UNL     1      32.846 -13.198 -21.154  0.00  0.00    +0.000 C 
ATOM      4  C   UNL     1      32.662 -10.818 -21.209  0.00  0.00    +0.054 C 
ATOM      5  C   UNL     1      33.447 -10.746 -22.342  0.00  0.00    +0.005 C 
ATOM      6  C   UNL     1      32.351 -12.016 -20.603  0.00  0.00    +0.005 C 
ENDROOT
BRANCH   1   7
ATOM      7  C   UNL     1      34.155 -14.379 -22.870  0.00  0.00    -0.004 C 
ATOM      8  C   UNL     1      34.066 -14.630 -24.241  0.00  0.00    -0.022 C 
ATOM      9  C   UNL     1      34.750 -15.323 -22.029  0.00  0.00    +0.004 C 
ATOM     10  C   UNL     1      35.251 -16.513 -22.556  0.00  0.00    +0.055 C 
ATOM     11  C   UNL     1      34.568 -15.820 -24.768  0.00  0.00    -0.004 C 
ATOM     12  C   UNL     1      35.161 -16.761 -23.927  0.00  0.00    +0.004 C 
ATOM     13  C   UNL     1      33.437 -13.646 -25.173  0.00  0.00    +0.031 C 
BRANCH  10  17
ATOM     14  O   UNL     1      35.010 -18.334 -21.058  0.00  0.00    -0.420 OA
ATOM     15  N   UNL     1      37.123 -17.686 -21.399  0.00  0.00    -0.107 NA
ATOM     16  N   UNL     1      37.139 -18.746 -20.511  0.00  0.00    -0.111 NA
ATOM     17  C   UNL     1      35.864 -17.486 -21.686  0.00  0.00    +0.250 A 
ATOM     18  C   UNL     1      35.885 -19.090 -20.340  0.00  0.00    +0.227 A 
ATOM     19  C   UNL     1      35.311 -20.152 -19.505  0.00  0.00    +0.097 C 
ENDBRANCH  10  17
ENDBRANCH   1   7
BRANCH   4  22
ATOM     20  O   UNL     1      31.155  -9.636 -19.889  0.00  0.00    -0.270 OA
ATOM     21  N   UNL     1      32.843  -8.396 -20.958  0.00  0.00    -0.280 N 
ATOM     22  C   UNL     1      32.135  -9.558 -20.622  0.00  0.00    +0.249 C 
ATOM     23  H   UNL     1      33.610  -8.518 -21.563  0.00  0.00    +0.155 HD
BRANCH  21  24
ATOM     24  C   UNL     1      32.596  -7.088 -20.538  0.00  0.00    +0.051 C 
ATOM     25  C   UNL     1      32.301  -6.099 -21.476  0.00  0.00    +0.025 C 
ATOM     26  C   UNL     1      32.644  -6.770 -19.181  0.00  0.00    +0.015 C 
ATOM     27  C   UNL     1      32.055  -4.791 -21.056  0.00  0.00    +0.070 C 
ATOM     28  C   UNL     1      32.398  -5.464 -18.761  0.00  0.00    +0.002 C 
ATOM     29  C   UNL     1      32.104  -4.474 -19.699  0.00  0.00    +0.010 C 
BRANCH  27  31
ATOM     30  N   UNL     1      31.507  -2.953 -22.797  0.00  0.00    -0.191 NA
ATOM     31  C   UNL     1      31.753  -3.777 -22.016  0.00  0.00    +0.100 C 
ENDBRANCH  27  31
ENDBRANCH  21  24
ENDBRANCH   4  22
TORSDOF 5
ENDMDL
MODEL 8
REMARK VINA RESULT:     -10.8      3.435     10.772
REMARK  Name = 10200651
REMARK  5 active torsions:
REMARK  status: ('A' for Active; 'I' for Inactive)
REMARK    1  A    between atoms: C_1  and  C_7
REMARK    2  A    between atoms: C_4  and  C_22
REMARK    3  A    between atoms: C_10  and  C_17
REMARK    4  A    between atoms: N_21  and  C_24
REMARK    5  A    between atoms: C_27  and  C_31
REMARK                            x       y       z     vdW  Elec       q    Type
REMARK                         _______ _______ _______ _____ _____    ______ ____
ROOT
ATOM      1  C   UNL     1      34.759 -19.770 -19.868  0.00  0.00    -0.000 C 
ATOM      2  C   UNL     1      33.367 -19.713 -19.799  0.00  0.00    +0.000 C 
ATOM      3  C   UNL     1      35.465 -20.639 -19.037  0.00  0.00    +0.000 C 
ATOM      4  C   UNL     1      33.402 -21.378 -18.086  0.00  0.00    +0.054 C 
ATOM      5  C   UNL     1      32.680 -20.527 -18.898  0.00  0.00    +0.005 C 
ATOM      6  C   UNL     1      34.778 -21.452 -18.135  0.00  0.00    +0.005 C 
ENDROOT
BRANCH   1   7
ATOM      7  C   UNL     1      35.471 -18.926 -20.803  0.00  0.00    -0.004 C 
ATOM      8  C   UNL     1      36.848 -18.725 -20.691  0.00  0.00    -0.022 C 
ATOM      9  C   UNL     1      34.761 -18.305 -21.833  0.00  0.00    +0.004 C 
ATOM     10  C   UNL     1      35.425 -17.486 -22.746  0.00  0.00    +0.055 C 
ATOM     11  C   UNL     1      37.512 -17.906 -21.604  0.00  0.00    -0.004 C 
ATOM     12  C   UNL     1      36.801 -17.287 -22.632  0.00  0.00    +0.004 C 
ATOM     13  C   UNL     1      37.644 -19.371 -19.603  0.00  0.00    +0.031 C 
BRANCH  10  17
ATOM     14  O   UNL     1      34.583 -15.495 -23.719  0.00  0.00    -0.420 OA
ATOM     15  N   UNL     1      34.100 -17.360 -24.856  0.00  0.00    -0.107 NA
ATOM     16  N   UNL     1      33.549 -16.290 -25.536  0.00  0.00    -0.111 NA
ATOM     17  C   UNL     1      34.690 -16.846 -23.809  0.00  0.00    +0.250 A 
ATOM     18  C   UNL     1      33.855 -15.223 -24.836  0.00  0.00    +0.227 A 
ATOM     19  C   UNL     1      33.529 -13.814 -25.087  0.00  0.00    +0.097 C 
ENDBRANCH  10  17
ENDBRANCH   1   7
BRANCH   4  22
ATOM     20  O   UNL     1      33.268 -23.204 -16.652  0.00  0.00    -0.270 OA
ATOM     21  N   UNL     1      31.356 -21.849 -16.840  0.00  0.00    -0.280 N 
ATOM     22  C   UNL     1      32.670 -22.243 -17.125  0.00  0.00    +0.249 C 
ATOM     23  H   UNL     1      31.034 -21.047 -17.314  0.00  0.00    +0.155 HD
BRANCH  21  24
ATOM     24  C   UNL     1      30.449 -22.449 -15.967  0.00  0.00    +0.051 C 
ATOM     25  C   UNL     1      29.142 -21.971 -15.881  0.00  0.00    +0.025 C 
ATOM     26  C   UNL     1      30.849 -23.528 -15.179  0.00  0.00    +0.015 C 
ATOM     27  C   UNL     1      28.234 -22.571 -15.008  0.00  0.00    +0.070 C 
ATOM     28  C   UNL     1      29.943 -24.128 -14.305  0.00  0.00    +0.002 C 
ATOM     29  C   UNL     1      28.636 -23.649 -14.219  0.00  0.00    +0.010 C 
BRANCH  27  31
ATOM     30  N   UNL     1      25.806 -21.683 -14.848  0.00  0.00    -0.191 NA
ATOM     31  C   UNL     1      26.895 -22.081 -14.920  0.00  0.00    +0.100 C 
ENDBRANCH  27  31
ENDBRANCH  21  24
ENDBRANCH   4  22
TORSDOF 5
ENDMDL
MODEL 9
REMARK VINA RESULT:     -10.8      3.836      7.713
REMARK  Name = 10200651
REMARK  5 active torsions:
REMARK  status: ('A' for Active; 'I' for Inactive)
REMARK    1  A    between atoms: C_1  and  C_7
REMARK    2  A    between atoms: C_4  and  C_22
REMARK    3  A    between atoms: C_10  and  C_17
REMARK    4  A    between atoms: N_21  and  C_24
REMARK    5  A    between atoms: C_27  and  C_31
REMARK                            x       y       z     vdW  Elec       q    Type
REMARK                         _______ _______ _______ _____ _____    ______ ____
ROOT
ATOM      1  C   UNL     1      34.144 -21.959 -16.678  0.00  0.00    -0.000 C 
ATOM      2  C   UNL     1      35.493 -21.644 -16.843  0.00  0.00    +0.000 C 
ATOM      3  C   UNL     1      33.221 -21.614 -17.665  0.00  0.00    +0.000 C 
ATOM      4  C   UNL     1      34.985 -20.655 -18.957  0.00  0.00    +0.054 C 
ATOM      5  C   UNL     1      35.918 -20.984 -17.996  0.00  0.00    +0.005 C 
ATOM      6  C   UNL     1      33.646 -20.955 -18.817  0.00  0.00    +0.005 C 
ENDROOT
BRANCH   1   7
ATOM      7  C   UNL     1      33.702 -22.643 -15.482  0.00  0.00    -0.004 C 
ATOM      8  C   UNL     1      32.348 -22.890 -15.249  0.00  0.00    -0.022 C 
ATOM      9  C   UNL     1      34.654 -23.061 -14.549  0.00  0.00    +0.004 C 
ATOM     10  C   UNL     1      34.253 -23.722 -13.388  0.00  0.00    +0.055 C 
ATOM     11  C   UNL     1      31.947 -23.550 -14.087  0.00  0.00    -0.004 C 
ATOM     12  C   UNL     1      32.899 -23.967 -13.158  0.00  0.00    +0.004 C 
ATOM     13  C   UNL     1      31.299 -22.458 -16.222  0.00  0.00    +0.031 C 
BRANCH  10  17
ATOM     14  O   UNL     1      36.431 -24.546 -12.941  0.00  0.00    -0.420 OA
ATOM     15  N   UNL     1      35.168 -24.227 -11.123  0.00  0.00    -0.107 NA
ATOM     16  N   UNL     1      36.397 -24.706 -10.710  0.00  0.00    -0.111 NA
ATOM     17  C   UNL     1      35.238 -24.152 -12.426  0.00  0.00    +0.250 A 
ATOM     18  C   UNL     1      37.101 -24.879 -11.804  0.00  0.00    +0.227 A 
ATOM     19  C   UNL     1      38.475 -25.368 -11.966  0.00  0.00    +0.097 C 
ENDBRANCH  10  17
ENDBRANCH   1   7
BRANCH   4  22
ATOM     20  O   UNL     1      36.559 -20.210 -20.610  0.00  0.00    -0.270 OA
ATOM     21  N   UNL     1      34.511 -19.065 -20.748  0.00  0.00    -0.280 N 
ATOM     22  C   UNL     1      35.439 -19.951 -20.185  0.00  0.00    +0.249 C 
ATOM     23  H   UNL     1      33.653 -18.977 -20.271  0.00  0.00    +0.155 HD
BRANCH  21  24
ATOM     24  C   UNL     1      34.650 -18.294 -21.902  0.00  0.00    +0.051 C 
ATOM     25  C   UNL     1      34.797 -16.911 -21.804  0.00  0.00    +0.025 C 
ATOM     26  C   UNL     1      34.642 -18.906 -23.155  0.00  0.00    +0.015 C 
ATOM     27  C   UNL     1      34.936 -16.139 -22.958  0.00  0.00    +0.070 C 
ATOM     28  C   UNL     1      34.780 -18.137 -24.310  0.00  0.00    +0.002 C 
ATOM     29  C   UNL     1      34.927 -16.753 -24.211  0.00  0.00    +0.010 C 
BRANCH  27  31
ATOM     30  N   UNL     1      35.210 -13.570 -22.776  0.00  0.00    -0.191 NA
ATOM     31  C   UNL     1      35.087 -14.722 -22.858  0.00  0.00    +0.100 C 
ENDBRANCH  27  31
ENDBRANCH  21  24
ENDBRANCH   4  22
TORSDOF 5
ENDMDL
