MODEL 1
REMARK VINA RESULT:     -11.6      0.000      0.000
REMARK  Name = 25093369
REMARK  5 active torsions:
REMARK  status: ('A' for Active; 'I' for Inactive)
REMARK    1  A    between atoms: C_1  and  C_3
REMARK    2  A    between atoms: C_1  and  C_17
REMARK    3  A    between atoms: C_4  and  C_9
REMARK    4  A    between atoms: C_7  and  O_15
REMARK    5  A    between atoms: C_18  and  C_23
REMARK                            x       y       z     vdW  Elec       q    Type
REMARK                         _______ _______ _______ _____ _____    ______ ____
ROOT
ATOM      1  C   UNL     1      32.944 -23.335 -13.490  0.00  0.00    +0.086 C 
ATOM      2  C   UNL     1      32.075 -24.506 -12.992  0.00  0.00    +0.019 C 
ENDROOT
BRANCH   1   3
ATOM      3  C   UNL     1      32.458 -22.771 -14.782  0.00  0.00    -0.007 C 
ATOM      4  C   UNL     1      32.918 -21.783 -16.938  0.00  0.00    +0.003 C 
ATOM      5  C   UNL     1      33.373 -22.311 -15.731  0.00  0.00    -0.003 C 
ATOM      6  C   UNL     1      31.089 -22.703 -15.042  0.00  0.00    +0.034 C 
ATOM      7  C   UNL     1      30.635 -22.175 -16.251  0.00  0.00    +0.138 C 
ATOM      8  C   UNL     1      31.549 -21.715 -17.198  0.00  0.00    +0.037 C 
BRANCH   4   9
ATOM      9  C   UNL     1      33.865 -21.306 -17.922  0.00  0.00    +0.000 C 
ATOM     10  C   UNL     1      33.416 -20.611 -19.045  0.00  0.00    +0.000 C 
ATOM     11  C   UNL     1      35.229 -21.541 -17.748  0.00  0.00    +0.000 C 
ATOM     12  C   UNL     1      34.328 -20.151 -19.993  0.00  0.00    +0.000 C 
ATOM     13  C   UNL     1      36.143 -21.081 -18.696  0.00  0.00    +0.000 C 
ATOM     14  C   UNL     1      35.693 -20.386 -19.818  0.00  0.00    +0.000 C 
ENDBRANCH   4   9
BRANCH   7  15
ATOM     15  O   UNL     1      29.299 -22.110 -16.505  0.00  0.00    -0.471 OA
ATOM     16  C   UNL     1      28.508 -23.229 -16.108  0.00  0.00    +0.252 C 
ENDBRANCH   7  15
ENDBRANCH   1   3
BRANCH   1  17
ATOM     17  C   UNL     1      34.365 -23.761 -13.557  0.00  0.00    -0.087 C 
ATOM     18  C   UNL     1      35.513 -24.113 -13.591  0.00  0.00    -0.076 C 
BRANCH  18  23
ATOM     19  N   UNL     1      39.169 -24.214 -12.963  0.00  0.00    -0.336 NA
ATOM     20  N   UNL     1      38.574 -26.077 -14.371  0.00  0.00    -0.317 NA
ATOM     21  N   UNL     1      36.328 -26.413 -15.034  0.00  0.00    -0.334 N 
ATOM     22  N   UNL     1      40.797 -25.731 -13.706  0.00  0.00    -0.283 N 
ATOM     23  C   UNL     1      36.879 -24.538 -13.626  0.00  0.00    +0.179 C 
ATOM     24  C   UNL     1      37.870 -23.849 -12.958  0.00  0.00    +0.120 C 
ATOM     25  C   UNL     1      37.292 -25.655 -14.323  0.00  0.00    +0.186 C 
ATOM     26  C   UNL     1      37.555 -22.621 -12.165  0.00  0.00    +0.064 C 
ATOM     27  C   UNL     1      39.446 -25.320 -13.679  0.00  0.00    +0.196 C 
ATOM     28  H   UNL     1      36.603 -27.213 -15.536  0.00  0.00    +0.144 HD
ATOM     29  H   UNL     1      35.382 -26.139 -15.023  0.00  0.00    +0.144 HD
ATOM     30  H   UNL     1      41.479 -25.215 -13.218  0.00  0.00    +0.156 HD
ATOM     31  H   UNL     1      41.057 -26.534 -14.214  0.00  0.00    +0.156 HD
ENDBRANCH  18  23
ENDBRANCH   1  17
TORSDOF 5
ENDMDL
MODEL 2
REMARK VINA RESULT:     -10.5     12.875     16.221
REMARK  Name = 25093369
REMARK  5 active torsions:
REMARK  status: ('A' for Active; 'I' for Inactive)
REMARK    1  A    between atoms: C_1  and  C_3
REMARK    2  A    between atoms: C_1  and  C_17
REMARK    3  A    between atoms: C_4  and  C_9
REMARK    4  A    between atoms: C_7  and  O_15
REMARK    5  A    between atoms: C_18  and  C_23
REMARK                            x       y       z     vdW  Elec       q    Type
REMARK                         _______ _______ _______ _____ _____    ______ ____
ROOT
ATOM      1  C   UNL     1      31.809 -10.729 -20.604  0.00  0.00    +0.086 C 
ATOM      2  C   UNL     1      32.015 -11.136 -19.132  0.00  0.00    +0.019 C 
ENDROOT
BRANCH   1   3
ATOM      3  C   UNL     1      32.763 -11.410 -21.525  0.00  0.00    -0.007 C 
ATOM      4  C   UNL     1      34.166 -13.304 -22.057  0.00  0.00    +0.003 C 
ATOM      5  C   UNL     1      33.273 -12.667 -21.196  0.00  0.00    -0.003 C 
ATOM      6  C   UNL     1      33.148 -10.791 -22.714  0.00  0.00    +0.034 C 
ATOM      7  C   UNL     1      34.041 -11.428 -23.575  0.00  0.00    +0.138 C 
ATOM      8  C   UNL     1      34.551 -12.684 -23.247  0.00  0.00    +0.037 C 
BRANCH   4   9
ATOM      9  C   UNL     1      34.694 -14.607 -21.718  0.00  0.00    +0.000 C 
ATOM     10  C   UNL     1      35.084 -15.487 -22.727  0.00  0.00    +0.000 C 
ATOM     11  C   UNL     1      34.815 -14.984 -20.380  0.00  0.00    +0.000 C 
ATOM     12  C   UNL     1      35.593 -16.743 -22.400  0.00  0.00    +0.000 C 
ATOM     13  C   UNL     1      35.324 -16.240 -20.052  0.00  0.00    +0.000 C 
ATOM     14  C   UNL     1      35.714 -17.120 -21.062  0.00  0.00    +0.000 C 
ENDBRANCH   4   9
BRANCH   7  15
ATOM     15  O   UNL     1      34.415 -10.824 -24.737  0.00  0.00    -0.471 OA
ATOM     16  C   UNL     1      35.221  -9.652 -24.629  0.00  0.00    +0.252 C 
ENDBRANCH   7  15
ENDBRANCH   1   3
BRANCH   1  17
ATOM     17  C   UNL     1      31.863  -9.250 -20.726  0.00  0.00    -0.087 C 
ATOM     18  C   UNL     1      31.909  -8.055 -20.846  0.00  0.00    -0.076 C 
BRANCH  18  23
ATOM     19  N   UNL     1      31.807  -4.690 -22.407  0.00  0.00    -0.336 NA
ATOM     20  N   UNL     1      32.261  -4.439 -20.054  0.00  0.00    -0.317 NA
ATOM     21  N   UNL     1      32.416  -6.336 -18.650  0.00  0.00    -0.334 N 
ATOM     22  N   UNL     1      32.105  -2.566 -21.458  0.00  0.00    -0.283 N 
ATOM     23  C   UNL     1      31.961  -6.634 -20.996  0.00  0.00    +0.179 C 
ATOM     24  C   UNL     1      31.768  -6.026 -22.219  0.00  0.00    +0.120 C 
ATOM     25  C   UNL     1      32.207  -5.783 -19.938  0.00  0.00    +0.186 C 
ATOM     26  C   UNL     1      31.493  -6.835 -23.447  0.00  0.00    +0.064 C 
ATOM     27  C   UNL     1      32.056  -3.968 -21.298  0.00  0.00    +0.196 C 
ATOM     28  H   UNL     1      32.592  -5.746 -17.883  0.00  0.00    +0.144 HD
ATOM     29  H   UNL     1      32.384  -7.313 -18.523  0.00  0.00    +0.144 HD
ATOM     30  H   UNL     1      31.962  -2.165 -22.346  0.00  0.00    +0.156 HD
ATOM     31  H   UNL     1      32.283  -1.988 -20.680  0.00  0.00    +0.156 HD
ENDBRANCH  18  23
ENDBRANCH   1  17
TORSDOF 5
ENDMDL
MODEL 3
REMARK VINA RESULT:     -10.5     11.270     14.283
REMARK  Name = 25093369
REMARK  5 active torsions:
REMARK  status: ('A' for Active; 'I' for Inactive)
REMARK    1  A    between atoms: C_1  and  C_3
REMARK    2  A    between atoms: C_1  and  C_17
REMARK    3  A    between atoms: C_4  and  C_9
REMARK    4  A    between atoms: C_7  and  O_15
REMARK    5  A    between atoms: C_18  and  C_23
REMARK                            x       y       z     vdW  Elec       q    Type
REMARK                         _______ _______ _______ _____ _____    ______ ____
ROOT
ATOM      1  C   UNL     1      33.724 -10.944 -23.630  0.00  0.00    +0.086 C 
ATOM      2  C   UNL     1      34.939 -10.167 -24.172  0.00  0.00    +0.019 C 
ENDROOT
BRANCH   1   3
ATOM      3  C   UNL     1      33.040 -10.231 -22.513  0.00  0.00    -0.007 C 
ATOM      4  C   UNL     1      32.330  -8.170 -21.470  0.00  0.00    +0.003 C 
ATOM      5  C   UNL     1      32.969  -8.837 -22.515  0.00  0.00    -0.003 C 
ATOM      6  C   UNL     1      32.473 -10.957 -21.466  0.00  0.00    +0.034 C 
ATOM      7  C   UNL     1      31.835 -10.289 -20.421  0.00  0.00    +0.138 C 
ATOM      8  C   UNL     1      31.763  -8.897 -20.423  0.00  0.00    +0.037 C 
BRANCH   4   9
ATOM      9  C   UNL     1      32.255  -6.726 -21.472  0.00  0.00    +0.000 C 
ATOM     10  C   UNL     1      32.159  -6.033 -22.678  0.00  0.00    +0.000 C 
ATOM     11  C   UNL     1      32.279  -6.025 -20.266  0.00  0.00    +0.000 C 
ATOM     12  C   UNL     1      32.085  -4.641 -22.681  0.00  0.00    +0.000 C 
ATOM     13  C   UNL     1      32.206  -4.632 -20.267  0.00  0.00    +0.000 C 
ATOM     14  C   UNL     1      32.109  -3.940 -21.474  0.00  0.00    +0.000 C 
ENDBRANCH   4   9
BRANCH   7  15
ATOM     15  O   UNL     1      31.280 -10.999 -19.399  0.00  0.00    -0.471 OA
ATOM     16  C   UNL     1      31.383 -10.441 -18.090  0.00  0.00    +0.252 C 
ENDBRANCH   7  15
ENDBRANCH   1   3
BRANCH   1  17
ATOM     17  C   UNL     1      34.139 -12.320 -23.253  0.00  0.00    -0.087 C 
ATOM     18  C   UNL     1      34.461 -13.431 -22.932  0.00  0.00    -0.076 C 
BRANCH  18  23
ATOM     19  N   UNL     1      35.361 -16.340 -20.809  0.00  0.00    -0.336 NA
ATOM     20  N   UNL     1      35.412 -17.022 -23.120  0.00  0.00    -0.317 NA
ATOM     21  N   UNL     1      34.902 -15.480 -24.840  0.00  0.00    -0.334 N 
ATOM     22  N   UNL     1      35.916 -18.540 -21.404  0.00  0.00    -0.283 N 
ATOM     23  C   UNL     1      34.838 -14.756 -22.544  0.00  0.00    +0.179 C 
ATOM     24  C   UNL     1      35.007 -15.104 -21.220  0.00  0.00    +0.120 C 
ATOM     25  C   UNL     1      35.056 -15.764 -23.460  0.00  0.00    +0.186 C 
ATOM     26  C   UNL     1      34.801 -14.104 -20.128  0.00  0.00    +0.064 C 
ATOM     27  C   UNL     1      35.545 -17.236 -21.797  0.00  0.00    +0.196 C 
ATOM     28  H   UNL     1      35.052 -16.186 -25.508  0.00  0.00    +0.144 HD
ATOM     29  H   UNL     1      34.642 -14.575 -25.130  0.00  0.00    +0.144 HD
ATOM     30  H   UNL     1      36.028 -18.754 -20.450  0.00  0.00    +0.156 HD
ATOM     31  H   UNL     1      36.065 -19.236 -22.085  0.00  0.00    +0.156 HD
ENDBRANCH  18  23
ENDBRANCH   1  17
TORSDOF 5
ENDMDL
MODEL 4
REMARK VINA RESULT:     -10.4     13.044     16.248
REMARK  Name = 25093369
REMARK  5 active torsions:
REMARK  status: ('A' for Active; 'I' for Inactive)
REMARK    1  A    between atoms: C_1  and  C_3
REMARK    2  A    between atoms: C_1  and  C_17
REMARK    3  A    between atoms: C_4  and  C_9
REMARK    4  A    between atoms: C_7  and  O_15
REMARK    5  A    between atoms: C_18  and  C_23
REMARK                            x       y       z     vdW  Elec       q    Type
REMARK                         _______ _______ _______ _____ _____    ______ ____
ROOT
ATOM      1  C   UNL     1      31.835 -10.664 -20.655  0.00  0.00    +0.086 C 
ATOM      2  C   UNL     1      32.065 -11.017 -19.172  0.00  0.00    +0.019 C 
ENDROOT
BRANCH   1   3
ATOM      3  C   UNL     1      32.783 -11.369 -21.565  0.00  0.00    -0.007 C 
ATOM      4  C   UNL     1      34.175 -13.281 -22.062  0.00  0.00    +0.003 C 
ATOM      5  C   UNL     1      33.288 -12.621 -21.211  0.00  0.00    -0.003 C 
ATOM      6  C   UNL     1      33.165 -10.777 -22.768  0.00  0.00    +0.034 C 
ATOM      7  C   UNL     1      34.052 -11.437 -23.619  0.00  0.00    +0.138 C 
ATOM      8  C   UNL     1      34.557 -12.688 -23.266  0.00  0.00    +0.037 C 
BRANCH   4   9
ATOM      9  C   UNL     1      34.698 -14.578 -21.697  0.00  0.00    +0.000 C 
ATOM     10  C   UNL     1      35.088 -15.479 -22.688  0.00  0.00    +0.000 C 
ATOM     11  C   UNL     1      34.814 -14.930 -20.351  0.00  0.00    +0.000 C 
ATOM     12  C   UNL     1      35.593 -16.729 -22.336  0.00  0.00    +0.000 C 
ATOM     13  C   UNL     1      35.320 -16.182 -19.998  0.00  0.00    +0.000 C 
ATOM     14  C   UNL     1      35.709 -17.081 -20.991  0.00  0.00    +0.000 C 
ENDBRANCH   4   9
BRANCH   7  15
ATOM     15  O   UNL     1      34.423 -10.860 -24.795  0.00  0.00    -0.471 OA
ATOM     16  C   UNL     1      35.189  -9.659 -24.715  0.00  0.00    +0.252 C 
ENDBRANCH   7  15
ENDBRANCH   1   3
BRANCH   1  17
ATOM     17  C   UNL     1      31.875  -9.189 -20.829  0.00  0.00    -0.087 C 
ATOM     18  C   UNL     1      31.898  -7.999 -20.989  0.00  0.00    -0.076 C 
BRANCH  18  23
ATOM     19  N   UNL     1      32.118  -4.364 -20.274  0.00  0.00    -0.336 NA
ATOM     20  N   UNL     1      31.791  -4.669 -22.642  0.00  0.00    -0.317 NA
ATOM     21  N   UNL     1      31.593  -6.841 -23.558  0.00  0.00    -0.334 N 
ATOM     22  N   UNL     1      31.988  -2.521 -21.720  0.00  0.00    -0.283 N 
ATOM     23  C   UNL     1      31.920  -6.582 -21.186  0.00  0.00    +0.179 C 
ATOM     24  C   UNL     1      32.091  -5.706 -20.135  0.00  0.00    +0.120 C 
ATOM     25  C   UNL     1      31.773  -6.003 -22.429  0.00  0.00    +0.186 C 
ATOM     26  C   UNL     1      32.261  -6.205 -18.735  0.00  0.00    +0.064 C 
ATOM     27  C   UNL     1      31.964  -3.921 -21.536  0.00  0.00    +0.196 C 
ATOM     28  H   UNL     1      31.488  -6.447 -24.453  0.00  0.00    +0.144 HD
ATOM     29  H   UNL     1      31.576  -7.820 -23.446  0.00  0.00    +0.144 HD
ATOM     30  H   UNL     1      32.111  -1.925 -20.946  0.00  0.00    +0.156 HD
ATOM     31  H   UNL     1      31.879  -2.141 -22.622  0.00  0.00    +0.156 HD
ENDBRANCH  18  23
ENDBRANCH   1  17
TORSDOF 5
ENDMDL
MODEL 5
REMARK VINA RESULT:     -10.3      3.940      7.075
REMARK  Name = 25093369
REMARK  5 active torsions:
REMARK  status: ('A' for Active; 'I' for Inactive)
REMARK    1  A    between atoms: C_1  and  C_3
REMARK    2  A    between atoms: C_1  and  C_17
REMARK    3  A    between atoms: C_4  and  C_9
REMARK    4  A    between atoms: C_7  and  O_15
REMARK    5  A    between atoms: C_18  and  C_23
REMARK                            x       y       z     vdW  Elec       q    Type
REMARK                         _______ _______ _______ _____ _____    ______ ____
ROOT
ATOM      1  C   UNL     1      33.570 -23.453 -15.452  0.00  0.00    +0.086 C 
ATOM      2  C   UNL     1      32.206 -22.961 -14.930  0.00  0.00    +0.019 C 
ENDROOT
BRANCH   1   3
ATOM      3  C   UNL     1      34.578 -23.603 -14.364  0.00  0.00    -0.007 C 
ATOM      4  C   UNL     1      36.840 -24.076 -13.659  0.00  0.00    +0.003 C 
ATOM      5  C   UNL     1      35.897 -23.935 -14.676  0.00  0.00    -0.003 C 
ATOM      6  C   UNL     1      34.203 -23.412 -13.034  0.00  0.00    +0.034 C 
ATOM      7  C   UNL     1      35.147 -23.553 -12.017  0.00  0.00    +0.138 C 
ATOM      8  C   UNL     1      36.465 -23.885 -12.329  0.00  0.00    +0.037 C 
BRANCH   4   9
ATOM      9  C   UNL     1      38.208 -24.419 -13.981  0.00  0.00    +0.000 C 
ATOM     10  C   UNL     1      38.950 -23.603 -14.834  0.00  0.00    +0.000 C 
ATOM     11  C   UNL     1      38.785 -25.568 -13.439  0.00  0.00    +0.000 C 
ATOM     12  C   UNL     1      40.268 -23.933 -15.145  0.00  0.00    +0.000 C 
ATOM     13  C   UNL     1      40.104 -25.899 -13.750  0.00  0.00    +0.000 C 
ATOM     14  C   UNL     1      40.846 -25.082 -14.603  0.00  0.00    +0.000 C 
ENDBRANCH   4   9
BRANCH   7  15
ATOM     15  O   UNL     1      34.780 -23.366 -10.719  0.00  0.00    -0.471 OA
ATOM     16  C   UNL     1      35.775 -23.596  -9.723  0.00  0.00    +0.252 C 
ENDBRANCH   7  15
ENDBRANCH   1   3
BRANCH   1  17
ATOM     17  C   UNL     1      34.040 -22.559 -16.541  0.00  0.00    -0.087 C 
ATOM     18  C   UNL     1      34.419 -21.819 -17.408  0.00  0.00    -0.076 C 
BRANCH  18  23
ATOM     19  N   UNL     1      36.647 -19.658 -19.441  0.00  0.00    -0.336 NA
ATOM     20  N   UNL     1      34.441 -19.624 -20.410  0.00  0.00    -0.317 NA
ATOM     21  N   UNL     1      32.682 -20.870 -19.436  0.00  0.00    -0.334 N 
ATOM     22  N   UNL     1      36.196 -18.393 -21.365  0.00  0.00    -0.283 N 
ATOM     23  C   UNL     1      34.871 -20.932 -18.435  0.00  0.00    +0.179 C 
ATOM     24  C   UNL     1      36.177 -20.493 -18.491  0.00  0.00    +0.120 C 
ATOM     25  C   UNL     1      34.039 -20.461 -19.430  0.00  0.00    +0.186 C 
ATOM     26  C   UNL     1      37.181 -20.929 -17.472  0.00  0.00    +0.064 C 
ATOM     27  C   UNL     1      35.739 -19.268 -20.355  0.00  0.00    +0.196 C 
ATOM     28  H   UNL     1      32.073 -20.546 -20.138  0.00  0.00    +0.144 HD
ATOM     29  H   UNL     1      32.349 -21.481 -18.739  0.00  0.00    +0.144 HD
ATOM     30  H   UNL     1      37.135 -18.100 -21.374  0.00  0.00    +0.156 HD
ATOM     31  H   UNL     1      35.574 -18.076 -22.060  0.00  0.00    +0.156 HD
ENDBRANCH  18  23
ENDBRANCH   1  17
TORSDOF 5
ENDMDL
MODEL 6
REMARK VINA RESULT:     -10.3     12.840     16.163
REMARK  Name = 25093369
REMARK  5 active torsions:
REMARK  status: ('A' for Active; 'I' for Inactive)
REMARK    1  A    between atoms: C_1  and  C_3
REMARK    2  A    between atoms: C_1  and  C_17
REMARK    3  A    between atoms: C_4  and  C_9
REMARK    4  A    between atoms: C_7  and  O_15
REMARK    5  A    between atoms: C_18  and  C_23
REMARK                            x       y       z     vdW  Elec       q    Type
REMARK                         _______ _______ _______ _____ _____    ______ ____
ROOT
ATOM      1  C   UNL     1      34.160 -10.272 -23.412  0.00  0.00    +0.086 C 
ATOM      2  C   UNL     1      33.782 -10.603 -24.869  0.00  0.00    +0.019 C 
ENDROOT
BRANCH   1   3
ATOM      3  C   UNL     1      33.746 -11.339 -22.457  0.00  0.00    -0.007 C 
ATOM      4  C   UNL     1      34.001 -13.575 -21.578  0.00  0.00    +0.003 C 
ATOM      5  C   UNL     1      34.390 -12.577 -22.471  0.00  0.00    -0.003 C 
ATOM      6  C   UNL     1      32.713 -11.099 -21.550  0.00  0.00    +0.034 C 
ATOM      7  C   UNL     1      32.325 -12.098 -20.657  0.00  0.00    +0.138 C 
ATOM      8  C   UNL     1      32.969 -13.336 -20.671  0.00  0.00    +0.037 C 
BRANCH   4   9
ATOM      9  C   UNL     1      34.668 -14.858 -21.591  0.00  0.00    +0.000 C 
ATOM     10  C   UNL     1      35.031 -15.444 -22.803  0.00  0.00    +0.000 C 
ATOM     11  C   UNL     1      34.951 -15.509 -20.390  0.00  0.00    +0.000 C 
ATOM     12  C   UNL     1      35.674 -16.681 -22.817  0.00  0.00    +0.000 C 
ATOM     13  C   UNL     1      35.595 -16.747 -20.402  0.00  0.00    +0.000 C 
ATOM     14  C   UNL     1      35.957 -17.332 -21.616  0.00  0.00    +0.000 C 
ENDBRANCH   4   9
BRANCH   7  15
ATOM     15  O   UNL     1      31.318 -11.864 -19.771  0.00  0.00    -0.471 OA
ATOM     16  C   UNL     1      30.665 -10.598 -19.850  0.00  0.00    +0.252 C 
ENDBRANCH   7  15
ENDBRANCH   1   3
BRANCH   1  17
ATOM     17  C   UNL     1      33.615  -8.940 -23.045  0.00  0.00    -0.087 C 
ATOM     18  C   UNL     1      33.160  -7.872 -22.735  0.00  0.00    -0.076 C 
BRANCH  18  23
ATOM     19  N   UNL     1      32.224  -4.933 -20.672  0.00  0.00    -0.336 NA
ATOM     20  N   UNL     1      31.428  -4.587 -22.920  0.00  0.00    -0.317 NA
ATOM     21  N   UNL     1      31.802  -6.217 -24.592  0.00  0.00    -0.334 N 
ATOM     22  N   UNL     1      31.065  -2.978 -21.251  0.00  0.00    -0.283 N 
ATOM     23  C   UNL     1      32.615  -6.605 -22.358  0.00  0.00    +0.179 C 
ATOM     24  C   UNL     1      32.722  -6.122 -21.070  0.00  0.00    +0.120 C 
ATOM     25  C   UNL     1      31.951  -5.787 -23.250  0.00  0.00    +0.186 C 
ATOM     26  C   UNL     1      33.418  -6.911 -20.008  0.00  0.00    +0.064 C 
ATOM     27  C   UNL     1      31.599  -4.228 -21.633  0.00  0.00    +0.196 C 
ATOM     28  H   UNL     1      31.333  -5.648 -25.242  0.00  0.00    +0.144 HD
ATOM     29  H   UNL     1      32.170  -7.087 -24.873  0.00  0.00    +0.144 HD
ATOM     30  H   UNL     1      31.159  -2.665 -20.323  0.00  0.00    +0.156 HD
ATOM     31  H   UNL     1      30.596  -2.419 -21.914  0.00  0.00    +0.156 HD
ENDBRANCH  18  23
ENDBRANCH   1  17
TORSDOF 5
ENDMDL
MODEL 7
REMARK VINA RESULT:     -10.3      4.030      6.762
REMARK  Name = 25093369
REMARK  5 active torsions:
REMARK  status: ('A' for Active; 'I' for Inactive)
REMARK    1  A    between atoms: C_1  and  C_3
REMARK    2  A    between atoms: C_1  and  C_17
REMARK    3  A    between atoms: C_4  and  C_9
REMARK    4  A    between atoms: C_7  and  O_15
REMARK    5  A    between atoms: C_18  and  C_23
REMARK                            x       y       z     vdW  Elec       q    Type
REMARK                         _______ _______ _______ _____ _____    ______ ____
ROOT
ATOM      1  C   UNL     1      32.448 -22.631 -16.891  0.00  0.00    +0.086 C 
ATOM      2  C   UNL     1      31.042 -22.010 -16.781  0.00  0.00    +0.019 C 
ENDROOT
BRANCH   1   3
ATOM      3  C   UNL     1      33.057 -22.905 -15.558  0.00  0.00    -0.007 C 
ATOM      4  C   UNL     1      34.987 -23.462 -14.215  0.00  0.00    +0.003 C 
ATOM      5  C   UNL     1      34.417 -23.204 -15.461  0.00  0.00    -0.003 C 
ATOM      6  C   UNL     1      32.268 -22.864 -14.409  0.00  0.00    +0.034 C 
ATOM      7  C   UNL     1      32.839 -23.121 -13.162  0.00  0.00    +0.138 C 
ATOM      8  C   UNL     1      34.198 -23.420 -13.065  0.00  0.00    +0.037 C 
BRANCH   4   9
ATOM      9  C   UNL     1      36.396 -23.771 -14.113  0.00  0.00    +0.000 C 
ATOM     10  C   UNL     1      36.829 -24.789 -13.264  0.00  0.00    +0.000 C 
ATOM     11  C   UNL     1      37.324 -23.050 -14.866  0.00  0.00    +0.000 C 
ATOM     12  C   UNL     1      38.187 -25.087 -13.166  0.00  0.00    +0.000 C 
ATOM     13  C   UNL     1      38.684 -23.348 -14.769  0.00  0.00    +0.000 C 
ATOM     14  C   UNL     1      39.115 -24.367 -13.919  0.00  0.00    +0.000 C 
ENDBRANCH   4   9
BRANCH   7  15
ATOM     15  O   UNL     1      32.069 -23.079 -12.040  0.00  0.00    -0.471 OA
ATOM     16  C   UNL     1      30.703 -23.467 -12.175  0.00  0.00    +0.252 C 
ENDBRANCH   7  15
ENDBRANCH   1   3
BRANCH   1  17
ATOM     17  C   UNL     1      33.309 -21.770 -17.741  0.00  0.00    -0.087 C 
ATOM     18  C   UNL     1      33.988 -21.061 -18.434  0.00  0.00    -0.076 C 
BRANCH  18  23
ATOM     19  N   UNL     1      36.948 -19.306 -19.823  0.00  0.00    -0.336 NA
ATOM     20  N   UNL     1      34.999 -18.652 -21.080  0.00  0.00    -0.317 NA
ATOM     21  N   UNL     1      32.870 -19.531 -20.540  0.00  0.00    -0.334 N 
ATOM     22  N   UNL     1      37.116 -17.788 -21.604  0.00  0.00    -0.283 N 
ATOM     23  C   UNL     1      34.791 -20.212 -19.258  0.00  0.00    +0.179 C 
ATOM     24  C   UNL     1      36.153 -20.094 -19.070  0.00  0.00    +0.120 C 
ATOM     25  C   UNL     1      34.263 -19.460 -20.288  0.00  0.00    +0.186 C 
ATOM     26  C   UNL     1      36.849 -20.855 -17.988  0.00  0.00    +0.064 C 
ATOM     27  C   UNL     1      36.315 -18.623 -20.796  0.00  0.00    +0.196 C 
ATOM     28  H   UNL     1      32.475 -19.003 -21.271  0.00  0.00    +0.144 HD
ATOM     29  H   UNL     1      32.298 -20.110 -19.986  0.00  0.00    +0.144 HD
ATOM     30  H   UNL     1      38.085 -17.728 -21.441  0.00  0.00    +0.156 HD
ATOM     31  H   UNL     1      36.706 -17.265 -22.331  0.00  0.00    +0.156 HD
ENDBRANCH  18  23
ENDBRANCH   1  17
TORSDOF 5
ENDMDL
MODEL 8
REMARK VINA RESULT:     -10.3     12.711     16.212
REMARK  Name = 25093369
REMARK  5 active torsions:
REMARK  status: ('A' for Active; 'I' for Inactive)
REMARK    1  A    between atoms: C_1  and  C_3
REMARK    2  A    between atoms: C_1  and  C_17
REMARK    3  A    between atoms: C_4  and  C_9
REMARK    4  A    between atoms: C_7  and  O_15
REMARK    5  A    between atoms: C_18  and  C_23
REMARK                            x       y       z     vdW  Elec       q    Type
REMARK                         _______ _______ _______ _____ _____    ______ ____
ROOT
ATOM      1  C   UNL     1      34.169 -10.279 -23.381  0.00  0.00    +0.086 C 
ATOM      2  C   UNL     1      33.804 -10.615 -24.840  0.00  0.00    +0.019 C 
ENDROOT
BRANCH   1   3
ATOM      3  C   UNL     1      33.766 -11.353 -22.429  0.00  0.00    -0.007 C 
ATOM      4  C   UNL     1      34.022 -13.600 -21.579  0.00  0.00    +0.003 C 
ATOM      5  C   UNL     1      34.400 -12.596 -22.469  0.00  0.00    -0.003 C 
ATOM      6  C   UNL     1      32.753 -11.116 -21.499  0.00  0.00    +0.034 C 
ATOM      7  C   UNL     1      32.376 -12.122 -20.609  0.00  0.00    +0.138 C 
ATOM      8  C   UNL     1      33.010 -13.363 -20.648  0.00  0.00    +0.037 C 
BRANCH   4   9
ATOM      9  C   UNL     1      34.680 -14.887 -21.619  0.00  0.00    +0.000 C 
ATOM     10  C   UNL     1      34.983 -15.555 -20.432  0.00  0.00    +0.000 C 
ATOM     11  C   UNL     1      35.011 -15.463 -22.846  0.00  0.00    +0.000 C 
ATOM     12  C   UNL     1      35.616 -16.796 -20.470  0.00  0.00    +0.000 C 
ATOM     13  C   UNL     1      35.645 -16.706 -22.885  0.00  0.00    +0.000 C 
ATOM     14  C   UNL     1      35.948 -17.372 -21.697  0.00  0.00    +0.000 C 
ENDBRANCH   4   9
BRANCH   7  15
ATOM     15  O   UNL     1      31.389 -11.889 -19.700  0.00  0.00    -0.471 OA
ATOM     16  C   UNL     1      30.647 -10.679 -19.841  0.00  0.00    +0.252 C 
ENDBRANCH   7  15
ENDBRANCH   1   3
BRANCH   1  17
ATOM     17  C   UNL     1      33.601  -8.956 -23.016  0.00  0.00    -0.087 C 
ATOM     18  C   UNL     1      33.156  -7.884 -22.706  0.00  0.00    -0.076 C 
BRANCH  18  23
ATOM     19  N   UNL     1      31.454  -4.594 -22.923  0.00  0.00    -0.336 NA
ATOM     20  N   UNL     1      32.281  -4.892 -20.679  0.00  0.00    -0.317 NA
ATOM     21  N   UNL     1      33.443  -6.862 -20.078  0.00  0.00    -0.334 N 
ATOM     22  N   UNL     1      31.126  -2.942 -21.289  0.00  0.00    -0.283 N 
ATOM     23  C   UNL     1      32.634  -6.606 -22.332  0.00  0.00    +0.179 C 
ATOM     24  C   UNL     1      31.963  -5.805 -23.232  0.00  0.00    +0.120 C 
ATOM     25  C   UNL     1      32.765  -6.094 -21.057  0.00  0.00    +0.186 C 
ATOM     26  C   UNL     1      31.753  -6.243 -24.646  0.00  0.00    +0.064 C 
ATOM     27  C   UNL     1      31.646  -4.205 -21.648  0.00  0.00    +0.196 C 
ATOM     28  H   UNL     1      33.546  -6.514 -19.163  0.00  0.00    +0.144 HD
ATOM     29  H   UNL     1      33.810  -7.745 -20.313  0.00  0.00    +0.144 HD
ATOM     30  H   UNL     1      30.653  -2.396 -21.958  0.00  0.00    +0.156 HD
ATOM     31  H   UNL     1      31.238  -2.607 -20.370  0.00  0.00    +0.156 HD
ENDBRANCH  18  23
ENDBRANCH   1  17
TORSDOF 5
ENDMDL
MODEL 9
REMARK VINA RESULT:     -10.3      6.873     10.094
REMARK  Name = 25093369
REMARK  5 active torsions:
REMARK  status: ('A' for Active; 'I' for Inactive)
REMARK    1  A    between atoms: C_1  and  C_3
REMARK    2  A    between atoms: C_1  and  C_17
REMARK    3  A    between atoms: C_4  and  C_9
REMARK    4  A    between atoms: C_7  and  O_15
REMARK    5  A    between atoms: C_18  and  C_23
REMARK                            x       y       z     vdW  Elec       q    Type
REMARK                         _______ _______ _______ _____ _____    ______ ____
ROOT
ATOM      1  C   UNL     1      35.549 -15.921 -20.878  0.00  0.00    +0.086 C 
ATOM      2  C   UNL     1      35.005 -14.951 -19.811  0.00  0.00    +0.019 C 
ENDROOT
BRANCH   1   3
ATOM      3  C   UNL     1      35.066 -15.592 -22.250  0.00  0.00    -0.007 C 
ATOM      4  C   UNL     1      34.379 -13.955 -23.890  0.00  0.00    +0.003 C 
ATOM      5  C   UNL     1      34.832 -14.263 -22.607  0.00  0.00    -0.003 C 
ATOM      6  C   UNL     1      34.846 -16.612 -23.175  0.00  0.00    +0.034 C 
ATOM      7  C   UNL     1      34.393 -16.304 -24.458  0.00  0.00    +0.138 C 
ATOM      8  C   UNL     1      34.160 -14.976 -24.815  0.00  0.00    +0.037 C 
BRANCH   4   9
ATOM      9  C   UNL     1      34.138 -12.579 -24.261  0.00  0.00    +0.000 C 
ATOM     10  C   UNL     1      33.860 -12.251 -25.588  0.00  0.00    +0.000 C 
ATOM     11  C   UNL     1      34.182 -11.577 -23.291  0.00  0.00    +0.000 C 
ATOM     12  C   UNL     1      33.627 -10.925 -25.946  0.00  0.00    +0.000 C 
ATOM     13  C   UNL     1      33.949 -10.248 -23.649  0.00  0.00    +0.000 C 
ATOM     14  C   UNL     1      33.671  -9.922 -24.976  0.00  0.00    +0.000 C 
ENDBRANCH   4   9
BRANCH   7  15
ATOM     15  O   UNL     1      34.181 -17.300 -25.362  0.00  0.00    -0.471 OA
ATOM     16  C   UNL     1      33.129 -18.220 -25.078  0.00  0.00    +0.252 C 
ENDBRANCH   7  15
ENDBRANCH   1   3
BRANCH   1  17
ATOM     17  C   UNL     1      35.236 -17.319 -20.488  0.00  0.00    -0.087 C 
ATOM     18  C   UNL     1      34.976 -18.443 -20.153  0.00  0.00    -0.076 C 
BRANCH  18  23
ATOM     19  N   UNL     1      35.394 -21.942 -18.988  0.00  0.00    -0.336 NA
ATOM     20  N   UNL     1      33.046 -21.512 -19.325  0.00  0.00    -0.317 NA
ATOM     21  N   UNL     1      32.307 -19.393 -20.071  0.00  0.00    -0.334 N 
ATOM     22  N   UNL     1      33.794 -23.609 -18.584  0.00  0.00    -0.283 N 
ATOM     23  C   UNL     1      34.663 -19.779 -19.748  0.00  0.00    +0.179 C 
ATOM     24  C   UNL     1      35.644 -20.674 -19.377  0.00  0.00    +0.120 C 
ATOM     25  C   UNL     1      33.369 -20.257 -19.703  0.00  0.00    +0.186 C 
ATOM     26  C   UNL     1      37.087 -20.282 -19.383  0.00  0.00    +0.064 C 
ATOM     27  C   UNL     1      34.093 -22.289 -18.986  0.00  0.00    +0.196 C 
ATOM     28  H   UNL     1      31.378 -19.715 -20.045  0.00  0.00    +0.144 HD
ATOM     29  H   UNL     1      32.500 -18.469 -20.353  0.00  0.00    +0.144 HD
ATOM     30  H   UNL     1      34.520 -24.222 -18.326  0.00  0.00    +0.156 HD
ATOM     31  H   UNL     1      32.858 -23.918 -18.564  0.00  0.00    +0.156 HD
ENDBRANCH  18  23
ENDBRANCH   1  17
TORSDOF 5
ENDMDL
