MODEL 1
REMARK VINA RESULT:     -12.8      0.000      0.000
REMARK  Name = 11633167
REMARK  7 active torsions:
REMARK  status: ('A' for Active; 'I' for Inactive)
REMARK    1  A    between atoms: C_1  and  C_8
REMARK    2  A    between atoms: C_2  and  C_25
REMARK    3  A    between atoms: C_4  and  O_17
REMARK    4  A    between atoms: O_17  and  C_18
REMARK    5  A    between atoms: C_18  and  C_20
REMARK    6  A    between atoms: C_25  and  N_26
REMARK    7  A    between atoms: N_26  and  C_29
REMARK                            x       y       z     vdW  Elec       q    Type
REMARK                         _______ _______ _______ _____ _____    ______ ____
ROOT
ATOM      1  C   UNL     1      35.261 -20.953 -18.319  0.00  0.00    -0.000 C 
ATOM      2  C   UNL     1      35.935 -21.987 -16.243  0.00  0.00    +0.031 C 
ATOM      3  C   UNL     1      36.204 -21.124 -17.306  0.00  0.00    +0.000 C 
ATOM      4  C   UNL     1      34.725 -22.678 -16.194  0.00  0.00    +0.137 C 
ATOM      5  C   UNL     1      34.050 -21.643 -18.270  0.00  0.00    +0.003 C 
ATOM      6  C   UNL     1      33.782 -22.505 -17.207  0.00  0.00    +0.037 C 
ENDROOT
BRANCH   1   8
ATOM      7  N   UNL     1      34.096 -18.544 -22.503  0.00  0.00    -0.312 N 
ATOM      8  C   UNL     1      35.539 -20.058 -19.422  0.00  0.00    +0.001 C 
ATOM      9  C   UNL     1      34.859 -18.954 -21.433  0.00  0.00    +0.048 C 
ATOM     10  C   UNL     1      36.100 -18.321 -21.547  0.00  0.00    +0.015 C 
ATOM     11  C   UNL     1      34.550 -19.826 -20.383  0.00  0.00    +0.015 C 
ATOM     12  C   UNL     1      36.784 -19.442 -19.510  0.00  0.00    +0.000 C 
ATOM     13  C   UNL     1      37.081 -18.572 -20.566  0.00  0.00    +0.001 C 
ATOM     14  C   UNL     1      36.053 -17.519 -22.720  0.00  0.00    +0.017 C 
ATOM     15  C   UNL     1      34.810 -17.677 -23.287  0.00  0.00    +0.062 C 
ATOM     16  H   UNL     1      33.172 -18.832 -22.679  0.00  0.00    +0.152 HD
ENDBRANCH   1   8
BRANCH   4  17
ATOM     17  O   UNL     1      34.447 -23.524 -15.164  0.00  0.00    -0.469 OA
BRANCH  17  18
ATOM     18  C   UNL     1      33.781 -22.970 -14.031  0.00  0.00    +0.251 C 
BRANCH  18  20
ATOM     19  N   UNL     1      31.951 -24.552 -13.921  0.00  0.00    -0.244 NA
ATOM     20  C   UNL     1      32.314 -23.270 -14.130  0.00  0.00    +0.103 C 
ATOM     21  C   UNL     1      31.437 -22.244 -14.422  0.00  0.00    +0.018 C 
ATOM     22  C   UNL     1      30.085 -22.556 -14.507  0.00  0.00    +0.003 C 
ATOM     23  C   UNL     1      30.629 -24.817 -14.011  0.00  0.00    +0.099 C 
ATOM     24  C   UNL     1      29.664 -23.865 -14.298  0.00  0.00    +0.021 C 
ENDBRANCH  18  20
ENDBRANCH  17  18
ENDBRANCH   4  17
BRANCH   2  25
ATOM     25  C   UNL     1      36.956 -22.160 -15.167  0.00  0.00    +0.117 C 
BRANCH  25  26
ATOM     26  N   UNL     1      37.442 -23.537 -15.078  0.00  0.00    -0.327 N 
ATOM     27  H   UNL     1      37.708 -23.997 -15.907  0.00  0.00    +0.147 HD
BRANCH  26  29
ATOM     28  N   UNL     1      37.116 -26.217 -12.542  0.00  0.00    -0.228 NA
ATOM     29  C   UNL     1      37.544 -24.221 -13.889  0.00  0.00    +0.077 C 
ATOM     30  C   UNL     1      37.036 -25.514 -13.694  0.00  0.00    +0.139 C 
ATOM     31  C   UNL     1      38.182 -23.643 -12.776  0.00  0.00    +0.019 C 
ATOM     32  C   UNL     1      38.285 -24.336 -11.573  0.00  0.00    +0.022 C 
ATOM     33  C   UNL     1      37.740 -25.609 -11.510  0.00  0.00    +0.100 C 
ATOM     34  N   UNL     1      36.386 -26.126 -14.796  0.00  0.00    -0.342 N 
ATOM     35  H   UNL     1      36.014 -27.033 -14.705  0.00  0.00    +0.144 HD
ATOM     36  H   UNL     1      36.307 -25.644 -15.651  0.00  0.00    +0.144 HD
ENDBRANCH  26  29
ENDBRANCH  25  26
ENDBRANCH   2  25
TORSDOF 7
ENDMDL
MODEL 2
REMARK VINA RESULT:     -12.7      1.184      4.765
REMARK  Name = 11633167
REMARK  7 active torsions:
REMARK  status: ('A' for Active; 'I' for Inactive)
REMARK    1  A    between atoms: C_1  and  C_8
REMARK    2  A    between atoms: C_2  and  C_25
REMARK    3  A    between atoms: C_4  and  O_17
REMARK    4  A    between atoms: O_17  and  C_18
REMARK    5  A    between atoms: C_18  and  C_20
REMARK    6  A    between atoms: C_25  and  N_26
REMARK    7  A    between atoms: N_26  and  C_29
REMARK                            x       y       z     vdW  Elec       q    Type
REMARK                         _______ _______ _______ _____ _____    ______ ____
ROOT
ATOM      1  C   UNL     1      35.614 -20.143 -19.243  0.00  0.00    -0.000 C 
ATOM      2  C   UNL     1      34.498 -21.674 -17.745  0.00  0.00    +0.031 C 
ATOM      3  C   UNL     1      34.466 -20.837 -18.861  0.00  0.00    +0.000 C 
ATOM      4  C   UNL     1      35.676 -21.815 -17.012  0.00  0.00    +0.137 C 
ATOM      5  C   UNL     1      36.792 -20.283 -18.511  0.00  0.00    +0.003 C 
ATOM      6  C   UNL     1      36.823 -21.121 -17.395  0.00  0.00    +0.037 C 
ENDROOT
BRANCH   1   8
ATOM      7  N   UNL     1      33.711 -18.494 -23.523  0.00  0.00    -0.312 N 
ATOM      8  C   UNL     1      35.582 -19.274 -20.401  0.00  0.00    +0.001 C 
ATOM      9  C   UNL     1      34.571 -18.571 -22.452  0.00  0.00    +0.048 C 
ATOM     10  C   UNL     1      35.541 -17.581 -22.632  0.00  0.00    +0.015 C 
ATOM     11  C   UNL     1      34.565 -19.431 -21.348  0.00  0.00    +0.015 C 
ATOM     12  C   UNL     1      36.562 -18.296 -20.554  0.00  0.00    +0.000 C 
ATOM     13  C   UNL     1      36.555 -17.443 -21.663  0.00  0.00    +0.001 C 
ATOM     14  C   UNL     1      35.231 -16.909 -23.846  0.00  0.00    +0.017 C 
ATOM     15  C   UNL     1      34.102 -17.493 -24.372  0.00  0.00    +0.062 C 
ATOM     16  H   UNL     1      32.928 -19.075 -23.661  0.00  0.00    +0.152 HD
ENDBRANCH   1   8
BRANCH   4  17
ATOM     17  O   UNL     1      35.724 -22.627 -15.920  0.00  0.00    -0.469 OA
BRANCH  17  18
ATOM     18  C   UNL     1      36.790 -22.411 -14.998  0.00  0.00    +0.251 C 
BRANCH  18  20
ATOM     19  N   UNL     1      36.606 -24.824 -14.924  0.00  0.00    -0.244 NA
ATOM     20  C   UNL     1      37.278 -23.737 -14.493  0.00  0.00    +0.103 C 
ATOM     21  C   UNL     1      38.360 -23.773 -13.636  0.00  0.00    +0.018 C 
ATOM     22  C   UNL     1      38.787 -25.018 -13.187  0.00  0.00    +0.003 C 
ATOM     23  C   UNL     1      37.049 -26.016 -14.467  0.00  0.00    +0.099 C 
ATOM     24  C   UNL     1      38.124 -26.166 -13.606  0.00  0.00    +0.021 C 
ENDBRANCH  18  20
ENDBRANCH  17  18
ENDBRANCH   4  17
BRANCH   2  25
ATOM     25  C   UNL     1      33.261 -22.410 -17.350  0.00  0.00    +0.117 C 
BRANCH  25  26
ATOM     26  N   UNL     1      32.947 -22.246 -15.930  0.00  0.00    -0.327 N 
ATOM     27  H   UNL     1      33.415 -21.545 -15.423  0.00  0.00    +0.147 HD
BRANCH  26  29
ATOM     28  N   UNL     1      31.495 -24.730 -13.597  0.00  0.00    -0.228 NA
ATOM     29  C   UNL     1      32.026 -23.026 -15.270  0.00  0.00    +0.077 C 
ATOM     30  C   UNL     1      32.369 -23.946 -14.267  0.00  0.00    +0.139 C 
ATOM     31  C   UNL     1      30.655 -22.940 -15.574  0.00  0.00    +0.019 C 
ATOM     32  C   UNL     1      29.725 -23.729 -14.906  0.00  0.00    +0.022 C 
ATOM     33  C   UNL     1      30.192 -24.600 -13.935  0.00  0.00    +0.100 C 
ATOM     34  N   UNL     1      33.743 -24.060 -13.936  0.00  0.00    -0.342 N 
ATOM     35  H   UNL     1      34.030 -24.692 -13.238  0.00  0.00    +0.144 HD
ATOM     36  H   UNL     1      34.410 -23.505 -14.403  0.00  0.00    +0.144 HD
ENDBRANCH  26  29
ENDBRANCH  25  26
ENDBRANCH   2  25
TORSDOF 7
ENDMDL
MODEL 3
REMARK VINA RESULT:     -12.6      1.463      4.921
REMARK  Name = 11633167
REMARK  7 active torsions:
REMARK  status: ('A' for Active; 'I' for Inactive)
REMARK    1  A    between atoms: C_1  and  C_8
REMARK    2  A    between atoms: C_2  and  C_25
REMARK    3  A    between atoms: C_4  and  O_17
REMARK    4  A    between atoms: O_17  and  C_18
REMARK    5  A    between atoms: C_18  and  C_20
REMARK    6  A    between atoms: C_25  and  N_26
REMARK    7  A    between atoms: N_26  and  C_29
REMARK                            x       y       z     vdW  Elec       q    Type
REMARK                         _______ _______ _______ _____ _____    ______ ____
ROOT
ATOM      1  C   UNL     1      35.371 -19.846 -19.568  0.00  0.00    -0.000 C 
ATOM      2  C   UNL     1      34.338 -21.424 -18.061  0.00  0.00    +0.031 C 
ATOM      3  C   UNL     1      34.238 -20.527 -19.125  0.00  0.00    +0.000 C 
ATOM      4  C   UNL     1      35.568 -21.638 -17.442  0.00  0.00    +0.137 C 
ATOM      5  C   UNL     1      36.602 -20.060 -18.950  0.00  0.00    +0.003 C 
ATOM      6  C   UNL     1      36.701 -20.957 -17.886  0.00  0.00    +0.037 C 
ENDROOT
BRANCH   1   8
ATOM      7  N   UNL     1      35.399 -15.308 -21.586  0.00  0.00    -0.312 N 
ATOM      8  C   UNL     1      35.269 -18.915 -20.673  0.00  0.00    +0.001 C 
ATOM      9  C   UNL     1      35.305 -16.680 -21.525  0.00  0.00    +0.048 C 
ATOM     10  C   UNL     1      35.069 -17.134 -22.825  0.00  0.00    +0.015 C 
ATOM     11  C   UNL     1      35.410 -17.546 -20.430  0.00  0.00    +0.015 C 
ATOM     12  C   UNL     1      35.034 -19.396 -21.958  0.00  0.00    +0.000 C 
ATOM     13  C   UNL     1      34.930 -18.519 -23.044  0.00  0.00    +0.001 C 
ATOM     14  C   UNL     1      35.026 -15.988 -23.667  0.00  0.00    +0.017 C 
ATOM     15  C   UNL     1      35.231 -14.880 -22.876  0.00  0.00    +0.062 C 
ATOM     16  H   UNL     1      35.563 -14.719 -20.814  0.00  0.00    +0.152 HD
ENDBRANCH   1   8
BRANCH   4  17
ATOM     17  O   UNL     1      35.683 -22.510 -16.401  0.00  0.00    -0.469 OA
BRANCH  17  18
ATOM     18  C   UNL     1      36.639 -22.193 -15.392  0.00  0.00    +0.251 C 
BRANCH  18  20
ATOM     19  N   UNL     1      36.418 -24.584 -15.076  0.00  0.00    -0.244 NA
ATOM     20  C   UNL     1      37.048 -23.455 -14.691  0.00  0.00    +0.103 C 
ATOM     21  C   UNL     1      38.024 -23.396 -13.715  0.00  0.00    +0.018 C 
ATOM     22  C   UNL     1      38.379 -24.583 -13.086  0.00  0.00    +0.003 C 
ATOM     23  C   UNL     1      36.790 -25.718 -14.442  0.00  0.00    +0.099 C 
ATOM     24  C   UNL     1      37.756 -25.771 -13.450  0.00  0.00    +0.021 C 
ENDBRANCH  18  20
ENDBRANCH  17  18
ENDBRANCH   4  17
BRANCH   2  25
ATOM     25  C   UNL     1      33.115 -22.146 -17.598  0.00  0.00    +0.117 C 
BRANCH  25  26
ATOM     26  N   UNL     1      32.904 -22.011 -16.156  0.00  0.00    -0.327 N 
ATOM     27  H   UNL     1      33.467 -21.378 -15.655  0.00  0.00    +0.147 HD
BRANCH  26  29
ATOM     28  N   UNL     1      31.359 -24.348 -13.733  0.00  0.00    -0.228 NA
ATOM     29  C   UNL     1      31.954 -22.729 -15.467  0.00  0.00    +0.077 C 
ATOM     30  C   UNL     1      32.262 -23.625 -14.432  0.00  0.00    +0.139 C 
ATOM     31  C   UNL     1      30.587 -22.599 -15.773  0.00  0.00    +0.019 C 
ATOM     32  C   UNL     1      29.627 -23.325 -15.075  0.00  0.00    +0.022 C 
ATOM     33  C   UNL     1      30.062 -24.179 -14.073  0.00  0.00    +0.100 C 
ATOM     34  N   UNL     1      33.631 -23.782 -14.098  0.00  0.00    -0.342 N 
ATOM     35  H   UNL     1      33.895 -24.400 -13.379  0.00  0.00    +0.144 HD
ATOM     36  H   UNL     1      34.319 -23.272 -14.586  0.00  0.00    +0.144 HD
ENDBRANCH  26  29
ENDBRANCH  25  26
ENDBRANCH   2  25
TORSDOF 7
ENDMDL
MODEL 4
REMARK VINA RESULT:     -12.4      2.463      7.460
REMARK  Name = 11633167
REMARK  7 active torsions:
REMARK  status: ('A' for Active; 'I' for Inactive)
REMARK    1  A    between atoms: C_1  and  C_8
REMARK    2  A    between atoms: C_2  and  C_25
REMARK    3  A    between atoms: C_4  and  O_17
REMARK    4  A    between atoms: O_17  and  C_18
REMARK    5  A    between atoms: C_18  and  C_20
REMARK    6  A    between atoms: C_25  and  N_26
REMARK    7  A    between atoms: N_26  and  C_29
REMARK                            x       y       z     vdW  Elec       q    Type
REMARK                         _______ _______ _______ _____ _____    ______ ____
ROOT
ATOM      1  C   UNL     1      34.731 -23.481 -14.010  0.00  0.00    -0.000 C 
ATOM      2  C   UNL     1      33.105 -22.593 -15.558  0.00  0.00    +0.031 C 
ATOM      3  C   UNL     1      34.410 -23.000 -15.279  0.00  0.00    +0.000 C 
ATOM      4  C   UNL     1      32.124 -22.667 -14.570  0.00  0.00    +0.137 C 
ATOM      5  C   UNL     1      33.752 -23.555 -13.021  0.00  0.00    +0.003 C 
ATOM      6  C   UNL     1      32.447 -23.149 -13.302  0.00  0.00    +0.037 C 
ENDROOT
BRANCH   1   8
ATOM      7  N   UNL     1      39.546 -24.058 -15.083  0.00  0.00    -0.312 N 
ATOM      8  C   UNL     1      36.085 -23.903 -13.719  0.00  0.00    +0.001 C 
ATOM      9  C   UNL     1      38.382 -24.125 -14.352  0.00  0.00    +0.048 C 
ATOM     10  C   UNL     1      38.697 -24.728 -13.132  0.00  0.00    +0.015 C 
ATOM     11  C   UNL     1      37.087 -23.703 -14.673  0.00  0.00    +0.015 C 
ATOM     12  C   UNL     1      36.370 -24.501 -12.494  0.00  0.00    +0.000 C 
ATOM     13  C   UNL     1      37.670 -24.920 -12.185  0.00  0.00    +0.001 C 
ATOM     14  C   UNL     1      40.089 -25.018 -13.156  0.00  0.00    +0.017 C 
ATOM     15  C   UNL     1      40.584 -24.596 -14.369  0.00  0.00    +0.062 C 
ATOM     16  H   UNL     1      39.623 -23.679 -15.988  0.00  0.00    +0.152 HD
ENDBRANCH   1   8
BRANCH   4  17
ATOM     17  O   UNL     1      30.845 -22.274 -14.826  0.00  0.00    -0.469 OA
BRANCH  17  18
ATOM     18  C   UNL     1      29.976 -23.238 -15.416  0.00  0.00    +0.251 C 
BRANCH  18  20
ATOM     19  N   UNL     1      28.356 -22.574 -17.088  0.00  0.00    -0.244 NA
ATOM     20  C   UNL     1      28.681 -22.573 -15.779  0.00  0.00    +0.103 C 
ATOM     21  C   UNL     1      27.911 -22.010 -14.780  0.00  0.00    +0.018 C 
ATOM     22  C   UNL     1      26.718 -21.402 -15.151  0.00  0.00    +0.003 C 
ATOM     23  C   UNL     1      27.189 -21.974 -17.410  0.00  0.00    +0.099 C 
ATOM     24  C   UNL     1      26.342 -21.379 -16.489  0.00  0.00    +0.021 C 
ENDBRANCH  18  20
ENDBRANCH  17  18
ENDBRANCH   4  17
BRANCH   2  25
ATOM     25  C   UNL     1      32.777 -22.080 -16.921  0.00  0.00    +0.117 C 
BRANCH  25  26
ATOM     26  N   UNL     1      33.913 -22.171 -17.838  0.00  0.00    -0.327 N 
ATOM     27  H   UNL     1      34.425 -23.012 -17.870  0.00  0.00    +0.147 HD
BRANCH  26  29
ATOM     28  N   UNL     1      36.028 -19.616 -19.487  0.00  0.00    -0.228 NA
ATOM     29  C   UNL     1      34.302 -21.137 -18.658  0.00  0.00    +0.077 C 
ATOM     30  C   UNL     1      35.609 -20.629 -18.696  0.00  0.00    +0.139 C 
ATOM     31  C   UNL     1      33.382 -20.519 -19.525  0.00  0.00    +0.019 C 
ATOM     32  C   UNL     1      33.775 -19.473 -20.355  0.00  0.00    +0.022 C 
ATOM     33  C   UNL     1      35.098 -19.063 -20.297  0.00  0.00    +0.100 C 
ATOM     34  N   UNL     1      36.561 -21.229 -17.834  0.00  0.00    -0.342 N 
ATOM     35  H   UNL     1      37.491 -20.905 -17.827  0.00  0.00    +0.144 HD
ATOM     36  H   UNL     1      36.293 -21.970 -17.243  0.00  0.00    +0.144 HD
ENDBRANCH  26  29
ENDBRANCH  25  26
ENDBRANCH   2  25
TORSDOF 7
ENDMDL
MODEL 5
REMARK VINA RESULT:     -12.2      1.544      2.397
REMARK  Name = 11633167
REMARK  7 active torsions:
REMARK  status: ('A' for Active; 'I' for Inactive)
REMARK    1  A    between atoms: C_1  and  C_8
REMARK    2  A    between atoms: C_2  and  C_25
REMARK    3  A    between atoms: C_4  and  O_17
REMARK    4  A    between atoms: O_17  and  C_18
REMARK    5  A    between atoms: C_18  and  C_20
REMARK    6  A    between atoms: C_25  and  N_26
REMARK    7  A    between atoms: N_26  and  C_29
REMARK                            x       y       z     vdW  Elec       q    Type
REMARK                         _______ _______ _______ _____ _____    ______ ____
ROOT
ATOM      1  C   UNL     1      34.847 -19.546 -19.921  0.00  0.00    -0.000 C 
ATOM      2  C   UNL     1      35.890 -20.924 -18.234  0.00  0.00    +0.031 C 
ATOM      3  C   UNL     1      35.989 -19.955 -19.233  0.00  0.00    +0.000 C 
ATOM      4  C   UNL     1      34.650 -21.481 -17.923  0.00  0.00    +0.137 C 
ATOM      5  C   UNL     1      33.607 -20.102 -19.611  0.00  0.00    +0.003 C 
ATOM      6  C   UNL     1      33.508 -21.070 -18.610  0.00  0.00    +0.037 C 
ENDROOT
BRANCH   1   8
ATOM      7  N   UNL     1      34.100 -17.782 -24.503  0.00  0.00    -0.312 N 
ATOM      8  C   UNL     1      34.949 -18.541 -20.959  0.00  0.00    +0.001 C 
ATOM      9  C   UNL     1      34.529 -17.805 -23.195  0.00  0.00    +0.048 C 
ATOM     10  C   UNL     1      35.159 -16.582 -22.949  0.00  0.00    +0.015 C 
ATOM     11  C   UNL     1      34.409 -18.802 -22.221  0.00  0.00    +0.015 C 
ATOM     12  C   UNL     1      35.583 -17.331 -20.684  0.00  0.00    +0.000 C 
ATOM     13  C   UNL     1      35.696 -16.342 -21.668  0.00  0.00    +0.001 C 
ATOM     14  C   UNL     1      35.091 -15.827 -24.153  0.00  0.00    +0.017 C 
ATOM     15  C   UNL     1      34.435 -16.592 -25.091  0.00  0.00    +0.062 C 
ATOM     16  H   UNL     1      33.621 -18.516 -24.952  0.00  0.00    +0.152 HD
ENDBRANCH   1   8
BRANCH   4  17
ATOM     17  O   UNL     1      34.535 -22.427 -16.950  0.00  0.00    -0.469 OA
BRANCH  17  18
ATOM     18  C   UNL     1      33.399 -23.287 -17.012  0.00  0.00    +0.251 C 
BRANCH  18  20
ATOM     19  N   UNL     1      33.061 -23.674 -14.646  0.00  0.00    -0.244 NA
ATOM     20  C   UNL     1      32.579 -23.105 -15.769  0.00  0.00    +0.103 C 
ATOM     21  C   UNL     1      31.404 -22.382 -15.840  0.00  0.00    +0.018 C 
ATOM     22  C   UNL     1      30.667 -22.232 -14.671  0.00  0.00    +0.003 C 
ATOM     23  C   UNL     1      32.318 -23.507 -13.530  0.00  0.00    +0.099 C 
ATOM     24  C   UNL     1      31.126 -22.802 -13.489  0.00  0.00    +0.021 C 
ENDBRANCH  18  20
ENDBRANCH  17  18
ENDBRANCH   4  17
BRANCH   2  25
ATOM     25  C   UNL     1      37.122 -21.351 -17.507  0.00  0.00    +0.117 C 
BRANCH  25  26
ATOM     26  N   UNL     1      36.991 -21.203 -16.057  0.00  0.00    -0.327 N 
ATOM     27  H   UNL     1      36.624 -20.362 -15.701  0.00  0.00    +0.147 HD
BRANCH  26  29
ATOM     28  N   UNL     1      36.876 -23.557 -13.199  0.00  0.00    -0.228 NA
ATOM     29  C   UNL     1      37.358 -22.186 -15.166  0.00  0.00    +0.077 C 
ATOM     30  C   UNL     1      36.551 -22.598 -14.095  0.00  0.00    +0.139 C 
ATOM     31  C   UNL     1      38.594 -22.845 -15.287  0.00  0.00    +0.019 C 
ATOM     32  C   UNL     1      38.964 -23.838 -14.385  0.00  0.00    +0.022 C 
ATOM     33  C   UNL     1      38.077 -24.154 -13.369  0.00  0.00    +0.100 C 
ATOM     34  N   UNL     1      35.298 -21.953 -13.943  0.00  0.00    -0.342 N 
ATOM     35  H   UNL     1      34.698 -22.210 -13.206  0.00  0.00    +0.144 HD
ATOM     36  H   UNL     1      35.026 -21.248 -14.576  0.00  0.00    +0.144 HD
ENDBRANCH  26  29
ENDBRANCH  25  26
ENDBRANCH   2  25
TORSDOF 7
ENDMDL
MODEL 6
REMARK VINA RESULT:     -12.1      1.588      5.821
REMARK  Name = 11633167
REMARK  7 active torsions:
REMARK  status: ('A' for Active; 'I' for Inactive)
REMARK    1  A    between atoms: C_1  and  C_8
REMARK    2  A    between atoms: C_2  and  C_25
REMARK    3  A    between atoms: C_4  and  O_17
REMARK    4  A    between atoms: O_17  and  C_18
REMARK    5  A    between atoms: C_18  and  C_20
REMARK    6  A    between atoms: C_25  and  N_26
REMARK    7  A    between atoms: N_26  and  C_29
REMARK                            x       y       z     vdW  Elec       q    Type
REMARK                         _______ _______ _______ _____ _____    ______ ____
ROOT
ATOM      1  C   UNL     1      35.396 -21.354 -17.454  0.00  0.00    -0.000 C 
ATOM      2  C   UNL     1      34.473 -22.889 -15.835  0.00  0.00    +0.031 C 
ATOM      3  C   UNL     1      34.326 -22.118 -16.988  0.00  0.00    +0.000 C 
ATOM      4  C   UNL     1      35.687 -22.896 -15.149  0.00  0.00    +0.137 C 
ATOM      5  C   UNL     1      36.610 -21.360 -16.770  0.00  0.00    +0.003 C 
ATOM      6  C   UNL     1      36.756 -22.132 -15.617  0.00  0.00    +0.037 C 
ENDROOT
BRANCH   1   8
ATOM      7  N   UNL     1      37.048 -18.322 -21.024  0.00  0.00    -0.312 N 
ATOM      8  C   UNL     1      35.245 -20.553 -18.651  0.00  0.00    +0.001 C 
ATOM      9  C   UNL     1      36.159 -19.096 -20.314  0.00  0.00    +0.048 C 
ATOM     10  C   UNL     1      34.927 -19.011 -20.968  0.00  0.00    +0.015 C 
ATOM     11  C   UNL     1      36.348 -19.858 -19.155  0.00  0.00    +0.015 C 
ATOM     12  C   UNL     1      34.005 -20.487 -19.282  0.00  0.00    +0.000 C 
ATOM     13  C   UNL     1      33.830 -19.720 -20.440  0.00  0.00    +0.001 C 
ATOM     14  C   UNL     1      35.110 -18.161 -22.094  0.00  0.00    +0.017 C 
ATOM     15  C   UNL     1      36.424 -17.752 -22.101  0.00  0.00    +0.062 C 
ATOM     16  H   UNL     1      37.997 -18.195 -20.791  0.00  0.00    +0.152 HD
ENDBRANCH   1   8
BRANCH   4  17
ATOM     17  O   UNL     1      35.847 -23.643 -14.022  0.00  0.00    -0.469 OA
BRANCH  17  18
ATOM     18  C   UNL     1      36.372 -24.959 -14.185  0.00  0.00    +0.251 C 
BRANCH  18  20
ATOM     19  N   UNL     1      38.608 -25.736 -14.690  0.00  0.00    -0.244 NA
ATOM     20  C   UNL     1      37.848 -24.934 -13.918  0.00  0.00    +0.103 C 
ATOM     21  C   UNL     1      38.337 -24.111 -12.922  0.00  0.00    +0.018 C 
ATOM     22  C   UNL     1      39.709 -24.112 -12.700  0.00  0.00    +0.003 C 
ATOM     23  C   UNL     1      39.937 -25.711 -14.445  0.00  0.00    +0.099 C 
ATOM     24  C   UNL     1      40.532 -24.924 -13.472  0.00  0.00    +0.021 C 
ENDBRANCH  18  20
ENDBRANCH  17  18
ENDBRANCH   4  17
BRANCH   2  25
ATOM     25  C   UNL     1      33.318 -23.701 -15.348  0.00  0.00    +0.117 C 
BRANCH  25  26
ATOM     26  N   UNL     1      32.329 -22.891 -14.638  0.00  0.00    -0.327 N 
ATOM     27  H   UNL     1      32.642 -22.275 -13.936  0.00  0.00    +0.147 HD
BRANCH  26  29
ATOM     28  N   UNL     1      28.757 -23.846 -14.423  0.00  0.00    -0.228 NA
ATOM     29  C   UNL     1      30.980 -22.948 -14.903  0.00  0.00    +0.077 C 
ATOM     30  C   UNL     1      30.086 -23.762 -14.192  0.00  0.00    +0.139 C 
ATOM     31  C   UNL     1      30.413 -22.173 -15.931  0.00  0.00    +0.019 C 
ATOM     32  C   UNL     1      29.049 -22.232 -16.199  0.00  0.00    +0.022 C 
ATOM     33  C   UNL     1      28.272 -23.077 -15.423  0.00  0.00    +0.100 C 
ATOM     34  N   UNL     1      30.625 -24.558 -13.149  0.00  0.00    -0.342 N 
ATOM     35  H   UNL     1      30.035 -25.144 -12.623  0.00  0.00    +0.144 HD
ATOM     36  H   UNL     1      31.589 -24.523 -12.951  0.00  0.00    +0.144 HD
ENDBRANCH  26  29
ENDBRANCH  25  26
ENDBRANCH   2  25
TORSDOF 7
ENDMDL
MODEL 7
REMARK VINA RESULT:     -11.4      1.872      7.750
REMARK  Name = 11633167
REMARK  7 active torsions:
REMARK  status: ('A' for Active; 'I' for Inactive)
REMARK    1  A    between atoms: C_1  and  C_8
REMARK    2  A    between atoms: C_2  and  C_25
REMARK    3  A    between atoms: C_4  and  O_17
REMARK    4  A    between atoms: O_17  and  C_18
REMARK    5  A    between atoms: C_18  and  C_20
REMARK    6  A    between atoms: C_25  and  N_26
REMARK    7  A    between atoms: N_26  and  C_29
REMARK                            x       y       z     vdW  Elec       q    Type
REMARK                         _______ _______ _______ _____ _____    ______ ____
ROOT
ATOM      1  C   UNL     1      33.751 -22.720 -14.982  0.00  0.00    -0.000 C 
ATOM      2  C   UNL     1      35.767 -21.960 -16.074  0.00  0.00    +0.031 C 
ATOM      3  C   UNL     1      34.399 -22.234 -16.117  0.00  0.00    +0.000 C 
ATOM      4  C   UNL     1      36.483 -22.173 -14.897  0.00  0.00    +0.137 C 
ATOM      5  C   UNL     1      34.466 -22.933 -13.805  0.00  0.00    +0.003 C 
ATOM      6  C   UNL     1      35.834 -22.658 -13.762  0.00  0.00    +0.037 C 
ENDROOT
BRANCH   1   8
ATOM      7  N   UNL     1      29.128 -22.072 -16.678  0.00  0.00    -0.312 N 
ATOM      8  C   UNL     1      32.332 -23.005 -15.027  0.00  0.00    +0.001 C 
ATOM      9  C   UNL     1      30.151 -22.600 -15.924  0.00  0.00    +0.048 C 
ATOM     10  C   UNL     1      29.590 -23.574 -15.094  0.00  0.00    +0.015 C 
ATOM     11  C   UNL     1      31.517 -22.294 -15.913  0.00  0.00    +0.015 C 
ATOM     12  C   UNL     1      31.800 -23.981 -14.188  0.00  0.00    +0.000 C 
ATOM     13  C   UNL     1      30.432 -24.277 -14.209  0.00  0.00    +0.001 C 
ATOM     14  C   UNL     1      28.197 -23.612 -15.378  0.00  0.00    +0.017 C 
ATOM     15  C   UNL     1      27.942 -22.677 -16.355  0.00  0.00    +0.062 C 
ATOM     16  H   UNL     1      29.232 -21.362 -17.352  0.00  0.00    +0.152 HD
ENDBRANCH   1   8
BRANCH   4  17
ATOM     17  O   UNL     1      37.819 -21.911 -14.837  0.00  0.00    -0.469 OA
BRANCH  17  18
ATOM     18  C   UNL     1      38.704 -23.021 -14.971  0.00  0.00    +0.251 C 
BRANCH  18  20
ATOM     19  N   UNL     1      38.591 -23.618 -12.627  0.00  0.00    -0.244 NA
ATOM     20  C   UNL     1      38.398 -24.025 -13.898  0.00  0.00    +0.103 C 
ATOM     21  C   UNL     1      37.945 -25.278 -14.260  0.00  0.00    +0.018 C 
ATOM     22  C   UNL     1      37.671 -26.184 -13.242  0.00  0.00    +0.003 C 
ATOM     23  C   UNL     1      38.314 -24.525 -11.665  0.00  0.00    +0.099 C 
ATOM     24  C   UNL     1      37.856 -25.808 -11.917  0.00  0.00    +0.021 C 
ENDBRANCH  18  20
ENDBRANCH  17  18
ENDBRANCH   4  17
BRANCH   2  25
ATOM     25  C   UNL     1      36.446 -21.441 -17.297  0.00  0.00    +0.117 C 
BRANCH  25  26
ATOM     26  N   UNL     1      35.549 -21.390 -18.452  0.00  0.00    -0.327 N 
ATOM     27  H   UNL     1      34.952 -22.155 -18.618  0.00  0.00    +0.147 HD
BRANCH  26  29
ATOM     28  N   UNL     1      34.225 -18.810 -20.757  0.00  0.00    -0.228 NA
ATOM     29  C   UNL     1      35.500 -20.323 -19.318  0.00  0.00    +0.077 C 
ATOM     30  C   UNL     1      34.313 -19.853 -19.901  0.00  0.00    +0.139 C 
ATOM     31  C   UNL     1      36.670 -19.627 -19.674  0.00  0.00    +0.019 C 
ATOM     32  C   UNL     1      36.620 -18.548 -20.551  0.00  0.00    +0.022 C 
ATOM     33  C   UNL     1      35.383 -18.183 -21.059  0.00  0.00    +0.100 C 
ATOM     34  N   UNL     1      33.115 -20.532 -19.565  0.00  0.00    -0.342 N 
ATOM     35  H   UNL     1      32.258 -20.238 -19.950  0.00  0.00    +0.144 HD
ATOM     36  H   UNL     1      33.140 -21.298 -18.945  0.00  0.00    +0.144 HD
ENDBRANCH  26  29
ENDBRANCH  25  26
ENDBRANCH   2  25
TORSDOF 7
ENDMDL
MODEL 8
REMARK VINA RESULT:     -11.3      1.592      2.417
REMARK  Name = 11633167
REMARK  7 active torsions:
REMARK  status: ('A' for Active; 'I' for Inactive)
REMARK    1  A    between atoms: C_1  and  C_8
REMARK    2  A    between atoms: C_2  and  C_25
REMARK    3  A    between atoms: C_4  and  O_17
REMARK    4  A    between atoms: O_17  and  C_18
REMARK    5  A    between atoms: C_18  and  C_20
REMARK    6  A    between atoms: C_25  and  N_26
REMARK    7  A    between atoms: N_26  and  C_29
REMARK                            x       y       z     vdW  Elec       q    Type
REMARK                         _______ _______ _______ _____ _____    ______ ____
ROOT
ATOM      1  C   UNL     1      34.187 -21.804 -17.219  0.00  0.00    -0.000 C 
ATOM      2  C   UNL     1      34.264 -23.107 -15.188  0.00  0.00    +0.031 C 
ATOM      3  C   UNL     1      34.917 -22.361 -16.169  0.00  0.00    +0.000 C 
ATOM      4  C   UNL     1      32.885 -23.296 -15.257  0.00  0.00    +0.137 C 
ATOM      5  C   UNL     1      32.808 -21.993 -17.289  0.00  0.00    +0.003 C 
ATOM      6  C   UNL     1      32.155 -22.738 -16.307  0.00  0.00    +0.037 C 
ENDROOT
BRANCH   1   8
ATOM      7  N   UNL     1      34.333 -18.946 -21.278  0.00  0.00    -0.312 N 
ATOM      8  C   UNL     1      34.863 -21.030 -18.239  0.00  0.00    +0.001 C 
ATOM      9  C   UNL     1      34.803 -19.661 -20.200  0.00  0.00    +0.048 C 
ATOM     10  C   UNL     1      36.195 -19.538 -20.200  0.00  0.00    +0.015 C 
ATOM     11  C   UNL     1      34.110 -20.399 -19.234  0.00  0.00    +0.015 C 
ATOM     12  C   UNL     1      36.252 -20.925 -18.214  0.00  0.00    +0.000 C 
ATOM     13  C   UNL     1      36.932 -20.183 -19.187  0.00  0.00    +0.001 C 
ATOM     14  C   UNL     1      36.542 -18.724 -21.314  0.00  0.00    +0.017 C 
ATOM     15  C   UNL     1      35.377 -18.376 -21.958  0.00  0.00    +0.062 C 
ATOM     16  H   UNL     1      33.384 -18.857 -21.526  0.00  0.00    +0.152 HD
ENDBRANCH   1   8
BRANCH   4  17
ATOM     17  O   UNL     1      32.232 -24.021 -14.307  0.00  0.00    -0.469 OA
BRANCH  17  18
ATOM     18  C   UNL     1      31.228 -23.347 -13.551  0.00  0.00    +0.251 C 
BRANCH  18  20
ATOM     19  N   UNL     1      29.501 -21.879 -14.400  0.00  0.00    -0.244 NA
ATOM     20  C   UNL     1      30.028 -23.119 -14.423  0.00  0.00    +0.103 C 
ATOM     21  C   UNL     1      29.542 -24.165 -15.182  0.00  0.00    +0.018 C 
ATOM     22  C   UNL     1      28.429 -23.921 -15.979  0.00  0.00    +0.003 C 
ATOM     23  C   UNL     1      28.420 -21.679 -15.187  0.00  0.00    +0.099 C 
ATOM     24  C   UNL     1      27.851 -22.656 -15.988  0.00  0.00    +0.021 C 
ENDBRANCH  18  20
ENDBRANCH  17  18
ENDBRANCH   4  17
BRANCH   2  25
ATOM     25  C   UNL     1      35.059 -23.696 -14.070  0.00  0.00    +0.117 C 
BRANCH  25  26
ATOM     26  N   UNL     1      36.320 -22.987 -13.850  0.00  0.00    -0.327 N 
ATOM     27  H   UNL     1      36.299 -22.006 -13.767  0.00  0.00    +0.147 HD
BRANCH  26  29
ATOM     28  N   UNL     1      39.817 -23.980 -14.560  0.00  0.00    -0.228 NA
ATOM     29  C   UNL     1      37.535 -23.625 -13.756  0.00  0.00    +0.077 C 
ATOM     30  C   UNL     1      38.610 -23.373 -14.620  0.00  0.00    +0.139 C 
ATOM     31  C   UNL     1      37.767 -24.591 -12.759  0.00  0.00    +0.019 C 
ATOM     32  C   UNL     1      38.996 -25.237 -12.664  0.00  0.00    +0.022 C 
ATOM     33  C   UNL     1      39.979 -24.898 -13.581  0.00  0.00    +0.100 C 
ATOM     34  N   UNL     1      38.410 -22.406 -15.638  0.00  0.00    -0.342 N 
ATOM     35  H   UNL     1      39.137 -22.197 -16.267  0.00  0.00    +0.144 HD
ATOM     36  H   UNL     1      37.544 -21.944 -15.714  0.00  0.00    +0.144 HD
ENDBRANCH  26  29
ENDBRANCH  25  26
ENDBRANCH   2  25
TORSDOF 7
ENDMDL
MODEL 9
REMARK VINA RESULT:     -11.2      2.317      8.046
REMARK  Name = 11633167
REMARK  7 active torsions:
REMARK  status: ('A' for Active; 'I' for Inactive)
REMARK    1  A    between atoms: C_1  and  C_8
REMARK    2  A    between atoms: C_2  and  C_25
REMARK    3  A    between atoms: C_4  and  O_17
REMARK    4  A    between atoms: O_17  and  C_18
REMARK    5  A    between atoms: C_18  and  C_20
REMARK    6  A    between atoms: C_25  and  N_26
REMARK    7  A    between atoms: N_26  and  C_29
REMARK                            x       y       z     vdW  Elec       q    Type
REMARK                         _______ _______ _______ _____ _____    ______ ____
ROOT
ATOM      1  C   UNL     1      31.970 -22.723 -15.183  0.00  0.00    -0.000 C 
ATOM      2  C   UNL     1      34.155 -22.643 -16.208  0.00  0.00    +0.031 C 
ATOM      3  C   UNL     1      32.801 -22.306 -16.222  0.00  0.00    +0.000 C 
ATOM      4  C   UNL     1      34.675 -23.397 -15.157  0.00  0.00    +0.137 C 
ATOM      5  C   UNL     1      32.489 -23.477 -14.131  0.00  0.00    +0.003 C 
ATOM      6  C   UNL     1      33.843 -23.814 -14.118  0.00  0.00    +0.037 C 
ENDROOT
BRANCH   1   8
ATOM      7  N   UNL     1      27.595 -21.940 -17.399  0.00  0.00    -0.312 N 
ATOM      8  C   UNL     1      30.565 -22.374 -15.196  0.00  0.00    +0.001 C 
ATOM      9  C   UNL     1      28.514 -22.027 -16.378  0.00  0.00    +0.048 C 
ATOM     10  C   UNL     1      27.847 -21.695 -15.196  0.00  0.00    +0.015 C 
ATOM     11  C   UNL     1      29.870 -22.370 -16.409  0.00  0.00    +0.015 C 
ATOM     12  C   UNL     1      29.926 -22.048 -14.002  0.00  0.00    +0.000 C 
ATOM     13  C   UNL     1      28.569 -21.706 -13.985  0.00  0.00    +0.001 C 
ATOM     14  C   UNL     1      26.498 -21.409 -15.543  0.00  0.00    +0.017 C 
ATOM     15  C   UNL     1      26.373 -21.567 -16.905  0.00  0.00    +0.062 C 
ATOM     16  H   UNL     1      27.787 -22.120 -18.348  0.00  0.00    +0.152 HD
ENDBRANCH   1   8
BRANCH   4  17
ATOM     17  O   UNL     1      35.994 -23.736 -15.128  0.00  0.00    -0.469 OA
BRANCH  17  18
ATOM     18  C   UNL     1      36.830 -23.012 -14.227  0.00  0.00    +0.251 C 
BRANCH  18  20
ATOM     19  N   UNL     1      39.146 -23.417 -14.805  0.00  0.00    -0.244 NA
ATOM     20  C   UNL     1      38.106 -23.774 -14.023  0.00  0.00    +0.103 C 
ATOM     21  C   UNL     1      38.148 -24.774 -13.071  0.00  0.00    +0.018 C 
ATOM     22  C   UNL     1      39.345 -25.460 -12.908  0.00  0.00    +0.003 C 
ATOM     23  C   UNL     1      40.293 -24.106 -14.618  0.00  0.00    +0.099 C 
ATOM     24  C   UNL     1      40.444 -25.126 -13.692  0.00  0.00    +0.021 C 
ENDBRANCH  18  20
ENDBRANCH  17  18
ENDBRANCH   4  17
BRANCH   2  25
ATOM     25  C   UNL     1      35.031 -22.189 -17.328  0.00  0.00    +0.117 C 
BRANCH  25  26
ATOM     26  N   UNL     1      34.276 -21.523 -18.389  0.00  0.00    -0.327 N 
ATOM     27  H   UNL     1      33.341 -21.790 -18.539  0.00  0.00    +0.147 HD
BRANCH  26  29
ATOM     28  N   UNL     1      34.535 -18.763 -20.846  0.00  0.00    -0.228 NA
ATOM     29  C   UNL     1      34.813 -20.541 -19.189  0.00  0.00    +0.077 C 
ATOM     30  C   UNL     1      34.045 -19.736 -20.045  0.00  0.00    +0.139 C 
ATOM     31  C   UNL     1      36.196 -20.286 -19.191  0.00  0.00    +0.019 C 
ATOM     32  C   UNL     1      36.738 -19.292 -20.000  0.00  0.00    +0.022 C 
ATOM     33  C   UNL     1      35.871 -18.566 -20.802  0.00  0.00    +0.100 C 
ATOM     34  N   UNL     1      32.647 -19.967 -20.069  0.00  0.00    -0.342 N 
ATOM     35  H   UNL     1      32.069 -19.426 -20.655  0.00  0.00    +0.144 HD
ATOM     36  H   UNL     1      32.253 -20.668 -19.500  0.00  0.00    +0.144 HD
ENDBRANCH  26  29
ENDBRANCH  25  26
ENDBRANCH   2  25
TORSDOF 7
ENDMDL
