MODEL 1
REMARK VINA RESULT:     -11.6      0.000      0.000
REMARK  Name = 5496659
REMARK  9 active torsions:
REMARK  status: ('A' for Active; 'I' for Inactive)
REMARK    1  A    between atoms: C_1  and  N_4
REMARK    2  A    between atoms: C_1  and  C_20
REMARK    3  A    between atoms: C_5  and  C_7
REMARK    4  A    between atoms: C_10  and  C_15
REMARK    5  A    between atoms: C_20  and  C_22
REMARK    6  A    between atoms: C_20  and  C_25
REMARK    7  A    between atoms: C_22  and  O_23
REMARK    8  A    between atoms: C_25  and  C_26
REMARK    9  A    between atoms: C_29  and  C_34
REMARK                            x       y       z     vdW  Elec       q    Type
REMARK                         _______ _______ _______ _____ _____    ______ ____
ROOT
ATOM      1  C   UNL     1      33.488 -23.168 -15.436  0.00  0.00    +0.083 C 
ATOM      2  C   UNL     1      32.195 -22.861 -14.683  0.00  0.00    +0.022 C 
ENDROOT
BRANCH   1   4
ATOM      3  O   UNL     1      33.825 -23.663 -18.244  0.00  0.00    -0.270 OA
ATOM      4  N   UNL     1      33.712 -22.180 -16.465  0.00  0.00    -0.302 N 
ATOM      5  C   UNL     1      33.863 -22.518 -17.801  0.00  0.00    +0.246 C 
ATOM      6  H   UNL     1      33.759 -21.230 -16.209  0.00  0.00    +0.150 HD
BRANCH   5   7
ATOM      7  C   UNL     1      34.112 -21.388 -18.732  0.00  0.00    +0.053 C 
ATOM      8  C   UNL     1      33.039 -20.697 -19.293  0.00  0.00    +0.005 C 
ATOM      9  C   UNL     1      35.419 -21.019 -19.047  0.00  0.00    +0.005 C 
ATOM     10  C   UNL     1      34.580 -19.266 -20.482  0.00  0.00    +0.000 C 
ATOM     11  C   UNL     1      33.272 -19.636 -20.168  0.00  0.00    +0.000 C 
ATOM     12  C   UNL     1      35.654 -19.958 -19.921  0.00  0.00    +0.000 C 
BRANCH  10  15
ATOM     13  O   UNL     1      35.507 -15.081 -23.942  0.00  0.00    -0.163 OA
ATOM     14  N   UNL     1      35.293 -16.049 -23.142  0.00  0.00    -0.127 N 
ATOM     15  C   UNL     1      34.825 -18.167 -21.390  0.00  0.00    +0.003 C 
ATOM     16  C   UNL     1      34.604 -18.330 -22.754  0.00  0.00    +0.022 C 
ATOM     17  C   UNL     1      35.279 -16.947 -20.902  0.00  0.00    +0.022 C 
ATOM     18  C   UNL     1      34.842 -17.266 -23.617  0.00  0.00    +0.121 C 
ATOM     19  C   UNL     1      35.509 -15.898 -21.786  0.00  0.00    +0.121 C 
ENDBRANCH  10  15
ENDBRANCH   5   7
ENDBRANCH   1   4
BRANCH   1  20
ATOM     20  C   UNL     1      34.698 -23.321 -14.486  0.00  0.00    +0.121 C 
BRANCH  20  22
ATOM     21  O   UNL     1      35.915 -21.265 -13.999  0.00  0.00    -0.250 OA
ATOM     22  C   UNL     1      35.737 -22.230 -14.731  0.00  0.00    +0.319 C 
BRANCH  22  23
ATOM     23  O   UNL     1      36.423 -22.499 -15.880  0.00  0.00    -0.444 OA
ATOM     24  C   UNL     1      37.565 -21.671 -16.123  0.00  0.00    +0.256 C 
ENDBRANCH  22  23
ENDBRANCH  20  22
BRANCH  20  25
ATOM     25  C   UNL     1      35.358 -24.711 -14.608  0.00  0.00    +0.039 C 
BRANCH  25  26
ATOM     26  C   UNL     1      36.645 -24.818 -13.823  0.00  0.00    -0.021 C 
ATOM     27  C   UNL     1      37.835 -25.139 -14.476  0.00  0.00    -0.002 C 
ATOM     28  C   UNL     1      36.642 -24.600 -12.445  0.00  0.00    -0.004 C 
ATOM     29  C   UNL     1      39.022 -25.241 -13.750  0.00  0.00    +0.030 C 
ATOM     30  C   UNL     1      37.829 -24.701 -11.721  0.00  0.00    -0.000 C 
ATOM     31  C   UNL     1      39.019 -25.023 -12.373  0.00  0.00    +0.003 C 
BRANCH  29  34
ATOM     32  N   UNL     1      41.214 -26.406 -13.836  0.00  0.00    -0.343 N 
ATOM     33  N   UNL     1      40.507 -25.089 -15.634  0.00  0.00    -0.285 NA
ATOM     34  C   UNL     1      40.263 -25.577 -14.431  0.00  0.00    +0.117 C 
ATOM     35  H   UNL     1      42.047 -26.620 -14.315  0.00  0.00    +0.144 HD
ATOM     36  H   UNL     1      41.051 -26.776 -12.939  0.00  0.00    +0.144 HD
ATOM     37  H   UNL     1      41.347 -25.316 -16.096  0.00  0.00    +0.188 HD
ENDBRANCH  29  34
ENDBRANCH  25  26
ENDBRANCH  20  25
ENDBRANCH   1  20
TORSDOF 9
ENDMDL
MODEL 2
REMARK VINA RESULT:     -11.6      1.927      2.635
REMARK  Name = 5496659
REMARK  9 active torsions:
REMARK  status: ('A' for Active; 'I' for Inactive)
REMARK    1  A    between atoms: C_1  and  N_4
REMARK    2  A    between atoms: C_1  and  C_20
REMARK    3  A    between atoms: C_5  and  C_7
REMARK    4  A    between atoms: C_10  and  C_15
REMARK    5  A    between atoms: C_20  and  C_22
REMARK    6  A    between atoms: C_20  and  C_25
REMARK    7  A    between atoms: C_22  and  O_23
REMARK    8  A    between atoms: C_25  and  C_26
REMARK    9  A    between atoms: C_29  and  C_34
REMARK                            x       y       z     vdW  Elec       q    Type
REMARK                         _______ _______ _______ _____ _____    ______ ____
ROOT
ATOM      1  C   UNL     1      33.517 -23.234 -16.088  0.00  0.00    +0.083 C 
ATOM      2  C   UNL     1      32.103 -23.161 -15.514  0.00  0.00    +0.022 C 
ENDROOT
BRANCH   1   4
ATOM      3  O   UNL     1      34.072 -23.426 -18.898  0.00  0.00    -0.270 OA
ATOM      4  N   UNL     1      33.742 -22.137 -16.999  0.00  0.00    -0.302 N 
ATOM      5  C   UNL     1      34.005 -22.331 -18.347  0.00  0.00    +0.246 C 
ATOM      6  H   UNL     1      33.709 -21.216 -16.650  0.00  0.00    +0.150 HD
BRANCH   5   7
ATOM      7  C   UNL     1      34.239 -21.101 -19.145  0.00  0.00    +0.053 C 
ATOM      8  C   UNL     1      35.542 -20.682 -19.415  0.00  0.00    +0.005 C 
ATOM      9  C   UNL     1      33.157 -20.364 -19.625  0.00  0.00    +0.005 C 
ATOM     10  C   UNL     1      34.679 -18.789 -20.645  0.00  0.00    +0.000 C 
ATOM     11  C   UNL     1      35.762 -19.526 -20.164  0.00  0.00    +0.000 C 
ATOM     12  C   UNL     1      33.376 -19.209 -20.374  0.00  0.00    +0.000 C 
BRANCH  10  15
ATOM     13  O   UNL     1      35.545 -14.221 -23.598  0.00  0.00    -0.163 OA
ATOM     14  N   UNL     1      35.344 -15.277 -22.915  0.00  0.00    -0.127 N 
ATOM     15  C   UNL     1      34.906 -17.590 -21.421  0.00  0.00    +0.003 C 
ATOM     16  C   UNL     1      35.082 -16.369 -20.778  0.00  0.00    +0.022 C 
ATOM     17  C   UNL     1      34.948 -17.656 -22.809  0.00  0.00    +0.022 C 
ATOM     18  C   UNL     1      35.300 -15.223 -21.535  0.00  0.00    +0.121 C 
ATOM     19  C   UNL     1      35.168 -16.495 -23.543  0.00  0.00    +0.121 C 
ENDBRANCH  10  15
ENDBRANCH   5   7
ENDBRANCH   1   4
BRANCH   1  20
ATOM     20  C   UNL     1      34.595 -23.320 -14.983  0.00  0.00    +0.121 C 
BRANCH  20  22
ATOM     21  O   UNL     1      35.627 -21.197 -14.372  0.00  0.00    -0.250 OA
ATOM     22  C   UNL     1      35.602 -22.180 -15.102  0.00  0.00    +0.319 C 
BRANCH  22  23
ATOM     23  O   UNL     1      36.457 -22.428 -16.137  0.00  0.00    -0.444 OA
ATOM     24  C   UNL     1      37.449 -21.424 -16.369  0.00  0.00    +0.256 C 
ENDBRANCH  22  23
ENDBRANCH  20  22
BRANCH  20  25
ATOM     25  C   UNL     1      35.332 -24.675 -14.996  0.00  0.00    +0.039 C 
BRANCH  25  26
ATOM     26  C   UNL     1      36.227 -24.867 -13.794  0.00  0.00    -0.021 C 
ATOM     27  C   UNL     1      35.936 -24.213 -12.597  0.00  0.00    -0.002 C 
ATOM     28  C   UNL     1      37.346 -25.695 -13.882  0.00  0.00    -0.004 C 
ATOM     29  C   UNL     1      36.764 -24.388 -11.488  0.00  0.00    +0.030 C 
ATOM     30  C   UNL     1      38.173 -25.871 -12.773  0.00  0.00    -0.000 C 
ATOM     31  C   UNL     1      37.883 -25.216 -11.576  0.00  0.00    +0.003 C 
BRANCH  29  34
ATOM     32  N   UNL     1      37.088 -22.506  -9.900  0.00  0.00    -0.343 N 
ATOM     33  N   UNL     1      35.581 -24.222  -9.403  0.00  0.00    -0.285 NA
ATOM     34  C   UNL     1      36.462 -23.704 -10.240  0.00  0.00    +0.117 C 
ATOM     35  H   UNL     1      36.869 -22.061  -9.050  0.00  0.00    +0.144 HD
ATOM     36  H   UNL     1      37.750 -22.106 -10.509  0.00  0.00    +0.144 HD
ATOM     37  H   UNL     1      35.376 -23.761  -8.557  0.00  0.00    +0.188 HD
ENDBRANCH  29  34
ENDBRANCH  25  26
ENDBRANCH  20  25
ENDBRANCH   1  20
TORSDOF 9
ENDMDL
MODEL 3
REMARK VINA RESULT:     -11.4      1.661      2.593
REMARK  Name = 5496659
REMARK  9 active torsions:
REMARK  status: ('A' for Active; 'I' for Inactive)
REMARK    1  A    between atoms: C_1  and  N_4
REMARK    2  A    between atoms: C_1  and  C_20
REMARK    3  A    between atoms: C_5  and  C_7
REMARK    4  A    between atoms: C_10  and  C_15
REMARK    5  A    between atoms: C_20  and  C_22
REMARK    6  A    between atoms: C_20  and  C_25
REMARK    7  A    between atoms: C_22  and  O_23
REMARK    8  A    between atoms: C_25  and  C_26
REMARK    9  A    between atoms: C_29  and  C_34
REMARK                            x       y       z     vdW  Elec       q    Type
REMARK                         _______ _______ _______ _____ _____    ______ ____
ROOT
ATOM      1  C   UNL     1      32.284 -22.993 -15.639  0.00  0.00    +0.083 C 
ATOM      2  C   UNL     1      31.048 -22.487 -14.898  0.00  0.00    +0.022 C 
ENDROOT
BRANCH   1   4
ATOM      3  O   UNL     1      33.921 -23.525 -17.937  0.00  0.00    -0.270 OA
ATOM      4  N   UNL     1      32.680 -22.045 -16.654  0.00  0.00    -0.302 N 
ATOM      5  C   UNL     1      33.477 -22.398 -17.732  0.00  0.00    +0.246 C 
ATOM      6  H   UNL     1      32.373 -21.112 -16.577  0.00  0.00    +0.150 HD
BRANCH   5   7
ATOM      7  C   UNL     1      33.816 -21.302 -18.675  0.00  0.00    +0.053 C 
ATOM      8  C   UNL     1      32.799 -20.571 -19.290  0.00  0.00    +0.005 C 
ATOM      9  C   UNL     1      35.151 -21.003 -18.946  0.00  0.00    +0.005 C 
ATOM     10  C   UNL     1      34.454 -19.243 -20.446  0.00  0.00    +0.000 C 
ATOM     11  C   UNL     1      33.118 -19.542 -20.176  0.00  0.00    +0.000 C 
ATOM     12  C   UNL     1      35.470 -19.974 -19.831  0.00  0.00    +0.000 C 
BRANCH  10  15
ATOM     13  O   UNL     1      35.715 -15.183 -23.949  0.00  0.00    -0.163 OA
ATOM     14  N   UNL     1      35.424 -16.122 -23.140  0.00  0.00    -0.127 N 
ATOM     15  C   UNL     1      34.786 -18.177 -21.366  0.00  0.00    +0.003 C 
ATOM     16  C   UNL     1      34.598 -18.353 -22.733  0.00  0.00    +0.022 C 
ATOM     17  C   UNL     1      35.292 -16.974 -20.885  0.00  0.00    +0.022 C 
ATOM     18  C   UNL     1      34.920 -17.321 -23.607  0.00  0.00    +0.121 C 
ATOM     19  C   UNL     1      35.607 -15.957 -21.780  0.00  0.00    +0.121 C 
ENDBRANCH  10  15
ENDBRANCH   5   7
ENDBRANCH   1   4
BRANCH   1  20
ATOM     20  C   UNL     1      33.440 -23.349 -14.676  0.00  0.00    +0.121 C 
BRANCH  20  22
ATOM     21  O   UNL     1      33.251 -23.167 -12.252  0.00  0.00    -0.250 OA
ATOM     22  C   UNL     1      32.915 -23.720 -13.293  0.00  0.00    +0.319 C 
BRANCH  22  23
ATOM     23  O   UNL     1      32.028 -24.752 -13.399  0.00  0.00    -0.444 OA
ATOM     24  C   UNL     1      30.841 -24.627 -12.608  0.00  0.00    +0.256 C 
ENDBRANCH  22  23
ENDBRANCH  20  22
BRANCH  20  25
ATOM     25  C   UNL     1      34.469 -22.205 -14.558  0.00  0.00    +0.039 C 
BRANCH  25  26
ATOM     26  C   UNL     1      35.897 -22.687 -14.669  0.00  0.00    -0.021 C 
ATOM     27  C   UNL     1      36.254 -23.933 -14.154  0.00  0.00    -0.002 C 
ATOM     28  C   UNL     1      36.858 -21.885 -15.285  0.00  0.00    -0.004 C 
ATOM     29  C   UNL     1      37.572 -24.377 -14.255  0.00  0.00    +0.030 C 
ATOM     30  C   UNL     1      38.175 -22.329 -15.386  0.00  0.00    -0.000 C 
ATOM     31  C   UNL     1      38.533 -23.575 -14.870  0.00  0.00    +0.003 C 
BRANCH  29  34
ATOM     32  N   UNL     1      37.162 -26.314 -12.755  0.00  0.00    -0.343 N 
ATOM     33  N   UNL     1      39.049 -26.269 -14.135  0.00  0.00    -0.285 NA
ATOM     34  C   UNL     1      37.946 -25.675 -13.716  0.00  0.00    +0.117 C 
ATOM     35  H   UNL     1      37.434 -27.192 -12.404  0.00  0.00    +0.144 HD
ATOM     36  H   UNL     1      36.338 -25.886 -12.429  0.00  0.00    +0.144 HD
ATOM     37  H   UNL     1      39.303 -27.148 -13.770  0.00  0.00    +0.188 HD
ENDBRANCH  29  34
ENDBRANCH  25  26
ENDBRANCH  20  25
ENDBRANCH   1  20
TORSDOF 9
ENDMDL
MODEL 4
REMARK VINA RESULT:     -11.2      1.472      2.294
REMARK  Name = 5496659
REMARK  9 active torsions:
REMARK  status: ('A' for Active; 'I' for Inactive)
REMARK    1  A    between atoms: C_1  and  N_4
REMARK    2  A    between atoms: C_1  and  C_20
REMARK    3  A    between atoms: C_5  and  C_7
REMARK    4  A    between atoms: C_10  and  C_15
REMARK    5  A    between atoms: C_20  and  C_22
REMARK    6  A    between atoms: C_20  and  C_25
REMARK    7  A    between atoms: C_22  and  O_23
REMARK    8  A    between atoms: C_25  and  C_26
REMARK    9  A    between atoms: C_29  and  C_34
REMARK                            x       y       z     vdW  Elec       q    Type
REMARK                         _______ _______ _______ _____ _____    ______ ____
ROOT
ATOM      1  C   UNL     1      32.656 -23.510 -15.769  0.00  0.00    +0.083 C 
ATOM      2  C   UNL     1      31.139 -23.692 -15.746  0.00  0.00    +0.022 C 
ENDROOT
BRANCH   1   4
ATOM      3  O   UNL     1      34.005 -23.775 -18.289  0.00  0.00    -0.270 OA
ATOM      4  N   UNL     1      33.016 -22.441 -16.671  0.00  0.00    -0.302 N 
ATOM      5  C   UNL     1      33.669 -22.669 -17.872  0.00  0.00    +0.246 C 
ATOM      6  H   UNL     1      32.789 -21.515 -16.423  0.00  0.00    +0.150 HD
BRANCH   5   7
ATOM      7  C   UNL     1      33.992 -21.462 -18.674  0.00  0.00    +0.053 C 
ATOM      8  C   UNL     1      32.966 -20.647 -19.151  0.00  0.00    +0.005 C 
ATOM      9  C   UNL     1      35.321 -21.143 -18.951  0.00  0.00    +0.005 C 
ATOM     10  C   UNL     1      34.599 -19.194 -20.182  0.00  0.00    +0.000 C 
ATOM     11  C   UNL     1      33.269 -19.513 -19.905  0.00  0.00    +0.000 C 
ATOM     12  C   UNL     1      35.625 -20.010 -19.704  0.00  0.00    +0.000 C 
BRANCH  10  15
ATOM     13  O   UNL     1      35.799 -14.722 -23.166  0.00  0.00    -0.163 OA
ATOM     14  N   UNL     1      35.522 -15.756 -22.476  0.00  0.00    -0.127 N 
ATOM     15  C   UNL     1      34.915 -18.020 -20.965  0.00  0.00    +0.003 C 
ATOM     16  C   UNL     1      35.097 -18.128 -22.340  0.00  0.00    +0.022 C 
ATOM     17  C   UNL     1      35.035 -16.781 -20.345  0.00  0.00    +0.022 C 
ATOM     18  C   UNL     1      35.400 -16.992 -23.082  0.00  0.00    +0.121 C 
ATOM     19  C   UNL     1      35.339 -15.659 -21.110  0.00  0.00    +0.121 C 
ENDBRANCH  10  15
ENDBRANCH   5   7
ENDBRANCH   1   4
BRANCH   1  20
ATOM     20  C   UNL     1      33.245 -23.316 -14.353  0.00  0.00    +0.121 C 
BRANCH  20  22
ATOM     21  O   UNL     1      31.879 -21.393 -13.737  0.00  0.00    -0.250 OA
ATOM     22  C   UNL     1      32.302 -22.510 -13.465  0.00  0.00    +0.319 C 
BRANCH  22  23
ATOM     23  O   UNL     1      32.011 -23.222 -12.337  0.00  0.00    -0.444 OA
ATOM     24  C   UNL     1      30.763 -23.922 -12.356  0.00  0.00    +0.256 C 
ENDBRANCH  22  23
ENDBRANCH  20  22
BRANCH  20  25
ATOM     25  C   UNL     1      34.633 -22.644 -14.390  0.00  0.00    +0.039 C 
BRANCH  25  26
ATOM     26  C   UNL     1      35.673 -23.403 -13.599  0.00  0.00    -0.021 C 
ATOM     27  C   UNL     1      36.825 -23.872 -14.231  0.00  0.00    -0.002 C 
ATOM     28  C   UNL     1      35.480 -23.638 -12.238  0.00  0.00    -0.004 C 
ATOM     29  C   UNL     1      37.783 -24.575 -13.501  0.00  0.00    +0.030 C 
ATOM     30  C   UNL     1      36.438 -24.340 -11.508  0.00  0.00    -0.000 C 
ATOM     31  C   UNL     1      37.590 -24.810 -12.140  0.00  0.00    +0.003 C 
BRANCH  29  34
ATOM     32  N   UNL     1      39.703 -24.265 -15.046  0.00  0.00    -0.343 N 
ATOM     33  N   UNL     1      39.407 -26.294 -13.925  0.00  0.00    -0.285 NA
ATOM     34  C   UNL     1      38.984 -25.066 -14.160  0.00  0.00    +0.117 C 
ATOM     35  H   UNL     1      40.512 -24.617 -15.481  0.00  0.00    +0.144 HD
ATOM     36  H   UNL     1      39.401 -23.348 -15.236  0.00  0.00    +0.144 HD
ATOM     37  H   UNL     1      40.221 -26.628 -14.371  0.00  0.00    +0.188 HD
ENDBRANCH  29  34
ENDBRANCH  25  26
ENDBRANCH  20  25
ENDBRANCH   1  20
TORSDOF 9
ENDMDL
MODEL 5
REMARK VINA RESULT:     -11.1      1.539      2.693
REMARK  Name = 5496659
REMARK  9 active torsions:
REMARK  status: ('A' for Active; 'I' for Inactive)
REMARK    1  A    between atoms: C_1  and  N_4
REMARK    2  A    between atoms: C_1  and  C_20
REMARK    3  A    between atoms: C_5  and  C_7
REMARK    4  A    between atoms: C_10  and  C_15
REMARK    5  A    between atoms: C_20  and  C_22
REMARK    6  A    between atoms: C_20  and  C_25
REMARK    7  A    between atoms: C_22  and  O_23
REMARK    8  A    between atoms: C_25  and  C_26
REMARK    9  A    between atoms: C_29  and  C_34
REMARK                            x       y       z     vdW  Elec       q    Type
REMARK                         _______ _______ _______ _____ _____    ______ ____
ROOT
ATOM      1  C   UNL     1      35.939 -21.588 -15.558  0.00  0.00    +0.083 C 
ATOM      2  C   UNL     1      37.440 -21.800 -15.365  0.00  0.00    +0.022 C 
ENDROOT
BRANCH   1   4
ATOM      3  O   UNL     1      37.590 -21.602 -17.906  0.00  0.00    -0.270 OA
ATOM      4  N   UNL     1      35.690 -20.879 -16.791  0.00  0.00    -0.302 N 
ATOM      5  C   UNL     1      36.551 -20.949 -17.876  0.00  0.00    +0.246 C 
ATOM      6  H   UNL     1      34.879 -20.326 -16.865  0.00  0.00    +0.150 HD
BRANCH   5   7
ATOM      7  C   UNL     1      36.166 -20.142 -19.062  0.00  0.00    +0.053 C 
ATOM      8  C   UNL     1      34.850 -20.163 -19.523  0.00  0.00    +0.005 C 
ATOM      9  C   UNL     1      37.120 -19.362 -19.715  0.00  0.00    +0.005 C 
ATOM     10  C   UNL     1      35.444 -18.626 -21.290  0.00  0.00    +0.000 C 
ATOM     11  C   UNL     1      34.488 -19.406 -20.637  0.00  0.00    +0.000 C 
ATOM     12  C   UNL     1      36.760 -18.605 -20.828  0.00  0.00    +0.000 C 
BRANCH  10  15
ATOM     13  O   UNL     1      34.029 -15.637 -25.696  0.00  0.00    -0.163 OA
ATOM     14  N   UNL     1      34.355 -16.328 -24.677  0.00  0.00    -0.127 N 
ATOM     15  C   UNL     1      35.071 -17.841 -22.447  0.00  0.00    +0.003 C 
ATOM     16  C   UNL     1      35.363 -16.482 -22.489  0.00  0.00    +0.022 C 
ATOM     17  C   UNL     1      34.422 -18.444 -23.518  0.00  0.00    +0.022 C 
ATOM     18  C   UNL     1      35.000 -15.738 -23.606  0.00  0.00    +0.121 C 
ATOM     19  C   UNL     1      34.070 -17.679 -24.625  0.00  0.00    +0.121 C 
ENDBRANCH  10  15
ENDBRANCH   5   7
ENDBRANCH   1   4
BRANCH   1  20
ATOM     20  C   UNL     1      35.143 -22.910 -15.461  0.00  0.00    +0.121 C 
BRANCH  20  22
ATOM     21  O   UNL     1      33.845 -23.072 -17.518  0.00  0.00    -0.250 OA
ATOM     22  C   UNL     1      33.878 -22.859 -16.313  0.00  0.00    +0.319 C 
BRANCH  22  23
ATOM     23  O   UNL     1      32.808 -22.541 -15.527  0.00  0.00    -0.444 OA
ATOM     24  C   UNL     1      31.567 -22.368 -16.220  0.00  0.00    +0.256 C 
ENDBRANCH  22  23
ENDBRANCH  20  22
BRANCH  20  25
ATOM     25  C   UNL     1      34.780 -23.261 -14.003  0.00  0.00    +0.039 C 
BRANCH  25  26
ATOM     26  C   UNL     1      35.991 -23.592 -13.162  0.00  0.00    -0.021 C 
ATOM     27  C   UNL     1      37.029 -24.353 -13.702  0.00  0.00    -0.002 C 
ATOM     28  C   UNL     1      36.070 -23.140 -11.845  0.00  0.00    -0.004 C 
ATOM     29  C   UNL     1      38.145 -24.660 -12.925  0.00  0.00    +0.030 C 
ATOM     30  C   UNL     1      37.187 -23.447 -11.068  0.00  0.00    -0.000 C 
ATOM     31  C   UNL     1      38.224 -24.207 -11.607  0.00  0.00    +0.003 C 
BRANCH  29  34
ATOM     32  N   UNL     1      40.546 -25.005 -13.460  0.00  0.00    -0.343 N 
ATOM     33  N   UNL     1      38.963 -26.624 -14.040  0.00  0.00    -0.285 NA
ATOM     34  C   UNL     1      39.226 -25.454 -13.487  0.00  0.00    +0.117 C 
ATOM     35  H   UNL     1      41.261 -25.559 -13.847  0.00  0.00    +0.144 HD
ATOM     36  H   UNL     1      40.760 -24.134 -13.055  0.00  0.00    +0.144 HD
ATOM     37  H   UNL     1      39.695 -27.164 -14.422  0.00  0.00    +0.188 HD
ENDBRANCH  29  34
ENDBRANCH  25  26
ENDBRANCH  20  25
ENDBRANCH   1  20
TORSDOF 9
ENDMDL
MODEL 6
REMARK VINA RESULT:     -11.0      3.092     10.934
REMARK  Name = 5496659
REMARK  9 active torsions:
REMARK  status: ('A' for Active; 'I' for Inactive)
REMARK    1  A    between atoms: C_1  and  N_4
REMARK    2  A    between atoms: C_1  and  C_20
REMARK    3  A    between atoms: C_5  and  C_7
REMARK    4  A    between atoms: C_10  and  C_15
REMARK    5  A    between atoms: C_20  and  C_22
REMARK    6  A    between atoms: C_20  and  C_25
REMARK    7  A    between atoms: C_22  and  O_23
REMARK    8  A    between atoms: C_25  and  C_26
REMARK    9  A    between atoms: C_29  and  C_34
REMARK                            x       y       z     vdW  Elec       q    Type
REMARK                         _______ _______ _______ _____ _____    ______ ____
ROOT
ATOM      1  C   UNL     1      36.765 -19.102 -20.360  0.00  0.00    +0.083 C 
ATOM      2  C   UNL     1      38.158 -18.526 -20.609  0.00  0.00    +0.022 C 
ENDROOT
BRANCH   1   4
ATOM      3  O   UNL     1      35.805 -21.720 -19.677  0.00  0.00    -0.270 OA
ATOM      4  N   UNL     1      36.693 -19.677 -19.037  0.00  0.00    -0.302 N 
ATOM      5  C   UNL     1      36.212 -20.956 -18.806  0.00  0.00    +0.246 C 
ATOM      6  H   UNL     1      36.997 -19.139 -18.269  0.00  0.00    +0.150 HD
BRANCH   5   7
ATOM      7  C   UNL     1      36.179 -21.391 -17.386  0.00  0.00    +0.053 C 
ATOM      8  C   UNL     1      37.286 -21.176 -16.565  0.00  0.00    +0.005 C 
ATOM      9  C   UNL     1      35.042 -22.014 -16.874  0.00  0.00    +0.005 C 
ATOM     10  C   UNL     1      36.117 -22.208 -14.719  0.00  0.00    +0.000 C 
ATOM     11  C   UNL     1      37.255 -21.585 -15.232  0.00  0.00    +0.000 C 
ATOM     12  C   UNL     1      35.010 -22.423 -15.541  0.00  0.00    +0.000 C 
BRANCH  10  15
ATOM     13  O   UNL     1      35.992 -23.834  -9.458  0.00  0.00    -0.163 OA
ATOM     14  N   UNL     1      36.021 -23.458 -10.674  0.00  0.00    -0.127 N 
ATOM     15  C   UNL     1      36.084 -22.634 -13.337  0.00  0.00    +0.003 C 
ATOM     16  C   UNL     1      34.984 -23.333 -12.850  0.00  0.00    +0.022 C 
ATOM     17  C   UNL     1      37.152 -22.347 -12.494  0.00  0.00    +0.022 C 
ATOM     18  C   UNL     1      34.965 -23.738 -11.521  0.00  0.00    +0.121 C 
ATOM     19  C   UNL     1      37.108 -22.763 -11.168  0.00  0.00    +0.121 C 
ENDBRANCH  10  15
ENDBRANCH   5   7
ENDBRANCH   1   4
BRANCH   1  20
ATOM     20  C   UNL     1      35.647 -18.066 -20.619  0.00  0.00    +0.121 C 
BRANCH  20  22
ATOM     21  O   UNL     1      33.978 -18.988 -22.139  0.00  0.00    -0.250 OA
ATOM     22  C   UNL     1      34.335 -18.749 -20.992  0.00  0.00    +0.319 C 
BRANCH  22  23
ATOM     23  O   UNL     1      33.632 -19.045 -19.859  0.00  0.00    -0.444 OA
ATOM     24  C   UNL     1      32.773 -20.186 -19.948  0.00  0.00    +0.256 C 
ENDBRANCH  22  23
ENDBRANCH  20  22
BRANCH  20  25
ATOM     25  C   UNL     1      36.040 -17.052 -21.713  0.00  0.00    +0.039 C 
BRANCH  25  26
ATOM     26  C   UNL     1      35.264 -15.759 -21.619  0.00  0.00    -0.021 C 
ATOM     27  C   UNL     1      34.833 -15.118 -22.780  0.00  0.00    -0.002 C 
ATOM     28  C   UNL     1      34.981 -15.205 -20.370  0.00  0.00    -0.004 C 
ATOM     29  C   UNL     1      34.119 -13.923 -22.693  0.00  0.00    +0.030 C 
ATOM     30  C   UNL     1      34.266 -14.011 -20.283  0.00  0.00    -0.000 C 
ATOM     31  C   UNL     1      33.836 -13.369 -21.444  0.00  0.00    +0.003 C 
BRANCH  29  34
ATOM     32  N   UNL     1      32.944 -13.932 -24.881  0.00  0.00    -0.343 N 
ATOM     33  N   UNL     1      33.956 -11.978 -24.094  0.00  0.00    -0.285 NA
ATOM     34  C   UNL     1      33.671 -13.253 -23.904  0.00  0.00    +0.117 C 
ATOM     35  H   UNL     1      32.651 -13.459 -25.693  0.00  0.00    +0.144 HD
ATOM     36  H   UNL     1      32.724 -14.884 -24.758  0.00  0.00    +0.144 HD
ATOM     37  H   UNL     1      33.654 -11.523 -24.914  0.00  0.00    +0.188 HD
ENDBRANCH  29  34
ENDBRANCH  25  26
ENDBRANCH  20  25
ENDBRANCH   1  20
TORSDOF 9
ENDMDL
MODEL 7
REMARK VINA RESULT:     -11.0      7.040     14.620
REMARK  Name = 5496659
REMARK  9 active torsions:
REMARK  status: ('A' for Active; 'I' for Inactive)
REMARK    1  A    between atoms: C_1  and  N_4
REMARK    2  A    between atoms: C_1  and  C_20
REMARK    3  A    between atoms: C_5  and  C_7
REMARK    4  A    between atoms: C_10  and  C_15
REMARK    5  A    between atoms: C_20  and  C_22
REMARK    6  A    between atoms: C_20  and  C_25
REMARK    7  A    between atoms: C_22  and  O_23
REMARK    8  A    between atoms: C_25  and  C_26
REMARK    9  A    between atoms: C_29  and  C_34
REMARK                            x       y       z     vdW  Elec       q    Type
REMARK                         _______ _______ _______ _____ _____    ______ ____
ROOT
ATOM      1  C   UNL     1      33.546 -10.135 -23.151  0.00  0.00    +0.083 C 
ATOM      2  C   UNL     1      34.779  -9.339 -23.574  0.00  0.00    +0.022 C 
ENDROOT
BRANCH   1   4
ATOM      3  O   UNL     1      33.804 -12.516 -24.734  0.00  0.00    -0.270 OA
ATOM      4  N   UNL     1      33.934 -11.444 -22.682  0.00  0.00    -0.302 N 
ATOM      5  C   UNL     1      34.032 -12.539 -23.528  0.00  0.00    +0.246 C 
ATOM      6  H   UNL     1      34.138 -11.565 -21.726  0.00  0.00    +0.150 HD
BRANCH   5   7
ATOM      7  C   UNL     1      34.419 -13.821 -22.887  0.00  0.00    +0.053 C 
ATOM      8  C   UNL     1      34.619 -14.959 -23.668  0.00  0.00    +0.005 C 
ATOM      9  C   UNL     1      34.582 -13.888 -21.504  0.00  0.00    +0.005 C 
ATOM     10  C   UNL     1      35.146 -16.230 -21.682  0.00  0.00    +0.000 C 
ATOM     11  C   UNL     1      34.983 -16.164 -23.066  0.00  0.00    +0.000 C 
ATOM     12  C   UNL     1      34.945 -15.092 -20.901  0.00  0.00    +0.000 C 
BRANCH  10  15
ATOM     13  O   UNL     1      36.574 -20.984 -19.294  0.00  0.00    -0.163 OA
ATOM     14  N   UNL     1      36.244 -19.886 -19.847  0.00  0.00    -0.127 N 
ATOM     15  C   UNL     1      35.521 -17.479 -21.056  0.00  0.00    +0.003 C 
ATOM     16  C   UNL     1      36.864 -17.802 -20.895  0.00  0.00    +0.022 C 
ATOM     17  C   UNL     1      34.539 -18.359 -20.613  0.00  0.00    +0.022 C 
ATOM     18  C   UNL     1      37.212 -19.004 -20.290  0.00  0.00    +0.121 C 
ATOM     19  C   UNL     1      34.913 -19.556 -20.012  0.00  0.00    +0.121 C 
ENDBRANCH  10  15
ENDBRANCH   5   7
ENDBRANCH   1   4
BRANCH   1  20
ATOM     20  C   UNL     1      32.677  -9.371 -22.125  0.00  0.00    +0.121 C 
BRANCH  20  22
ATOM     21  O   UNL     1      30.669 -10.584 -21.464  0.00  0.00    -0.250 OA
ATOM     22  C   UNL     1      31.852 -10.330 -21.273  0.00  0.00    +0.319 C 
BRANCH  22  23
ATOM     23  O   UNL     1      32.631 -10.849 -20.280  0.00  0.00    -0.444 OA
ATOM     24  C   UNL     1      32.037 -11.910 -19.524  0.00  0.00    +0.256 C 
ENDBRANCH  22  23
ENDBRANCH  20  22
BRANCH  20  25
ATOM     25  C   UNL     1      31.750  -8.341 -22.804  0.00  0.00    +0.039 C 
BRANCH  25  26
ATOM     26  C   UNL     1      31.922  -6.945 -22.252  0.00  0.00    -0.021 C 
ATOM     27  C   UNL     1      32.123  -6.755 -20.884  0.00  0.00    -0.002 C 
ATOM     28  C   UNL     1      31.876  -5.845 -23.109  0.00  0.00    -0.004 C 
ATOM     29  C   UNL     1      32.279  -5.467 -20.375  0.00  0.00    +0.030 C 
ATOM     30  C   UNL     1      32.033  -4.557 -22.599  0.00  0.00    -0.000 C 
ATOM     31  C   UNL     1      32.234  -4.367 -21.232  0.00  0.00    +0.003 C 
BRANCH  29  34
ATOM     32  N   UNL     1      32.753  -4.005 -18.423  0.00  0.00    -0.343 N 
ATOM     33  N   UNL     1      32.430  -6.301 -18.127  0.00  0.00    -0.285 NA
ATOM     34  C   UNL     1      32.488  -5.269 -18.949  0.00  0.00    +0.117 C 
ATOM     35  H   UNL     1      32.891  -3.895 -17.455  0.00  0.00    +0.144 HD
ATOM     36  H   UNL     1      32.802  -3.225 -19.021  0.00  0.00    +0.144 HD
ATOM     37  H   UNL     1      32.571  -6.169 -17.160  0.00  0.00    +0.188 HD
ENDBRANCH  29  34
ENDBRANCH  25  26
ENDBRANCH  20  25
ENDBRANCH   1  20
TORSDOF 9
ENDMDL
MODEL 8
REMARK VINA RESULT:     -10.9      5.685     10.263
REMARK  Name = 5496659
REMARK  9 active torsions:
REMARK  status: ('A' for Active; 'I' for Inactive)
REMARK    1  A    between atoms: C_1  and  N_4
REMARK    2  A    between atoms: C_1  and  C_20
REMARK    3  A    between atoms: C_5  and  C_7
REMARK    4  A    between atoms: C_10  and  C_15
REMARK    5  A    between atoms: C_20  and  C_22
REMARK    6  A    between atoms: C_20  and  C_25
REMARK    7  A    between atoms: C_22  and  O_23
REMARK    8  A    between atoms: C_25  and  C_26
REMARK    9  A    between atoms: C_29  and  C_34
REMARK                            x       y       z     vdW  Elec       q    Type
REMARK                         _______ _______ _______ _____ _____    ______ ____
ROOT
ATOM      1  C   UNL     1      34.469 -15.390 -20.834  0.00  0.00    +0.083 C 
ATOM      2  C   UNL     1      35.185 -15.473 -19.487  0.00  0.00    +0.022 C 
ENDROOT
BRANCH   1   4
ATOM      3  O   UNL     1      32.262 -13.915 -19.743  0.00  0.00    -0.270 OA
ATOM      4  N   UNL     1      34.118 -14.021 -21.128  0.00  0.00    -0.302 N 
ATOM      5  C   UNL     1      33.027 -13.391 -20.548  0.00  0.00    +0.246 C 
ATOM      6  H   UNL     1      34.673 -13.515 -21.765  0.00  0.00    +0.150 HD
BRANCH   5   7
ATOM      7  C   UNL     1      32.785 -11.990 -20.975  0.00  0.00    +0.053 C 
ATOM      8  C   UNL     1      33.341 -11.516 -22.163  0.00  0.00    +0.005 C 
ATOM      9  C   UNL     1      32.002 -11.147 -20.187  0.00  0.00    +0.005 C 
ATOM     10  C   UNL     1      32.330  -9.356 -21.775  0.00  0.00    +0.000 C 
ATOM     11  C   UNL     1      33.114 -10.199 -22.563  0.00  0.00    +0.000 C 
ATOM     12  C   UNL     1      31.774  -9.830 -20.586  0.00  0.00    +0.000 C 
BRANCH  10  15
ATOM     13  O   UNL     1      31.439  -4.151 -23.344  0.00  0.00    -0.163 OA
ATOM     14  N   UNL     1      31.644  -5.354 -22.981  0.00  0.00    -0.127 N 
ATOM     15  C   UNL     1      32.095  -7.989 -22.187  0.00  0.00    +0.003 C 
ATOM     16  C   UNL     1      31.829  -7.011 -21.235  0.00  0.00    +0.022 C 
ATOM     17  C   UNL     1      32.136  -7.652 -23.535  0.00  0.00    +0.022 C 
ATOM     18  C   UNL     1      31.606  -5.701 -21.644  0.00  0.00    +0.121 C 
ATOM     19  C   UNL     1      31.909  -6.334 -23.918  0.00  0.00    +0.121 C 
ENDBRANCH  10  15
ENDBRANCH   5   7
ENDBRANCH   1   4
BRANCH   1  20
ATOM     20  C   UNL     1      35.282 -16.052 -21.971  0.00  0.00    +0.121 C 
BRANCH  20  22
ATOM     21  O   UNL     1      35.572 -14.088 -23.386  0.00  0.00    -0.250 OA
ATOM     22  C   UNL     1      35.188 -15.245 -23.262  0.00  0.00    +0.319 C 
BRANCH  22  23
ATOM     23  O   UNL     1      34.615 -16.006 -24.240  0.00  0.00    -0.444 OA
ATOM     24  C   UNL     1      33.731 -15.308 -25.124  0.00  0.00    +0.256 C 
ENDBRANCH  22  23
ENDBRANCH  20  22
BRANCH  20  25
ATOM     25  C   UNL     1      34.837 -17.507 -22.229  0.00  0.00    +0.039 C 
BRANCH  25  26
ATOM     26  C   UNL     1      35.311 -18.462 -21.158  0.00  0.00    -0.021 C 
ATOM     27  C   UNL     1      34.418 -19.367 -20.584  0.00  0.00    -0.002 C 
ATOM     28  C   UNL     1      36.643 -18.438 -20.742  0.00  0.00    -0.004 C 
ATOM     29  C   UNL     1      34.855 -20.246 -19.595  0.00  0.00    +0.030 C 
ATOM     30  C   UNL     1      37.080 -19.318 -19.753  0.00  0.00    -0.000 C 
ATOM     31  C   UNL     1      36.186 -20.222 -19.178  0.00  0.00    +0.003 C 
BRANCH  29  34
ATOM     32  N   UNL     1      32.683 -20.772 -18.512  0.00  0.00    -0.343 N 
ATOM     33  N   UNL     1      34.249 -22.464 -18.896  0.00  0.00    -0.285 NA
ATOM     34  C   UNL     1      33.923 -21.188 -18.995  0.00  0.00    +0.117 C 
ATOM     35  H   UNL     1      32.067 -21.426 -18.110  0.00  0.00    +0.144 HD
ATOM     36  H   UNL     1      32.423 -19.825 -18.574  0.00  0.00    +0.144 HD
ATOM     37  H   UNL     1      33.618 -23.103 -18.490  0.00  0.00    +0.188 HD
ENDBRANCH  29  34
ENDBRANCH  25  26
ENDBRANCH  20  25
ENDBRANCH   1  20
TORSDOF 9
ENDMDL
MODEL 9
REMARK VINA RESULT:     -10.6      7.187     14.790
REMARK  Name = 5496659
REMARK  9 active torsions:
REMARK  status: ('A' for Active; 'I' for Inactive)
REMARK    1  A    between atoms: C_1  and  N_4
REMARK    2  A    between atoms: C_1  and  C_20
REMARK    3  A    between atoms: C_5  and  C_7
REMARK    4  A    between atoms: C_10  and  C_15
REMARK    5  A    between atoms: C_20  and  C_22
REMARK    6  A    between atoms: C_20  and  C_25
REMARK    7  A    between atoms: C_22  and  O_23
REMARK    8  A    between atoms: C_25  and  C_26
REMARK    9  A    between atoms: C_29  and  C_34
REMARK                            x       y       z     vdW  Elec       q    Type
REMARK                         _______ _______ _______ _____ _____    ______ ____
ROOT
ATOM      1  C   UNL     1      33.712 -10.303 -23.143  0.00  0.00    +0.083 C 
ATOM      2  C   UNL     1      34.893  -9.638 -23.849  0.00  0.00    +0.022 C 
ENDROOT
BRANCH   1   4
ATOM      3  O   UNL     1      33.748 -12.738 -24.663  0.00  0.00    -0.270 OA
ATOM      4  N   UNL     1      34.090 -11.612 -22.665  0.00  0.00    -0.302 N 
ATOM      5  C   UNL     1      34.075 -12.734 -23.479  0.00  0.00    +0.246 C 
ATOM      6  H   UNL     1      34.368 -11.712 -21.725  0.00  0.00    +0.150 HD
BRANCH   5   7
ATOM      7  C   UNL     1      34.467 -14.011 -22.830  0.00  0.00    +0.053 C 
ATOM      8  C   UNL     1      34.656 -15.157 -23.602  0.00  0.00    +0.005 C 
ATOM      9  C   UNL     1      34.644 -14.065 -21.448  0.00  0.00    +0.005 C 
ATOM     10  C   UNL     1      35.201 -16.411 -21.610  0.00  0.00    +0.000 C 
ATOM     11  C   UNL     1      35.023 -16.357 -22.993  0.00  0.00    +0.000 C 
ATOM     12  C   UNL     1      35.011 -15.264 -20.838  0.00  0.00    +0.000 C 
BRANCH  10  15
ATOM     13  O   UNL     1      36.644 -21.148 -19.198  0.00  0.00    -0.163 OA
ATOM     14  N   UNL     1      36.310 -20.053 -19.755  0.00  0.00    -0.127 N 
ATOM     15  C   UNL     1      35.580 -17.654 -20.976  0.00  0.00    +0.003 C 
ATOM     16  C   UNL     1      34.601 -18.553 -20.565  0.00  0.00    +0.022 C 
ATOM     17  C   UNL     1      36.924 -17.954 -20.777  0.00  0.00    +0.022 C 
ATOM     18  C   UNL     1      34.978 -19.745 -19.958  0.00  0.00    +0.121 C 
ATOM     19  C   UNL     1      37.275 -19.154 -20.167  0.00  0.00    +0.121 C 
ENDBRANCH  10  15
ENDBRANCH   5   7
ENDBRANCH   1   4
BRANCH   1  20
ATOM     20  C   UNL     1      33.119  -9.411 -22.028  0.00  0.00    +0.121 C 
BRANCH  20  22
ATOM     21  O   UNL     1      30.787 -10.060 -21.739  0.00  0.00    -0.250 OA
ATOM     22  C   UNL     1      31.943 -10.096 -21.337  0.00  0.00    +0.319 C 
BRANCH  22  23
ATOM     23  O   UNL     1      32.381 -10.743 -20.218  0.00  0.00    -0.444 OA
ATOM     24  C   UNL     1      31.768 -12.011 -19.961  0.00  0.00    +0.256 C 
ENDBRANCH  22  23
ENDBRANCH  20  22
BRANCH  20  25
ATOM     25  C   UNL     1      32.683  -8.030 -22.561  0.00  0.00    +0.039 C 
BRANCH  25  26
ATOM     26  C   UNL     1      32.512  -7.007 -21.462  0.00  0.00    -0.021 C 
ATOM     27  C   UNL     1      31.745  -5.863 -21.688  0.00  0.00    -0.002 C 
ATOM     28  C   UNL     1      33.122  -7.204 -20.224  0.00  0.00    -0.004 C 
ATOM     29  C   UNL     1      31.590  -4.917 -20.675  0.00  0.00    +0.030 C 
ATOM     30  C   UNL     1      32.966  -6.258 -19.211  0.00  0.00    -0.000 C 
ATOM     31  C   UNL     1      32.200  -5.114 -19.436  0.00  0.00    +0.003 C 
BRANCH  29  34
ATOM     32  N   UNL     1      29.564  -3.536 -20.277  0.00  0.00    -0.343 N 
ATOM     33  N   UNL     1      31.228  -2.795 -21.743  0.00  0.00    -0.285 NA
ATOM     34  C   UNL     1      30.792  -3.724 -20.911  0.00  0.00    +0.117 C 
ATOM     35  H   UNL     1      29.041  -2.720 -20.452  0.00  0.00    +0.144 HD
ATOM     36  H   UNL     1      29.222  -4.218 -19.656  0.00  0.00    +0.144 HD
ATOM     37  H   UNL     1      30.689  -1.986 -21.904  0.00  0.00    +0.188 HD
ENDBRANCH  29  34
ENDBRANCH  25  26
ENDBRANCH  20  25
ENDBRANCH   1  20
TORSDOF 9
ENDMDL
