MODEL 1
REMARK VINA RESULT:     -12.7      0.000      0.000
REMARK  Name = 44123754
REMARK  11 active torsions:
REMARK  status: ('A' for Active; 'I' for Inactive)
REMARK    1  A    between atoms: C_3  and  C_22
REMARK    2  A    between atoms: C_4  and  C_7
REMARK    3  A    between atoms: N_6  and  C_15
REMARK    4  A    between atoms: C_8  and  N_12
REMARK    5  A    between atoms: C_15  and  O_16
REMARK    6  A    between atoms: O_16  and  P_17
REMARK    7  A    between atoms: P_17  and  O_20
REMARK    8  A    between atoms: C_22  and  C_23
REMARK    9  A    between atoms: C_26  and  C_29
REMARK   10  A    between atoms: C_29  and  O_30
REMARK   11  A    between atoms: O_30  and  C_32
REMARK                            x       y       z     vdW  Elec       q    Type
REMARK                         _______ _______ _______ _____ _____    ______ ____
ROOT
ATOM      1  O   UNL     1      32.992 -23.565 -13.922  0.00  0.00    -0.354 OA
ATOM      2  N   UNL     1      32.118 -23.182 -14.933  0.00  0.00    -0.081 NA
ATOM      3  C   UNL     1      32.903 -22.767 -15.930  0.00  0.00    +0.105 C 
ATOM      4  C   UNL     1      34.270 -23.370 -14.338  0.00  0.00    +0.175 C 
ATOM      5  C   UNL     1      34.269 -22.863 -15.610  0.00  0.00    +0.058 C 
ENDROOT
BRANCH   4   7
ATOM      6  N   UNL     1      37.146 -25.041 -12.725  0.00  0.00    -0.266 N 
ATOM      7  C   UNL     1      35.298 -23.726 -13.387  0.00  0.00    +0.048 C 
ATOM      8  C   UNL     1      36.208 -24.744 -13.635  0.00  0.00    +0.156 C 
ATOM      9  C   UNL     1      35.381 -23.031 -12.185  0.00  0.00    +0.003 C 
ATOM     10  C   UNL     1      37.249 -24.387 -11.561  0.00  0.00    +0.064 C 
ATOM     11  C   UNL     1      36.365 -23.362 -11.259  0.00  0.00    +0.016 C 
BRANCH   8  12
ATOM     12  N   UNL     1      36.158 -25.474 -14.842  0.00  0.00    -0.303 NA
ATOM     13  H   UNL     1      35.596 -26.280 -14.907  0.00  0.00    +0.121 HD
ATOM     14  H   UNL     1      36.686 -25.177 -15.618  0.00  0.00    +0.121 HD
ENDBRANCH   8  12
BRANCH   6  15
ATOM     15  C   UNL     1      38.108 -26.115 -12.988  0.00  0.00    +0.251 C 
BRANCH  15  16
ATOM     16  O   UNL     1      38.709 -25.887 -14.255  0.00  0.00    -0.250 OA
BRANCH  16  17
ATOM     17  P   UNL     1      39.986 -24.873 -14.363  0.00  0.00    +0.504 P 
ATOM     18  O   UNL     1      40.991 -25.420 -15.353  0.00  0.00    -0.225 OA
ATOM     19  O   UNL     1      40.416 -24.494 -12.963  0.00  0.00    -0.116 OA
BRANCH  17  20
ATOM     20  O   UNL     1      39.246 -23.580 -15.034  0.00  0.00    -0.301 OA
ATOM     21  H   UNL     1      38.432 -23.867 -15.476  0.00  0.00    +0.222 HD
ENDBRANCH  17  20
ENDBRANCH  16  17
ENDBRANCH  15  16
ENDBRANCH   6  15
ENDBRANCH   4   7
BRANCH   3  22
ATOM     22  C   UNL     1      32.303 -22.281 -17.183  0.00  0.00    +0.075 C 
BRANCH  22  23
ATOM     23  C   UNL     1      33.241 -21.458 -18.058  0.00  0.00    -0.016 C 
ATOM     24  C   UNL     1      34.620 -21.652 -17.977  0.00  0.00    -0.004 C 
ATOM     25  C   UNL     1      32.721 -20.510 -18.940  0.00  0.00    -0.004 C 
ATOM     26  C   UNL     1      34.958 -19.952 -19.659  0.00  0.00    +0.021 C 
ATOM     27  C   UNL     1      35.479 -20.899 -18.777  0.00  0.00    -0.001 C 
ATOM     28  C   UNL     1      33.580 -19.757 -19.740  0.00  0.00    -0.001 C 
BRANCH  26  29
ATOM     29  C   UNL     1      35.877 -19.149 -20.516  0.00  0.00    +0.234 C 
BRANCH  29  30
ATOM     30  O   UNL     1      36.143 -17.902 -19.885  0.00  0.00    -0.455 OA
BRANCH  30  32
ATOM     31  N   UNL     1      35.307 -15.743 -19.740  0.00  0.00    -0.210 NA
ATOM     32  C   UNL     1      35.687 -16.778 -20.522  0.00  0.00    +0.225 C 
ATOM     33  C   UNL     1      35.644 -16.761 -21.906  0.00  0.00    +0.058 C 
ATOM     34  C   UNL     1      35.179 -15.608 -22.529  0.00  0.00    +0.006 C 
ATOM     35  C   UNL     1      34.862 -14.638 -20.380  0.00  0.00    +0.102 C 
ATOM     36  C   UNL     1      34.779 -14.521 -21.758  0.00  0.00    +0.021 C 
ENDBRANCH  30  32
ENDBRANCH  29  30
ENDBRANCH  26  29
ENDBRANCH  22  23
ENDBRANCH   3  22
TORSDOF 11
ENDMDL
MODEL 2
REMARK VINA RESULT:     -12.6      5.739     12.258
REMARK  Name = 44123754
REMARK  11 active torsions:
REMARK  status: ('A' for Active; 'I' for Inactive)
REMARK    1  A    between atoms: C_3  and  C_22
REMARK    2  A    between atoms: C_4  and  C_7
REMARK    3  A    between atoms: N_6  and  C_15
REMARK    4  A    between atoms: C_8  and  N_12
REMARK    5  A    between atoms: C_15  and  O_16
REMARK    6  A    between atoms: O_16  and  P_17
REMARK    7  A    between atoms: P_17  and  O_20
REMARK    8  A    between atoms: C_22  and  C_23
REMARK    9  A    between atoms: C_26  and  C_29
REMARK   10  A    between atoms: C_29  and  O_30
REMARK   11  A    between atoms: O_30  and  C_32
REMARK                            x       y       z     vdW  Elec       q    Type
REMARK                         _______ _______ _______ _____ _____    ______ ____
ROOT
ATOM      1  O   UNL     1      35.294 -15.935 -20.783  0.00  0.00    -0.354 OA
ATOM      2  N   UNL     1      35.831 -16.938 -19.984  0.00  0.00    -0.081 NA
ATOM      3  C   UNL     1      36.126 -17.931 -20.828  0.00  0.00    +0.105 C 
ATOM      4  C   UNL     1      35.282 -16.350 -22.076  0.00  0.00    +0.175 C 
ATOM      5  C   UNL     1      35.802 -17.614 -22.159  0.00  0.00    +0.058 C 
ENDROOT
BRANCH   4   7
ATOM      6  N   UNL     1      33.918 -13.265 -23.589  0.00  0.00    -0.266 N 
ATOM      7  C   UNL     1      34.749 -15.406 -23.030  0.00  0.00    +0.048 C 
ATOM      8  C   UNL     1      34.409 -14.109 -22.671  0.00  0.00    +0.156 C 
ATOM      9  C   UNL     1      34.568 -15.804 -24.351  0.00  0.00    +0.003 C 
ATOM     10  C   UNL     1      33.734 -13.623 -24.867  0.00  0.00    +0.064 C 
ATOM     11  C   UNL     1      34.055 -14.907 -25.283  0.00  0.00    +0.016 C 
BRANCH   8  12
ATOM     12  N   UNL     1      34.577 -13.665 -21.342  0.00  0.00    -0.303 NA
ATOM     13  H   UNL     1      33.882 -13.112 -20.916  0.00  0.00    +0.121 HD
ATOM     14  H   UNL     1      35.388 -13.908 -20.841  0.00  0.00    +0.121 HD
ENDBRANCH   8  12
BRANCH   6  15
ATOM     15  C   UNL     1      33.560 -11.897 -23.209  0.00  0.00    +0.251 C 
BRANCH  15  16
ATOM     16  O   UNL     1      34.726 -11.088 -23.271  0.00  0.00    -0.250 OA
BRANCH  16  17
ATOM     17  P   UNL     1      34.674  -9.670 -24.080  0.00  0.00    +0.504 P 
ATOM     18  O   UNL     1      33.396  -8.934 -23.741  0.00  0.00    -0.225 OA
ATOM     19  O   UNL     1      35.051  -9.926 -25.523  0.00  0.00    -0.116 OA
BRANCH  17  20
ATOM     20  O   UNL     1      35.923  -8.903 -23.358  0.00  0.00    -0.301 OA
ATOM     21  H   UNL     1      36.532  -8.568 -24.035  0.00  0.00    +0.222 HD
ENDBRANCH  17  20
ENDBRANCH  16  17
ENDBRANCH  15  16
ENDBRANCH   6  15
ENDBRANCH   4   7
BRANCH   3  22
ATOM     22  C   UNL     1      36.723 -19.176 -20.318  0.00  0.00    +0.075 C 
BRANCH  22  23
ATOM     23  C   UNL     1      35.785 -20.029 -19.473  0.00  0.00    -0.016 C 
ATOM     24  C   UNL     1      36.292 -20.787 -18.419  0.00  0.00    -0.004 C 
ATOM     25  C   UNL     1      34.418 -20.050 -19.754  0.00  0.00    -0.004 C 
ATOM     26  C   UNL     1      34.067 -21.589 -17.926  0.00  0.00    +0.021 C 
ATOM     27  C   UNL     1      35.434 -21.568 -17.645  0.00  0.00    -0.001 C 
ATOM     28  C   UNL     1      33.560 -20.831 -18.980  0.00  0.00    -0.001 C 
BRANCH  26  29
ATOM     29  C   UNL     1      33.149 -22.422 -17.097  0.00  0.00    +0.234 C 
BRANCH  29  30
ATOM     30  O   UNL     1      31.904 -21.751 -16.951  0.00  0.00    -0.455 OA
BRANCH  30  32
ATOM     31  N   UNL     1      29.653 -22.067 -16.484  0.00  0.00    -0.210 NA
ATOM     32  C   UNL     1      30.939 -22.392 -16.219  0.00  0.00    +0.225 C 
ATOM     33  C   UNL     1      31.324 -23.322 -15.268  0.00  0.00    +0.058 C 
ATOM     34  C   UNL     1      30.326 -23.960 -14.540  0.00  0.00    +0.006 C 
ATOM     35  C   UNL     1      28.710 -22.709 -15.757  0.00  0.00    +0.102 C 
ATOM     36  C   UNL     1      28.991 -23.654 -14.784  0.00  0.00    +0.021 C 
ENDBRANCH  30  32
ENDBRANCH  29  30
ENDBRANCH  26  29
ENDBRANCH  22  23
ENDBRANCH   3  22
TORSDOF 11
ENDMDL
MODEL 3
REMARK VINA RESULT:     -12.5      2.876      5.314
REMARK  Name = 44123754
REMARK  11 active torsions:
REMARK  status: ('A' for Active; 'I' for Inactive)
REMARK    1  A    between atoms: C_3  and  C_22
REMARK    2  A    between atoms: C_4  and  C_7
REMARK    3  A    between atoms: N_6  and  C_15
REMARK    4  A    between atoms: C_8  and  N_12
REMARK    5  A    between atoms: C_15  and  O_16
REMARK    6  A    between atoms: O_16  and  P_17
REMARK    7  A    between atoms: P_17  and  O_20
REMARK    8  A    between atoms: C_22  and  C_23
REMARK    9  A    between atoms: C_26  and  C_29
REMARK   10  A    between atoms: C_29  and  O_30
REMARK   11  A    between atoms: O_30  and  C_32
REMARK                            x       y       z     vdW  Elec       q    Type
REMARK                         _______ _______ _______ _____ _____    ______ ____
ROOT
ATOM      1  O   UNL     1      36.687 -20.182 -18.341  0.00  0.00    -0.354 OA
ATOM      2  N   UNL     1      36.895 -19.433 -19.493  0.00  0.00    -0.081 NA
ATOM      3  C   UNL     1      35.805 -19.634 -20.238  0.00  0.00    +0.105 C 
ATOM      4  C   UNL     1      35.486 -20.809 -18.426  0.00  0.00    +0.175 C 
ATOM      5  C   UNL     1      34.884 -20.494 -19.615  0.00  0.00    +0.058 C 
ENDROOT
BRANCH   4   7
ATOM      6  N   UNL     1      35.666 -22.708 -15.259  0.00  0.00    -0.266 N 
ATOM      7  C   UNL     1      35.129 -21.631 -17.293  0.00  0.00    +0.048 C 
ATOM      8  C   UNL     1      36.040 -21.943 -16.294  0.00  0.00    +0.156 C 
ATOM      9  C   UNL     1      33.833 -22.128 -17.196  0.00  0.00    +0.003 C 
ATOM     10  C   UNL     1      34.425 -23.199 -15.142  0.00  0.00    +0.064 C 
ATOM     11  C   UNL     1      33.473 -22.921 -16.111  0.00  0.00    +0.016 C 
BRANCH   8  12
ATOM     12  N   UNL     1      37.365 -21.459 -16.354  0.00  0.00    -0.303 NA
ATOM     13  H   UNL     1      37.678 -20.797 -15.695  0.00  0.00    +0.121 HD
ATOM     14  H   UNL     1      37.975 -21.783 -17.055  0.00  0.00    +0.121 HD
ENDBRANCH   8  12
BRANCH   6  15
ATOM     15  C   UNL     1      36.629 -23.036 -14.205  0.00  0.00    +0.251 C 
BRANCH  15  16
ATOM     16  O   UNL     1      37.549 -23.993 -14.712  0.00  0.00    -0.250 OA
BRANCH  16  17
ATOM     17  P   UNL     1      37.338 -25.573 -14.353  0.00  0.00    +0.504 P 
ATOM     18  O   UNL     1      38.668 -26.200 -13.998  0.00  0.00    -0.225 OA
ATOM     19  O   UNL     1      36.458 -26.193 -15.417  0.00  0.00    -0.116 OA
BRANCH  17  20
ATOM     20  O   UNL     1      36.453 -25.422 -12.988  0.00  0.00    -0.301 OA
ATOM     21  H   UNL     1      36.235 -24.488 -12.845  0.00  0.00    +0.222 HD
ENDBRANCH  17  20
ENDBRANCH  16  17
ENDBRANCH  15  16
ENDBRANCH   6  15
ENDBRANCH   4   7
BRANCH   3  22
ATOM     22  C   UNL     1      35.682 -18.982 -21.552  0.00  0.00    +0.075 C 
BRANCH  22  23
ATOM     23  C   UNL     1      35.427 -17.481 -21.494  0.00  0.00    -0.016 C 
ATOM     24  C   UNL     1      35.396 -16.733 -22.670  0.00  0.00    -0.004 C 
ATOM     25  C   UNL     1      35.223 -16.855 -20.263  0.00  0.00    -0.004 C 
ATOM     26  C   UNL     1      34.958 -14.733 -21.387  0.00  0.00    +0.021 C 
ATOM     27  C   UNL     1      35.162 -15.359 -22.617  0.00  0.00    -0.001 C 
ATOM     28  C   UNL     1      34.989 -15.482 -20.210  0.00  0.00    -0.001 C 
BRANCH  26  29
ATOM     29  C   UNL     1      34.705 -13.265 -21.330  0.00  0.00    +0.234 C 
BRANCH  29  30
ATOM     30  O   UNL     1      33.396 -12.992 -21.814  0.00  0.00    -0.455 OA
BRANCH  30  32
ATOM     31  N   UNL     1      32.285 -10.958 -21.696  0.00  0.00    -0.210 NA
ATOM     32  C   UNL     1      32.640 -12.111 -21.086  0.00  0.00    +0.225 C 
ATOM     33  C   UNL     1      32.285 -12.444 -19.789  0.00  0.00    +0.058 C 
ATOM     34  C   UNL     1      31.516 -11.534 -19.071  0.00  0.00    +0.006 C 
ATOM     35  C   UNL     1      31.537 -10.099 -20.968  0.00  0.00    +0.102 C 
ATOM     36  C   UNL     1      31.130 -10.337 -19.665  0.00  0.00    +0.021 C 
ENDBRANCH  30  32
ENDBRANCH  29  30
ENDBRANCH  26  29
ENDBRANCH  22  23
ENDBRANCH   3  22
TORSDOF 11
ENDMDL
MODEL 4
REMARK VINA RESULT:     -12.4      5.389     12.039
REMARK  Name = 44123754
REMARK  11 active torsions:
REMARK  status: ('A' for Active; 'I' for Inactive)
REMARK    1  A    between atoms: C_3  and  C_22
REMARK    2  A    between atoms: C_4  and  C_7
REMARK    3  A    between atoms: N_6  and  C_15
REMARK    4  A    between atoms: C_8  and  N_12
REMARK    5  A    between atoms: C_15  and  O_16
REMARK    6  A    between atoms: O_16  and  P_17
REMARK    7  A    between atoms: P_17  and  O_20
REMARK    8  A    between atoms: C_22  and  C_23
REMARK    9  A    between atoms: C_26  and  C_29
REMARK   10  A    between atoms: C_29  and  O_30
REMARK   11  A    between atoms: O_30  and  C_32
REMARK                            x       y       z     vdW  Elec       q    Type
REMARK                         _______ _______ _______ _____ _____    ______ ____
ROOT
ATOM      1  O   UNL     1      35.104 -15.148 -20.069  0.00  0.00    -0.354 OA
ATOM      2  N   UNL     1      35.641 -16.403 -19.808  0.00  0.00    -0.081 NA
ATOM      3  C   UNL     1      35.721 -16.999 -21.001  0.00  0.00    +0.105 C 
ATOM      4  C   UNL     1      34.877 -15.025 -21.402  0.00  0.00    +0.175 C 
ATOM      5  C   UNL     1      35.254 -16.176 -22.041  0.00  0.00    +0.058 C 
ENDROOT
BRANCH   4   7
ATOM      6  N   UNL     1      32.816 -11.960 -21.546  0.00  0.00    -0.266 N 
ATOM      7  C   UNL     1      34.316 -13.764 -21.828  0.00  0.00    +0.048 C 
ATOM      8  C   UNL     1      33.308 -13.130 -21.116  0.00  0.00    +0.156 C 
ATOM      9  C   UNL     1      34.798 -13.163 -22.986  0.00  0.00    +0.003 C 
ATOM     10  C   UNL     1      33.262 -11.360 -22.657  0.00  0.00    +0.064 C 
ATOM     11  C   UNL     1      34.268 -11.947 -23.409  0.00  0.00    +0.016 C 
BRANCH   8  12
ATOM     12  N   UNL     1      32.790 -13.706 -19.935  0.00  0.00    -0.303 NA
ATOM     13  H   UNL     1      33.249 -13.562 -19.076  0.00  0.00    +0.121 HD
ATOM     14  H   UNL     1      31.972 -14.252 -19.973  0.00  0.00    +0.121 HD
ENDBRANCH   8  12
BRANCH   6  15
ATOM     15  C   UNL     1      31.751 -11.291 -20.794  0.00  0.00    +0.251 C 
BRANCH  15  16
ATOM     16  O   UNL     1      32.261 -10.915 -19.522  0.00  0.00    -0.250 OA
BRANCH  16  17
ATOM     17  P   UNL     1      31.931  -9.426 -18.937  0.00  0.00    +0.504 P 
ATOM     18  O   UNL     1      31.881  -8.428 -20.074  0.00  0.00    -0.225 OA
ATOM     19  O   UNL     1      32.816  -9.175 -17.735  0.00  0.00    -0.116 OA
BRANCH  17  20
ATOM     20  O   UNL     1      30.409  -9.680 -18.402  0.00  0.00    -0.301 OA
ATOM     21  H   UNL     1      29.902  -8.855 -18.464  0.00  0.00    +0.222 HD
ENDBRANCH  17  20
ENDBRANCH  16  17
ENDBRANCH  15  16
ENDBRANCH   6  15
ENDBRANCH   4   7
BRANCH   3  22
ATOM     22  C   UNL     1      36.255 -18.366 -21.104  0.00  0.00    +0.075 C 
BRANCH  22  23
ATOM     23  C   UNL     1      35.603 -19.374 -20.167  0.00  0.00    -0.016 C 
ATOM     24  C   UNL     1      36.393 -20.150 -19.318  0.00  0.00    -0.004 C 
ATOM     25  C   UNL     1      34.216 -19.521 -20.156  0.00  0.00    -0.004 C 
ATOM     26  C   UNL     1      34.409 -21.219 -18.449  0.00  0.00    +0.021 C 
ATOM     27  C   UNL     1      35.797 -21.073 -18.460  0.00  0.00    -0.001 C 
ATOM     28  C   UNL     1      33.619 -20.444 -19.297  0.00  0.00    -0.001 C 
BRANCH  26  29
ATOM     29  C   UNL     1      33.772 -22.204 -17.529  0.00  0.00    +0.234 C 
BRANCH  29  30
ATOM     30  O   UNL     1      32.366 -21.991 -17.509  0.00  0.00    -0.455 OA
BRANCH  30  32
ATOM     31  N   UNL     1      30.375 -22.094 -16.321  0.00  0.00    -0.210 NA
ATOM     32  C   UNL     1      31.717 -22.255 -16.331  0.00  0.00    +0.225 C 
ATOM     33  C   UNL     1      32.458 -22.666 -15.235  0.00  0.00    +0.058 C 
ATOM     34  C   UNL     1      31.777 -22.929 -14.051  0.00  0.00    +0.006 C 
ATOM     35  C   UNL     1      29.747 -22.360 -15.153  0.00  0.00    +0.102 C 
ATOM     36  C   UNL     1      30.396 -22.776 -14.001  0.00  0.00    +0.021 C 
ENDBRANCH  30  32
ENDBRANCH  29  30
ENDBRANCH  26  29
ENDBRANCH  22  23
ENDBRANCH   3  22
TORSDOF 11
ENDMDL
MODEL 5
REMARK VINA RESULT:     -12.3      5.576     11.931
REMARK  Name = 44123754
REMARK  11 active torsions:
REMARK  status: ('A' for Active; 'I' for Inactive)
REMARK    1  A    between atoms: C_3  and  C_22
REMARK    2  A    between atoms: C_4  and  C_7
REMARK    3  A    between atoms: N_6  and  C_15
REMARK    4  A    between atoms: C_8  and  N_12
REMARK    5  A    between atoms: C_15  and  O_16
REMARK    6  A    between atoms: O_16  and  P_17
REMARK    7  A    between atoms: P_17  and  O_20
REMARK    8  A    between atoms: C_22  and  C_23
REMARK    9  A    between atoms: C_26  and  C_29
REMARK   10  A    between atoms: C_29  and  O_30
REMARK   11  A    between atoms: O_30  and  C_32
REMARK                            x       y       z     vdW  Elec       q    Type
REMARK                         _______ _______ _______ _____ _____    ______ ____
ROOT
ATOM      1  O   UNL     1      35.325 -15.984 -20.636  0.00  0.00    -0.354 OA
ATOM      2  N   UNL     1      35.843 -17.030 -19.881  0.00  0.00    -0.081 NA
ATOM      3  C   UNL     1      36.112 -17.995 -20.765  0.00  0.00    +0.105 C 
ATOM      4  C   UNL     1      35.296 -16.348 -21.944  0.00  0.00    +0.175 C 
ATOM      5  C   UNL     1      35.787 -17.619 -22.080  0.00  0.00    +0.058 C 
ENDROOT
BRANCH   4   7
ATOM      6  N   UNL     1      33.947 -13.192 -23.316  0.00  0.00    -0.266 N 
ATOM      7  C   UNL     1      34.779 -15.355 -22.857  0.00  0.00    +0.048 C 
ATOM      8  C   UNL     1      34.422 -14.082 -22.435  0.00  0.00    +0.156 C 
ATOM      9  C   UNL     1      34.632 -15.681 -24.201  0.00  0.00    +0.003 C 
ATOM     10  C   UNL     1      33.795 -13.479 -24.616  0.00  0.00    +0.064 C 
ATOM     11  C   UNL     1      34.135 -14.736 -25.094  0.00  0.00    +0.016 C 
BRANCH   8  12
ATOM     12  N   UNL     1      34.556 -13.711 -21.079  0.00  0.00    -0.303 NA
ATOM     13  H   UNL     1      35.050 -12.894 -20.839  0.00  0.00    +0.121 HD
ATOM     14  H   UNL     1      34.156 -14.270 -20.375  0.00  0.00    +0.121 HD
ENDBRANCH   8  12
BRANCH   6  15
ATOM     15  C   UNL     1      33.571 -11.848 -22.870  0.00  0.00    +0.251 C 
BRANCH  15  16
ATOM     16  O   UNL     1      32.351 -11.934 -22.147  0.00  0.00    -0.250 OA
BRANCH  16  17
ATOM     17  P   UNL     1      32.072 -10.890 -20.922  0.00  0.00    +0.504 P 
ATOM     18  O   UNL     1      32.523  -9.502 -21.320  0.00  0.00    -0.225 OA
ATOM     19  O   UNL     1      32.565 -11.518 -19.636  0.00  0.00    -0.116 OA
BRANCH  17  20
ATOM     20  O   UNL     1      30.439 -10.923 -20.909  0.00  0.00    -0.301 OA
ATOM     21  H   UNL     1      30.134 -11.653 -20.347  0.00  0.00    +0.222 HD
ENDBRANCH  17  20
ENDBRANCH  16  17
ENDBRANCH  15  16
ENDBRANCH   6  15
ENDBRANCH   4   7
BRANCH   3  22
ATOM     22  C   UNL     1      36.682 -19.272 -20.308  0.00  0.00    +0.075 C 
BRANCH  22  23
ATOM     23  C   UNL     1      35.751 -20.109 -19.440  0.00  0.00    -0.016 C 
ATOM     24  C   UNL     1      34.383 -20.136 -19.711  0.00  0.00    -0.004 C 
ATOM     25  C   UNL     1      36.266 -20.849 -18.375  0.00  0.00    -0.004 C 
ATOM     26  C   UNL     1      34.045 -21.642 -17.852  0.00  0.00    +0.021 C 
ATOM     27  C   UNL     1      33.530 -20.902 -18.917  0.00  0.00    -0.001 C 
ATOM     28  C   UNL     1      35.412 -21.615 -17.581  0.00  0.00    -0.001 C 
BRANCH  26  29
ATOM     29  C   UNL     1      33.132 -22.463 -17.005  0.00  0.00    +0.234 C 
BRANCH  29  30
ATOM     30  O   UNL     1      31.874 -21.809 -16.895  0.00  0.00    -0.455 OA
BRANCH  30  32
ATOM     31  N   UNL     1      29.623 -22.162 -16.455  0.00  0.00    -0.210 NA
ATOM     32  C   UNL     1      30.911 -22.444 -16.155  0.00  0.00    +0.225 C 
ATOM     33  C   UNL     1      31.301 -23.326 -15.161  0.00  0.00    +0.058 C 
ATOM     34  C   UNL     1      30.305 -23.959 -14.425  0.00  0.00    +0.006 C 
ATOM     35  C   UNL     1      28.683 -22.797 -15.719  0.00  0.00    +0.102 C 
ATOM     36  C   UNL     1      28.969 -23.695 -14.704  0.00  0.00    +0.021 C 
ENDBRANCH  30  32
ENDBRANCH  29  30
ENDBRANCH  26  29
ENDBRANCH  22  23
ENDBRANCH   3  22
TORSDOF 11
ENDMDL
MODEL 6
REMARK VINA RESULT:     -12.3      5.491     12.483
REMARK  Name = 44123754
REMARK  11 active torsions:
REMARK  status: ('A' for Active; 'I' for Inactive)
REMARK    1  A    between atoms: C_3  and  C_22
REMARK    2  A    between atoms: C_4  and  C_7
REMARK    3  A    between atoms: N_6  and  C_15
REMARK    4  A    between atoms: C_8  and  N_12
REMARK    5  A    between atoms: C_15  and  O_16
REMARK    6  A    between atoms: O_16  and  P_17
REMARK    7  A    between atoms: P_17  and  O_20
REMARK    8  A    between atoms: C_22  and  C_23
REMARK    9  A    between atoms: C_26  and  C_29
REMARK   10  A    between atoms: C_29  and  O_30
REMARK   11  A    between atoms: O_30  and  C_32
REMARK                            x       y       z     vdW  Elec       q    Type
REMARK                         _______ _______ _______ _____ _____    ______ ____
ROOT
ATOM      1  O   UNL     1      34.311 -14.955 -22.725  0.00  0.00    -0.354 OA
ATOM      2  N   UNL     1      35.112 -16.085 -22.844  0.00  0.00    -0.081 NA
ATOM      3  C   UNL     1      35.584 -16.305 -21.614  0.00  0.00    +0.105 C 
ATOM      4  C   UNL     1      34.324 -14.530 -21.435  0.00  0.00    +0.175 C 
ATOM      5  C   UNL     1      35.120 -15.356 -20.687  0.00  0.00    +0.058 C 
ENDROOT
BRANCH   4   7
ATOM      6  N   UNL     1      32.737 -11.204 -21.724  0.00  0.00    -0.266 N 
ATOM      7  C   UNL     1      33.530 -13.356 -21.156  0.00  0.00    +0.048 C 
ATOM      8  C   UNL     1      33.488 -12.273 -22.022  0.00  0.00    +0.156 C 
ATOM      9  C   UNL     1      32.784 -13.306 -19.983  0.00  0.00    +0.003 C 
ATOM     10  C   UNL     1      32.009 -11.129 -20.602  0.00  0.00    +0.064 C 
ATOM     11  C   UNL     1      32.013 -12.182 -19.698  0.00  0.00    +0.016 C 
BRANCH   8  12
ATOM     12  N   UNL     1      34.230 -12.285 -23.223  0.00  0.00    -0.303 NA
ATOM     13  H   UNL     1      35.202 -12.123 -23.202  0.00  0.00    +0.121 HD
ATOM     14  H   UNL     1      33.777 -12.454 -24.079  0.00  0.00    +0.121 HD
ENDBRANCH   8  12
BRANCH   6  15
ATOM     15  C   UNL     1      32.693 -10.061 -22.639  0.00  0.00    +0.251 C 
BRANCH  15  16
ATOM     16  O   UNL     1      33.897  -9.321 -22.500  0.00  0.00    -0.250 OA
BRANCH  16  17
ATOM     17  P   UNL     1      34.641  -8.746 -23.836  0.00  0.00    +0.504 P 
ATOM     18  O   UNL     1      34.274  -7.292 -24.041  0.00  0.00    -0.225 OA
ATOM     19  O   UNL     1      34.458  -9.748 -24.955  0.00  0.00    -0.116 OA
BRANCH  17  20
ATOM     20  O   UNL     1      36.193  -8.825 -23.334  0.00  0.00    -0.301 OA
ATOM     21  H   UNL     1      36.324  -9.631 -22.810  0.00  0.00    +0.222 HD
ENDBRANCH  17  20
ENDBRANCH  16  17
ENDBRANCH  15  16
ENDBRANCH   6  15
ENDBRANCH   4   7
BRANCH   3  22
ATOM     22  C   UNL     1      36.484 -17.442 -21.366  0.00  0.00    +0.075 C 
BRANCH  22  23
ATOM     23  C   UNL     1      35.840 -18.612 -20.633  0.00  0.00    -0.016 C 
ATOM     24  C   UNL     1      36.628 -19.480 -19.877  0.00  0.00    -0.004 C 
ATOM     25  C   UNL     1      34.463 -18.815 -20.717  0.00  0.00    -0.004 C 
ATOM     26  C   UNL     1      34.661 -20.755 -19.290  0.00  0.00    +0.021 C 
ATOM     27  C   UNL     1      36.039 -20.552 -19.206  0.00  0.00    -0.001 C 
ATOM     28  C   UNL     1      33.874 -19.887 -20.046  0.00  0.00    -0.001 C 
BRANCH  26  29
ATOM     29  C   UNL     1      34.031 -21.898 -18.571  0.00  0.00    +0.234 C 
BRANCH  29  30
ATOM     30  O   UNL     1      32.785 -21.484 -18.024  0.00  0.00    -0.455 OA
BRANCH  30  32
ATOM     31  N   UNL     1      31.106 -22.044 -16.524  0.00  0.00    -0.210 NA
ATOM     32  C   UNL     1      32.424 -22.036 -16.823  0.00  0.00    +0.225 C 
ATOM     33  C   UNL     1      33.410 -22.550 -15.996  0.00  0.00    +0.058 C 
ATOM     34  C   UNL     1      33.018 -23.107 -14.784  0.00  0.00    +0.006 C 
ATOM     35  C   UNL     1      30.762 -22.594 -15.338  0.00  0.00    +0.102 C 
ATOM     36  C   UNL     1      31.670 -23.133 -14.441  0.00  0.00    +0.021 C 
ENDBRANCH  30  32
ENDBRANCH  29  30
ENDBRANCH  26  29
ENDBRANCH  22  23
ENDBRANCH   3  22
TORSDOF 11
ENDMDL
MODEL 7
REMARK VINA RESULT:     -12.1      5.524     12.579
REMARK  Name = 44123754
REMARK  11 active torsions:
REMARK  status: ('A' for Active; 'I' for Inactive)
REMARK    1  A    between atoms: C_3  and  C_22
REMARK    2  A    between atoms: C_4  and  C_7
REMARK    3  A    between atoms: N_6  and  C_15
REMARK    4  A    between atoms: C_8  and  N_12
REMARK    5  A    between atoms: C_15  and  O_16
REMARK    6  A    between atoms: O_16  and  P_17
REMARK    7  A    between atoms: P_17  and  O_20
REMARK    8  A    between atoms: C_22  and  C_23
REMARK    9  A    between atoms: C_26  and  C_29
REMARK   10  A    between atoms: C_29  and  O_30
REMARK   11  A    between atoms: O_30  and  C_32
REMARK                            x       y       z     vdW  Elec       q    Type
REMARK                         _______ _______ _______ _____ _____    ______ ____
ROOT
ATOM      1  O   UNL     1      34.482 -14.921 -22.779  0.00  0.00    -0.354 OA
ATOM      2  N   UNL     1      35.280 -16.056 -22.860  0.00  0.00    -0.081 NA
ATOM      3  C   UNL     1      35.640 -16.317 -21.600  0.00  0.00    +0.105 C 
ATOM      4  C   UNL     1      34.385 -14.534 -21.481  0.00  0.00    +0.175 C 
ATOM      5  C   UNL     1      35.104 -15.389 -20.689  0.00  0.00    +0.058 C 
ENDROOT
BRANCH   4   7
ATOM      6  N   UNL     1      32.876 -11.174 -21.797  0.00  0.00    -0.266 N 
ATOM      7  C   UNL     1      33.580 -13.359 -21.238  0.00  0.00    +0.048 C 
ATOM      8  C   UNL     1      33.641 -12.243 -22.059  0.00  0.00    +0.156 C 
ATOM      9  C   UNL     1      32.716 -13.342 -20.147  0.00  0.00    +0.003 C 
ATOM     10  C   UNL     1      32.036 -11.131 -20.755  0.00  0.00    +0.064 C 
ATOM     11  C   UNL     1      31.934 -12.218 -19.899  0.00  0.00    +0.016 C 
BRANCH   8  12
ATOM     12  N   UNL     1      34.505 -12.219 -23.176  0.00  0.00    -0.303 NA
ATOM     13  H   UNL     1      34.131 -12.216 -24.087  0.00  0.00    +0.121 HD
ATOM     14  H   UNL     1      35.480 -12.206 -23.043  0.00  0.00    +0.121 HD
ENDBRANCH   8  12
BRANCH   6  15
ATOM     15  C   UNL     1      32.941  -9.996 -22.666  0.00  0.00    +0.251 C 
BRANCH  15  16
ATOM     16  O   UNL     1      34.165  -9.318 -22.420  0.00  0.00    -0.250 OA
BRANCH  16  17
ATOM     17  P   UNL     1      34.875  -8.484 -23.634  0.00  0.00    +0.504 P 
ATOM     18  O   UNL     1      35.135  -9.407 -24.805  0.00  0.00    -0.225 OA
ATOM     19  O   UNL     1      35.994  -7.650 -23.052  0.00  0.00    -0.116 OA
BRANCH  17  20
ATOM     20  O   UNL     1      33.645  -7.483 -24.025  0.00  0.00    -0.301 OA
ATOM     21  H   UNL     1      33.255  -7.763 -24.868  0.00  0.00    +0.222 HD
ENDBRANCH  17  20
ENDBRANCH  16  17
ENDBRANCH  15  16
ENDBRANCH   6  15
ENDBRANCH   4   7
BRANCH   3  22
ATOM     22  C   UNL     1      36.504 -17.472 -21.307  0.00  0.00    +0.075 C 
BRANCH  22  23
ATOM     23  C   UNL     1      35.811 -18.613 -20.573  0.00  0.00    -0.016 C 
ATOM     24  C   UNL     1      34.433 -18.787 -20.699  0.00  0.00    -0.004 C 
ATOM     25  C   UNL     1      36.554 -19.483 -19.776  0.00  0.00    -0.004 C 
ATOM     26  C   UNL     1      34.541 -20.702 -19.231  0.00  0.00    +0.021 C 
ATOM     27  C   UNL     1      33.798 -19.832 -20.028  0.00  0.00    -0.001 C 
ATOM     28  C   UNL     1      35.919 -20.528 -19.104  0.00  0.00    -0.001 C 
BRANCH  26  29
ATOM     29  C   UNL     1      33.862 -21.821 -18.515  0.00  0.00    +0.234 C 
BRANCH  29  30
ATOM     30  O   UNL     1      34.734 -22.343 -17.520  0.00  0.00    -0.455 OA
BRANCH  30  32
ATOM     31  N   UNL     1      34.986 -23.223 -15.388  0.00  0.00    -0.210 NA
ATOM     32  C   UNL     1      34.161 -22.724 -16.335  0.00  0.00    +0.225 C 
ATOM     33  C   UNL     1      32.793 -22.577 -16.173  0.00  0.00    +0.058 C 
ATOM     34  C   UNL     1      32.235 -22.969 -14.961  0.00  0.00    +0.006 C 
ATOM     35  C   UNL     1      34.409 -23.593 -14.222  0.00  0.00    +0.102 C 
ATOM     36  C   UNL     1      33.052 -23.487 -13.962  0.00  0.00    +0.021 C 
ENDBRANCH  30  32
ENDBRANCH  29  30
ENDBRANCH  26  29
ENDBRANCH  22  23
ENDBRANCH   3  22
TORSDOF 11
ENDMDL
MODEL 8
REMARK VINA RESULT:     -12.1      4.118      6.852
REMARK  Name = 44123754
REMARK  11 active torsions:
REMARK  status: ('A' for Active; 'I' for Inactive)
REMARK    1  A    between atoms: C_3  and  C_22
REMARK    2  A    between atoms: C_4  and  C_7
REMARK    3  A    between atoms: N_6  and  C_15
REMARK    4  A    between atoms: C_8  and  N_12
REMARK    5  A    between atoms: C_15  and  O_16
REMARK    6  A    between atoms: O_16  and  P_17
REMARK    7  A    between atoms: P_17  and  O_20
REMARK    8  A    between atoms: C_22  and  C_23
REMARK    9  A    between atoms: C_26  and  C_29
REMARK   10  A    between atoms: C_29  and  O_30
REMARK   11  A    between atoms: O_30  and  C_32
REMARK                            x       y       z     vdW  Elec       q    Type
REMARK                         _______ _______ _______ _____ _____    ______ ____
ROOT
ATOM      1  O   UNL     1      33.967 -20.025 -19.773  0.00  0.00    -0.354 OA
ATOM      2  N   UNL     1      34.035 -19.280 -20.945  0.00  0.00    -0.081 NA
ATOM      3  C   UNL     1      35.340 -19.084 -21.154  0.00  0.00    +0.105 C 
ATOM      4  C   UNL     1      35.224 -20.253 -19.313  0.00  0.00    +0.175 C 
ATOM      5  C   UNL     1      36.135 -19.675 -20.156  0.00  0.00    +0.058 C 
ENDROOT
BRANCH   4   7
ATOM      6  N   UNL     1      34.365 -22.448 -16.465  0.00  0.00    -0.266 N 
ATOM      7  C   UNL     1      35.313 -21.021 -18.093  0.00  0.00    +0.048 C 
ATOM      8  C   UNL     1      34.239 -21.749 -17.601  0.00  0.00    +0.156 C 
ATOM      9  C   UNL     1      36.511 -21.035 -17.386  0.00  0.00    +0.003 C 
ATOM     10  C   UNL     1      35.507 -22.478 -15.765  0.00  0.00    +0.064 C 
ATOM     11  C   UNL     1      36.614 -21.769 -16.208  0.00  0.00    +0.016 C 
BRANCH   8  12
ATOM     12  N   UNL     1      33.006 -21.762 -18.289  0.00  0.00    -0.303 NA
ATOM     13  H   UNL     1      32.194 -22.090 -17.838  0.00  0.00    +0.121 HD
ATOM     14  H   UNL     1      32.958 -21.443 -19.219  0.00  0.00    +0.121 HD
ENDBRANCH   8  12
BRANCH   6  15
ATOM     15  C   UNL     1      33.231 -23.216 -15.947  0.00  0.00    +0.251 C 
BRANCH  15  16
ATOM     16  O   UNL     1      32.381 -22.338 -15.221  0.00  0.00    -0.250 OA
BRANCH  16  17
ATOM     17  P   UNL     1      30.761 -22.516 -15.337  0.00  0.00    +0.504 P 
ATOM     18  O   UNL     1      30.272 -21.919 -16.639  0.00  0.00    -0.225 OA
ATOM     19  O   UNL     1      30.138 -22.103 -14.022  0.00  0.00    -0.116 OA
BRANCH  17  20
ATOM     20  O   UNL     1      30.678 -24.144 -15.448  0.00  0.00    -0.301 OA
ATOM     21  H   UNL     1      31.573 -24.517 -15.414  0.00  0.00    +0.222 HD
ENDBRANCH  17  20
ENDBRANCH  16  17
ENDBRANCH  15  16
ENDBRANCH   6  15
ENDBRANCH   4   7
BRANCH   3  22
ATOM     22  C   UNL     1      35.789 -18.318 -22.328  0.00  0.00    +0.075 C 
BRANCH  22  23
ATOM     23  C   UNL     1      35.390 -16.848 -22.317  0.00  0.00    -0.016 C 
ATOM     24  C   UNL     1      35.352 -16.145 -21.113  0.00  0.00    -0.004 C 
ATOM     25  C   UNL     1      35.065 -16.204 -23.511  0.00  0.00    -0.004 C 
ATOM     26  C   UNL     1      34.662 -14.155 -22.297  0.00  0.00    +0.021 C 
ATOM     27  C   UNL     1      34.987 -14.799 -21.102  0.00  0.00    -0.001 C 
ATOM     28  C   UNL     1      34.700 -14.858 -23.501  0.00  0.00    -0.001 C 
BRANCH  26  29
ATOM     29  C   UNL     1      34.275 -12.716 -22.285  0.00  0.00    +0.234 C 
BRANCH  29  30
ATOM     30  O   UNL     1      32.861 -12.607 -22.178  0.00  0.00    -0.455 OA
BRANCH  30  32
ATOM     31  N   UNL     1      32.113 -10.522 -21.489  0.00  0.00    -0.210 NA
ATOM     32  C   UNL     1      32.377 -11.810 -21.174  0.00  0.00    +0.225 C 
ATOM     33  C   UNL     1      32.186 -12.356 -19.916  0.00  0.00    +0.058 C 
ATOM     34  C   UNL     1      31.693 -11.527 -18.914  0.00  0.00    +0.006 C 
ATOM     35  C   UNL     1      31.633  -9.746 -20.490  0.00  0.00    +0.102 C 
ATOM     36  C   UNL     1      31.408 -10.196 -19.199  0.00  0.00    +0.021 C 
ENDBRANCH  30  32
ENDBRANCH  29  30
ENDBRANCH  26  29
ENDBRANCH  22  23
ENDBRANCH   3  22
TORSDOF 11
ENDMDL
MODEL 9
REMARK VINA RESULT:     -11.8      4.286      6.267
REMARK  Name = 44123754
REMARK  11 active torsions:
REMARK  status: ('A' for Active; 'I' for Inactive)
REMARK    1  A    between atoms: C_3  and  C_22
REMARK    2  A    between atoms: C_4  and  C_7
REMARK    3  A    between atoms: N_6  and  C_15
REMARK    4  A    between atoms: C_8  and  N_12
REMARK    5  A    between atoms: C_15  and  O_16
REMARK    6  A    between atoms: O_16  and  P_17
REMARK    7  A    between atoms: P_17  and  O_20
REMARK    8  A    between atoms: C_22  and  C_23
REMARK    9  A    between atoms: C_26  and  C_29
REMARK   10  A    between atoms: C_29  and  O_30
REMARK   11  A    between atoms: O_30  and  C_32
REMARK                            x       y       z     vdW  Elec       q    Type
REMARK                         _______ _______ _______ _____ _____    ______ ____
ROOT
ATOM      1  O   UNL     1      33.759 -22.827 -17.836  0.00  0.00    -0.354 OA
ATOM      2  N   UNL     1      34.690 -22.297 -18.722  0.00  0.00    -0.081 NA
ATOM      3  C   UNL     1      35.512 -21.567 -17.963  0.00  0.00    +0.105 C 
ATOM      4  C   UNL     1      34.045 -22.403 -16.578  0.00  0.00    +0.175 C 
ATOM      5  C   UNL     1      35.153 -21.598 -16.604  0.00  0.00    +0.058 C 
ENDROOT
BRANCH   4   7
ATOM      6  N   UNL     1      30.994 -23.370 -14.729  0.00  0.00    -0.266 N 
ATOM      7  C   UNL     1      33.157 -22.876 -15.542  0.00  0.00    +0.048 C 
ATOM      8  C   UNL     1      31.781 -22.923 -15.717  0.00  0.00    +0.156 C 
ATOM      9  C   UNL     1      33.693 -23.299 -14.330  0.00  0.00    +0.003 C 
ATOM     10  C   UNL     1      31.483 -23.782 -13.553  0.00  0.00    +0.064 C 
ATOM     11  C   UNL     1      32.850 -23.758 -13.321  0.00  0.00    +0.016 C 
BRANCH   8  12
ATOM     12  N   UNL     1      31.197 -22.503 -16.932  0.00  0.00    -0.303 NA
ATOM     13  H   UNL     1      31.739 -22.474 -17.754  0.00  0.00    +0.121 HD
ATOM     14  H   UNL     1      30.249 -22.240 -16.957  0.00  0.00    +0.121 HD
ENDBRANCH   8  12
BRANCH   6  15
ATOM     15  C   UNL     1      29.541 -23.419 -14.916  0.00  0.00    +0.251 C 
BRANCH  15  16
ATOM     16  O   UNL     1      29.090 -22.131 -15.309  0.00  0.00    -0.250 OA
BRANCH  16  17
ATOM     17  P   UNL     1      27.582 -21.963 -15.917  0.00  0.00    +0.504 P 
ATOM     18  O   UNL     1      27.519 -20.732 -16.795  0.00  0.00    -0.225 OA
ATOM     19  O   UNL     1      26.588 -22.155 -14.793  0.00  0.00    -0.116 OA
BRANCH  17  20
ATOM     20  O   UNL     1      27.530 -23.287 -16.872  0.00  0.00    -0.301 OA
ATOM     21  H   UNL     1      26.606 -23.536 -17.029  0.00  0.00    +0.222 HD
ENDBRANCH  17  20
ENDBRANCH  16  17
ENDBRANCH  15  16
ENDBRANCH   6  15
ENDBRANCH   4   7
BRANCH   3  22
ATOM     22  C   UNL     1      36.639 -20.849 -18.581  0.00  0.00    +0.075 C 
BRANCH  22  23
ATOM     23  C   UNL     1      36.238 -19.844 -19.654  0.00  0.00    -0.016 C 
ATOM     24  C   UNL     1      37.175 -18.931 -20.138  0.00  0.00    -0.004 C 
ATOM     25  C   UNL     1      34.935 -19.838 -20.152  0.00  0.00    -0.004 C 
ATOM     26  C   UNL     1      35.506 -18.005 -21.619  0.00  0.00    +0.021 C 
ATOM     27  C   UNL     1      36.809 -18.011 -21.120  0.00  0.00    -0.001 C 
ATOM     28  C   UNL     1      34.569 -18.918 -21.134  0.00  0.00    -0.001 C 
BRANCH  26  29
ATOM     29  C   UNL     1      35.116 -17.023 -22.671  0.00  0.00    +0.234 C 
BRANCH  29  30
ATOM     30  O   UNL     1      35.698 -15.759 -22.377  0.00  0.00    -0.455 OA
BRANCH  30  32
ATOM     31  N   UNL     1      34.619 -14.383 -20.852  0.00  0.00    -0.210 NA
ATOM     32  C   UNL     1      34.835 -14.721 -22.143  0.00  0.00    +0.225 C 
ATOM     33  C   UNL     1      34.244 -14.083 -23.221  0.00  0.00    +0.058 C 
ATOM     34  C   UNL     1      33.373 -13.031 -22.958  0.00  0.00    +0.006 C 
ATOM     35  C   UNL     1      33.767 -13.356 -20.634  0.00  0.00    +0.102 C 
ATOM     36  C   UNL     1      33.125 -12.654 -21.642  0.00  0.00    +0.021 C 
ENDBRANCH  30  32
ENDBRANCH  29  30
ENDBRANCH  26  29
ENDBRANCH  22  23
ENDBRANCH   3  22
TORSDOF 11
ENDMDL
