MODEL 1
REMARK VINA RESULT:     -11.9      0.000      0.000
REMARK  Name = 25113614
REMARK  7 active torsions:
REMARK  status: ('A' for Active; 'I' for Inactive)
REMARK    1  A    between atoms: C_3  and  C_10
REMARK    2  A    between atoms: C_7  and  C_25
REMARK    3  A    between atoms: N_9  and  C_12
REMARK    4  A    between atoms: C_12  and  C_13
REMARK    5  A    between atoms: C_18  and  C_21
REMARK    6  A    between atoms: C_25  and  N_26
REMARK    7  A    between atoms: N_26  and  C_29
REMARK                            x       y       z     vdW  Elec       q    Type
REMARK                         _______ _______ _______ _____ _____    ______ ____
ROOT
ATOM      1  O   UNL     1      38.905 -22.017 -15.353  0.00  0.00    -0.277 OA
ATOM      2  N   UNL     1      37.552 -23.735 -14.610  0.00  0.00    -0.275 N 
ATOM      3  C   UNL     1      36.316 -24.514 -14.605  0.00  0.00    +0.152 C 
ATOM      4  C   UNL     1      36.741 -25.901 -14.131  0.00  0.00    +0.031 C 
ATOM      5  C   UNL     1      38.621 -24.444 -13.919  0.00  0.00    +0.094 C 
ATOM      6  C   UNL     1      37.939 -25.614 -13.229  0.00  0.00    +0.024 C 
ATOM      7  C   UNL     1      37.796 -22.550 -15.285  0.00  0.00    +0.204 C 
ENDROOT
BRANCH   3  10
ATOM      8  O   UNL     1      35.773 -23.163 -12.713  0.00  0.00    -0.273 OA
ATOM      9  N   UNL     1      34.056 -24.234 -13.864  0.00  0.00    -0.299 N 
ATOM     10  C   UNL     1      35.374 -23.885 -13.624  0.00  0.00    +0.241 C 
ATOM     11  H   UNL     1      33.860 -24.822 -14.629  0.00  0.00    +0.150 HD
BRANCH   9  12
ATOM     12  C   UNL     1      32.955 -23.777 -13.047  0.00  0.00    +0.116 C 
BRANCH  12  13
ATOM     13  C   UNL     1      31.715 -23.538 -13.859  0.00  0.00    -0.003 C 
ATOM     14  C   UNL     1      30.557 -24.271 -13.596  0.00  0.00    -0.003 C 
ATOM     15  C   UNL     1      31.720 -22.584 -14.876  0.00  0.00    -0.003 C 
ATOM     16  C   UNL     1      29.406 -24.050 -14.351  0.00  0.00    +0.002 C 
ATOM     17  C   UNL     1      30.569 -22.363 -15.631  0.00  0.00    +0.002 C 
ATOM     18  C   UNL     1      29.411 -23.095 -15.369  0.00  0.00    +0.031 C 
BRANCH  18  21
ATOM     19  N   UNL     1      27.484 -21.682 -16.042  0.00  0.00    -0.343 N 
ATOM     20  N   UNL     1      27.785 -23.794 -16.995  0.00  0.00    -0.285 NA
ATOM     21  C   UNL     1      28.210 -22.865 -16.155  0.00  0.00    +0.117 C 
ATOM     22  H   UNL     1      26.673 -21.546 -16.584  0.00  0.00    +0.144 HD
ATOM     23  H   UNL     1      27.782 -20.979 -15.419  0.00  0.00    +0.144 HD
ATOM     24  H   UNL     1      26.973 -23.640 -17.529  0.00  0.00    +0.188 HD
ENDBRANCH  18  21
ENDBRANCH  12  13
ENDBRANCH   9  12
ENDBRANCH   3  10
BRANCH   7  25
ATOM     25  C   UNL     1      36.608 -21.915 -15.961  0.00  0.00    +0.006 C 
BRANCH  25  26
ATOM     26  N   UNL     1      37.123 -21.101 -17.050  0.00  0.00    +0.391 N 
ATOM     27  H   UNL     1      37.179 -20.129 -16.744  0.00  0.00    -0.084 HD
ATOM     28  H   UNL     1      38.048 -21.443 -17.308  0.00  0.00    -0.084 HD
BRANCH  26  29
ATOM     29  C   UNL     1      36.240 -21.189 -18.219  0.00  0.00    -0.061 C 
ATOM     30  C   UNL     1      36.501 -19.963 -19.101  0.00  0.00    -0.021 C 
ATOM     31  C   UNL     1      34.791 -21.332 -17.732  0.00  0.00    -0.021 C 
ATOM     32  C   UNL     1      35.615 -19.849 -20.342  0.00  0.00    -0.002 C 
ATOM     33  C   UNL     1      33.828 -21.734 -18.848  0.00  0.00    -0.002 C 
ATOM     34  C   UNL     1      34.187 -19.433 -20.007  0.00  0.00    -0.000 C 
ATOM     35  C   UNL     1      33.245 -20.579 -19.654  0.00  0.00    -0.000 C 
ENDBRANCH  26  29
ENDBRANCH  25  26
ENDBRANCH   7  25
TORSDOF 7
ENDMDL
MODEL 2
REMARK VINA RESULT:     -11.5      2.347      6.361
REMARK  Name = 25113614
REMARK  7 active torsions:
REMARK  status: ('A' for Active; 'I' for Inactive)
REMARK    1  A    between atoms: C_3  and  C_10
REMARK    2  A    between atoms: C_7  and  C_25
REMARK    3  A    between atoms: N_9  and  C_12
REMARK    4  A    between atoms: C_12  and  C_13
REMARK    5  A    between atoms: C_18  and  C_21
REMARK    6  A    between atoms: C_25  and  N_26
REMARK    7  A    between atoms: N_26  and  C_29
REMARK                            x       y       z     vdW  Elec       q    Type
REMARK                         _______ _______ _______ _____ _____    ______ ____
ROOT
ATOM      1  O   UNL     1      35.439 -24.574 -11.303  0.00  0.00    -0.277 OA
ATOM      2  N   UNL     1      36.229 -23.440 -13.154  0.00  0.00    -0.275 N 
ATOM      3  C   UNL     1      36.143 -22.415 -14.192  0.00  0.00    +0.152 C 
ATOM      4  C   UNL     1      37.595 -22.119 -14.558  0.00  0.00    +0.031 C 
ATOM      5  C   UNL     1      37.579 -23.982 -13.064  0.00  0.00    +0.094 C 
ATOM      6  C   UNL     1      38.305 -23.443 -14.285  0.00  0.00    +0.024 C 
ATOM      7  C   UNL     1      35.251 -23.794 -12.239  0.00  0.00    +0.204 C 
ENDROOT
BRANCH   3  10
ATOM      8  O   UNL     1      35.293 -24.215 -15.511  0.00  0.00    -0.273 OA
ATOM      9  N   UNL     1      34.931 -22.027 -16.221  0.00  0.00    -0.299 N 
ATOM     10  C   UNL     1      35.412 -23.001 -15.363  0.00  0.00    +0.241 C 
ATOM     11  H   UNL     1      35.089 -21.082 -15.992  0.00  0.00    +0.150 HD
BRANCH   9  12
ATOM     12  C   UNL     1      34.209 -22.330 -17.435  0.00  0.00    +0.116 C 
BRANCH  12  13
ATOM     13  C   UNL     1      34.450 -21.302 -18.502  0.00  0.00    -0.003 C 
ATOM     14  C   UNL     1      35.754 -20.979 -18.879  0.00  0.00    -0.003 C 
ATOM     15  C   UNL     1      33.370 -20.667 -19.117  0.00  0.00    -0.003 C 
ATOM     16  C   UNL     1      35.977 -20.023 -19.869  0.00  0.00    +0.002 C 
ATOM     17  C   UNL     1      33.593 -19.711 -20.106  0.00  0.00    +0.002 C 
ATOM     18  C   UNL     1      34.897 -19.389 -20.484  0.00  0.00    +0.031 C 
BRANCH  18  21
ATOM     19  N   UNL     1      35.680 -17.148 -21.213  0.00  0.00    -0.343 N 
ATOM     20  N   UNL     1      34.816 -18.659 -22.772  0.00  0.00    -0.285 NA
ATOM     21  C   UNL     1      35.131 -18.392 -21.516  0.00  0.00    +0.117 C 
ATOM     22  H   UNL     1      35.830 -16.488 -21.928  0.00  0.00    +0.144 HD
ATOM     23  H   UNL     1      35.918 -16.929 -20.283  0.00  0.00    +0.144 HD
ATOM     24  H   UNL     1      34.974 -17.987 -23.473  0.00  0.00    +0.188 HD
ENDBRANCH  18  21
ENDBRANCH  12  13
ENDBRANCH   9  12
ENDBRANCH   3  10
BRANCH   7  25
ATOM     25  C   UNL     1      33.896 -23.164 -12.439  0.00  0.00    +0.006 C 
BRANCH  25  26
ATOM     26  N   UNL     1      32.937 -24.248 -12.566  0.00  0.00    +0.391 N 
ATOM     27  H   UNL     1      33.439 -25.133 -12.636  0.00  0.00    -0.084 HD
ATOM     28  H   UNL     1      32.332 -24.250 -11.744  0.00  0.00    -0.084 HD
BRANCH  26  29
ATOM     29  C   UNL     1      32.110 -24.064 -13.764  0.00  0.00    -0.061 C 
ATOM     30  C   UNL     1      32.106 -22.572 -14.112  0.00  0.00    -0.021 C 
ATOM     31  C   UNL     1      30.722 -24.665 -13.500  0.00  0.00    -0.021 C 
ATOM     32  C   UNL     1      31.232 -22.180 -15.304  0.00  0.00    -0.002 C 
ATOM     33  C   UNL     1      29.883 -24.803 -14.770  0.00  0.00    -0.002 C 
ATOM     34  C   UNL     1      29.743 -22.213 -14.976  0.00  0.00    -0.000 C 
ATOM     35  C   UNL     1      29.072 -23.570 -15.152  0.00  0.00    -0.000 C 
ENDBRANCH  26  29
ENDBRANCH  25  26
ENDBRANCH   7  25
TORSDOF 7
ENDMDL
MODEL 3
REMARK VINA RESULT:     -10.3      2.120      5.667
REMARK  Name = 25113614
REMARK  7 active torsions:
REMARK  status: ('A' for Active; 'I' for Inactive)
REMARK    1  A    between atoms: C_3  and  C_10
REMARK    2  A    between atoms: C_7  and  C_25
REMARK    3  A    between atoms: N_9  and  C_12
REMARK    4  A    between atoms: C_12  and  C_13
REMARK    5  A    between atoms: C_18  and  C_21
REMARK    6  A    between atoms: C_25  and  N_26
REMARK    7  A    between atoms: N_26  and  C_29
REMARK                            x       y       z     vdW  Elec       q    Type
REMARK                         _______ _______ _______ _____ _____    ______ ____
ROOT
ATOM      1  O   UNL     1      35.356 -25.784 -15.183  0.00  0.00    -0.277 OA
ATOM      2  N   UNL     1      36.882 -24.826 -13.737  0.00  0.00    -0.275 N 
ATOM      3  C   UNL     1      37.272 -23.899 -12.677  0.00  0.00    +0.152 C 
ATOM      4  C   UNL     1      38.475 -24.563 -12.013  0.00  0.00    +0.031 C 
ATOM      5  C   UNL     1      37.905 -25.842 -13.948  0.00  0.00    +0.094 C 
ATOM      6  C   UNL     1      39.107 -25.366 -13.148  0.00  0.00    +0.024 C 
ATOM      7  C   UNL     1      35.663 -24.890 -14.392  0.00  0.00    +0.204 C 
ENDROOT
BRANCH   3  10
ATOM      8  O   UNL     1      37.948 -21.610 -12.650  0.00  0.00    -0.273 OA
ATOM      9  N   UNL     1      37.657 -22.675 -14.699  0.00  0.00    -0.299 N 
ATOM     10  C   UNL     1      37.669 -22.603 -13.317  0.00  0.00    +0.241 C 
ATOM     11  H   UNL     1      37.416 -23.532 -15.121  0.00  0.00    +0.150 HD
BRANCH   9  12
ATOM     12  C   UNL     1      37.980 -21.555 -15.552  0.00  0.00    +0.116 C 
BRANCH  12  13
ATOM     13  C   UNL     1      36.931 -21.327 -16.601  0.00  0.00    -0.003 C 
ATOM     14  C   UNL     1      37.225 -20.557 -17.727  0.00  0.00    -0.003 C 
ATOM     15  C   UNL     1      35.660 -21.882 -16.450  0.00  0.00    -0.003 C 
ATOM     16  C   UNL     1      36.250 -20.344 -18.701  0.00  0.00    +0.002 C 
ATOM     17  C   UNL     1      34.685 -21.669 -17.424  0.00  0.00    +0.002 C 
ATOM     18  C   UNL     1      34.980 -20.900 -18.550  0.00  0.00    +0.031 C 
BRANCH  18  21
ATOM     19  N   UNL     1      34.111 -19.688 -20.535  0.00  0.00    -0.343 N 
ATOM     20  N   UNL     1      32.871 -21.422 -19.578  0.00  0.00    -0.285 NA
ATOM     21  C   UNL     1      33.964 -20.678 -19.566  0.00  0.00    +0.117 C 
ATOM     22  H   UNL     1      33.411 -19.554 -21.214  0.00  0.00    +0.144 HD
ATOM     23  H   UNL     1      34.916 -19.121 -20.540  0.00  0.00    +0.144 HD
ATOM     24  H   UNL     1      32.183 -21.274 -20.265  0.00  0.00    +0.188 HD
ENDBRANCH  18  21
ENDBRANCH  12  13
ENDBRANCH   9  12
ENDBRANCH   3  10
BRANCH   7  25
ATOM     25  C   UNL     1      34.688 -23.781 -14.088  0.00  0.00    +0.006 C 
BRANCH  25  26
ATOM     26  N   UNL     1      33.535 -24.392 -13.449  0.00  0.00    +0.391 N 
ATOM     27  H   UNL     1      33.726 -25.381 -13.286  0.00  0.00    -0.084 HD
ATOM     28  H   UNL     1      33.359 -23.917 -12.563  0.00  0.00    -0.084 HD
BRANCH  26  29
ATOM     29  C   UNL     1      32.347 -24.263 -14.301  0.00  0.00    -0.061 C 
ATOM     30  C   UNL     1      32.341 -22.850 -14.893  0.00  0.00    -0.021 C 
ATOM     31  C   UNL     1      31.105 -24.616 -13.469  0.00  0.00    -0.021 C 
ATOM     32  C   UNL     1      31.128 -22.509 -15.760  0.00  0.00    -0.002 C 
ATOM     33  C   UNL     1      29.854 -24.811 -14.325  0.00  0.00    -0.002 C 
ATOM     34  C   UNL     1      29.864 -22.283 -14.940  0.00  0.00    -0.000 C 
ATOM     35  C   UNL     1      29.064 -23.542 -14.623  0.00  0.00    -0.000 C 
ENDBRANCH  26  29
ENDBRANCH  25  26
ENDBRANCH   7  25
TORSDOF 7
ENDMDL
MODEL 4
REMARK VINA RESULT:     -10.3      8.314     12.257
REMARK  Name = 25113614
REMARK  7 active torsions:
REMARK  status: ('A' for Active; 'I' for Inactive)
REMARK    1  A    between atoms: C_3  and  C_10
REMARK    2  A    between atoms: C_7  and  C_25
REMARK    3  A    between atoms: N_9  and  C_12
REMARK    4  A    between atoms: C_12  and  C_13
REMARK    5  A    between atoms: C_18  and  C_21
REMARK    6  A    between atoms: C_25  and  N_26
REMARK    7  A    between atoms: N_26  and  C_29
REMARK                            x       y       z     vdW  Elec       q    Type
REMARK                         _______ _______ _______ _____ _____    ______ ____
ROOT
ATOM      1  O   UNL     1      34.612 -17.580 -23.611  0.00  0.00    -0.277 OA
ATOM      2  N   UNL     1      34.517 -15.294 -23.282  0.00  0.00    -0.275 N 
ATOM      3  C   UNL     1      34.931 -14.050 -22.637  0.00  0.00    +0.152 C 
ATOM      4  C   UNL     1      34.638 -12.968 -23.673  0.00  0.00    +0.031 C 
ATOM      5  C   UNL     1      33.750 -15.028 -24.492  0.00  0.00    +0.094 C 
ATOM      6  C   UNL     1      33.456 -13.537 -24.455  0.00  0.00    +0.024 C 
ATOM      7  C   UNL     1      34.891 -16.584 -22.940  0.00  0.00    +0.204 C 
ENDROOT
BRANCH   3  10
ATOM      8  O   UNL     1      34.251 -14.524 -20.398  0.00  0.00    -0.273 OA
ATOM      9  N   UNL     1      33.117 -12.883 -21.597  0.00  0.00    -0.299 N 
ATOM     10  C   UNL     1      34.083 -13.857 -21.416  0.00  0.00    +0.241 C 
ATOM     11  H   UNL     1      33.082 -12.414 -22.463  0.00  0.00    +0.150 HD
BRANCH   9  12
ATOM     12  C   UNL     1      32.158 -12.520 -20.579  0.00  0.00    +0.116 C 
BRANCH  12  13
ATOM     13  C   UNL     1      32.170 -11.047 -20.294  0.00  0.00    -0.003 C 
ATOM     14  C   UNL     1      32.227 -10.133 -21.347  0.00  0.00    -0.003 C 
ATOM     15  C   UNL     1      32.128 -10.590 -18.977  0.00  0.00    -0.003 C 
ATOM     16  C   UNL     1      32.241  -8.764 -21.083  0.00  0.00    +0.002 C 
ATOM     17  C   UNL     1      32.142  -9.222 -18.712  0.00  0.00    +0.002 C 
ATOM     18  C   UNL     1      32.198  -8.307 -19.765  0.00  0.00    +0.031 C 
BRANCH  18  21
ATOM     19  N   UNL     1      31.885  -5.948 -20.473  0.00  0.00    -0.343 N 
ATOM     20  N   UNL     1      32.545  -6.445 -18.287  0.00  0.00    -0.285 NA
ATOM     21  C   UNL     1      32.212  -6.880 -19.490  0.00  0.00    +0.117 C 
ATOM     22  H   UNL     1      31.901  -4.986 -20.265  0.00  0.00    +0.144 HD
ATOM     23  H   UNL     1      31.638  -6.252 -21.376  0.00  0.00    +0.144 HD
ATOM     24  H   UNL     1      32.554  -5.479 -18.098  0.00  0.00    +0.188 HD
ENDBRANCH  18  21
ENDBRANCH  12  13
ENDBRANCH   9  12
ENDBRANCH   3  10
BRANCH   7  25
ATOM     25  C   UNL     1      35.685 -16.728 -21.666  0.00  0.00    +0.006 C 
BRANCH  25  26
ATOM     26  N   UNL     1      36.104 -18.116 -21.581  0.00  0.00    +0.391 N 
ATOM     27  H   UNL     1      35.796 -18.612 -22.418  0.00  0.00    -0.084 HD
ATOM     28  H   UNL     1      37.121 -18.150 -21.506  0.00  0.00    -0.084 HD
BRANCH  26  29
ATOM     29  C   UNL     1      35.520 -18.758 -20.397  0.00  0.00    -0.061 C 
ATOM     30  C   UNL     1      36.553 -19.743 -19.836  0.00  0.00    -0.021 C 
ATOM     31  C   UNL     1      34.179 -19.392 -20.793  0.00  0.00    -0.021 C 
ATOM     32  C   UNL     1      36.088 -20.561 -18.630  0.00  0.00    -0.002 C 
ATOM     33  C   UNL     1      33.346 -19.819 -19.585  0.00  0.00    -0.002 C 
ATOM     34  C   UNL     1      35.098 -21.655 -19.010  0.00  0.00    -0.000 C 
ATOM     35  C   UNL     1      33.638 -21.219 -19.055  0.00  0.00    -0.000 C 
ENDBRANCH  26  29
ENDBRANCH  25  26
ENDBRANCH   7  25
TORSDOF 7
ENDMDL
MODEL 5
REMARK VINA RESULT:     -10.3      2.606      7.692
REMARK  Name = 25113614
REMARK  7 active torsions:
REMARK  status: ('A' for Active; 'I' for Inactive)
REMARK    1  A    between atoms: C_3  and  C_10
REMARK    2  A    between atoms: C_7  and  C_25
REMARK    3  A    between atoms: N_9  and  C_12
REMARK    4  A    between atoms: C_12  and  C_13
REMARK    5  A    between atoms: C_18  and  C_21
REMARK    6  A    between atoms: C_25  and  N_26
REMARK    7  A    between atoms: N_26  and  C_29
REMARK                            x       y       z     vdW  Elec       q    Type
REMARK                         _______ _______ _______ _____ _____    ______ ____
ROOT
ATOM      1  O   UNL     1      32.299 -22.963 -12.568  0.00  0.00    -0.277 OA
ATOM      2  N   UNL     1      32.910 -22.846 -14.794  0.00  0.00    -0.275 N 
ATOM      3  C   UNL     1      33.725 -23.226 -15.945  0.00  0.00    +0.152 C 
ATOM      4  C   UNL     1      32.823 -22.975 -17.150  0.00  0.00    +0.031 C 
ATOM      5  C   UNL     1      31.712 -22.131 -15.213  0.00  0.00    +0.094 C 
ATOM      6  C   UNL     1      31.925 -21.830 -16.687  0.00  0.00    +0.024 C 
ATOM      7  C   UNL     1      33.103 -23.209 -13.470  0.00  0.00    +0.204 C 
ENDROOT
BRANCH   3  10
ATOM      8  O   UNL     1      35.487 -21.953 -14.958  0.00  0.00    -0.273 OA
ATOM      9  N   UNL     1      35.273 -21.974 -17.276  0.00  0.00    -0.299 N 
ATOM     10  C   UNL     1      34.923 -22.326 -15.984  0.00  0.00    +0.241 C 
ATOM     11  H   UNL     1      34.742 -22.340 -18.021  0.00  0.00    +0.150 HD
BRANCH   9  12
ATOM     12  C   UNL     1      36.379 -21.098 -17.585  0.00  0.00    +0.116 C 
BRANCH  12  13
ATOM     13  C   UNL     1      36.113 -20.267 -18.807  0.00  0.00    -0.003 C 
ATOM     14  C   UNL     1      34.827 -20.209 -19.344  0.00  0.00    -0.003 C 
ATOM     15  C   UNL     1      37.152 -19.556 -19.407  0.00  0.00    -0.003 C 
ATOM     16  C   UNL     1      34.580 -19.439 -20.480  0.00  0.00    +0.002 C 
ATOM     17  C   UNL     1      36.905 -18.786 -20.543  0.00  0.00    +0.002 C 
ATOM     18  C   UNL     1      35.619 -18.726 -21.080  0.00  0.00    +0.031 C 
BRANCH  18  21
ATOM     19  N   UNL     1      34.421 -18.315 -23.216  0.00  0.00    -0.343 N 
ATOM     20  N   UNL     1      36.028 -16.799 -22.455  0.00  0.00    -0.285 NA
ATOM     21  C   UNL     1      35.360 -17.924 -22.264  0.00  0.00    +0.117 C 
ATOM     22  H   UNL     1      34.262 -17.756 -24.010  0.00  0.00    +0.144 HD
ATOM     23  H   UNL     1      33.917 -19.151 -23.094  0.00  0.00    +0.144 HD
ATOM     24  H   UNL     1      35.854 -16.253 -23.255  0.00  0.00    +0.188 HD
ENDBRANCH  18  21
ENDBRANCH  12  13
ENDBRANCH   9  12
ENDBRANCH   3  10
BRANCH   7  25
ATOM     25  C   UNL     1      34.381 -23.947 -13.165  0.00  0.00    +0.006 C 
BRANCH  25  26
ATOM     26  N   UNL     1      35.106 -23.155 -12.185  0.00  0.00    +0.391 N 
ATOM     27  H   UNL     1      35.286 -22.228 -12.570  0.00  0.00    -0.084 HD
ATOM     28  H   UNL     1      34.542 -23.081 -11.338  0.00  0.00    -0.084 HD
BRANCH  26  29
ATOM     29  C   UNL     1      36.384 -23.796 -11.850  0.00  0.00    -0.061 C 
ATOM     30  C   UNL     1      37.452 -22.700 -11.763  0.00  0.00    -0.021 C 
ATOM     31  C   UNL     1      36.671 -24.892 -12.886  0.00  0.00    -0.021 C 
ATOM     32  C   UNL     1      38.873 -23.193 -11.489  0.00  0.00    -0.002 C 
ATOM     33  C   UNL     1      37.811 -25.819 -12.467  0.00  0.00    -0.002 C 
ATOM     34  C   UNL     1      39.508 -23.861 -12.703  0.00  0.00    -0.000 C 
ATOM     35  C   UNL     1      39.209 -25.349 -12.853  0.00  0.00    -0.000 C 
ENDBRANCH  26  29
ENDBRANCH  25  26
ENDBRANCH   7  25
TORSDOF 7
ENDMDL
MODEL 6
REMARK VINA RESULT:     -10.1      2.191      5.941
REMARK  Name = 25113614
REMARK  7 active torsions:
REMARK  status: ('A' for Active; 'I' for Inactive)
REMARK    1  A    between atoms: C_3  and  C_10
REMARK    2  A    between atoms: C_7  and  C_25
REMARK    3  A    between atoms: N_9  and  C_12
REMARK    4  A    between atoms: C_12  and  C_13
REMARK    5  A    between atoms: C_18  and  C_21
REMARK    6  A    between atoms: C_25  and  N_26
REMARK    7  A    between atoms: N_26  and  C_29
REMARK                            x       y       z     vdW  Elec       q    Type
REMARK                         _______ _______ _______ _____ _____    ______ ____
ROOT
ATOM      1  O   UNL     1      33.691 -24.350 -12.105  0.00  0.00    -0.277 OA
ATOM      2  N   UNL     1      35.802 -23.435 -12.309  0.00  0.00    -0.275 N 
ATOM      3  C   UNL     1      36.745 -22.416 -12.765  0.00  0.00    +0.152 C 
ATOM      4  C   UNL     1      37.893 -22.481 -11.761  0.00  0.00    +0.031 C 
ATOM      5  C   UNL     1      36.405 -24.289 -11.295  0.00  0.00    +0.094 C 
ATOM      6  C   UNL     1      37.884 -23.939 -11.309  0.00  0.00    +0.024 C 
ATOM      7  C   UNL     1      34.460 -23.544 -12.633  0.00  0.00    +0.204 C 
ENDROOT
BRANCH   3  10
ATOM      8  O   UNL     1      37.477 -23.965 -14.427  0.00  0.00    -0.273 OA
ATOM      9  N   UNL     1      37.333 -21.708 -14.976  0.00  0.00    -0.299 N 
ATOM     10  C   UNL     1      37.217 -22.801 -14.135  0.00  0.00    +0.241 C 
ATOM     11  H   UNL     1      37.092 -20.819 -14.625  0.00  0.00    +0.150 HD
BRANCH   9  12
ATOM     12  C   UNL     1      37.790 -21.806 -16.343  0.00  0.00    +0.116 C 
BRANCH  12  13
ATOM     13  C   UNL     1      36.756 -21.322 -17.317  0.00  0.00    -0.003 C 
ATOM     14  C   UNL     1      35.418 -21.685 -17.153  0.00  0.00    -0.003 C 
ATOM     15  C   UNL     1      37.131 -20.512 -18.389  0.00  0.00    -0.003 C 
ATOM     16  C   UNL     1      34.458 -21.238 -18.058  0.00  0.00    +0.002 C 
ATOM     17  C   UNL     1      36.170 -20.064 -19.294  0.00  0.00    +0.002 C 
ATOM     18  C   UNL     1      34.833 -20.426 -19.130  0.00  0.00    +0.031 C 
BRANCH  18  21
ATOM     19  N   UNL     1      34.166 -19.123 -21.135  0.00  0.00    -0.343 N 
ATOM     20  N   UNL     1      32.568 -20.325 -19.927  0.00  0.00    -0.285 NA
ATOM     21  C   UNL     1      33.830 -19.959 -20.073  0.00  0.00    +0.117 C 
ATOM     22  H   UNL     1      33.472 -18.819 -21.763  0.00  0.00    +0.144 HD
ATOM     23  H   UNL     1      35.100 -18.836 -21.259  0.00  0.00    +0.144 HD
ATOM     24  H   UNL     1      31.888 -20.012 -20.565  0.00  0.00    +0.188 HD
ENDBRANCH  18  21
ENDBRANCH  12  13
ENDBRANCH   9  12
ENDBRANCH   3  10
BRANCH   7  25
ATOM     25  C   UNL     1      33.955 -22.602 -13.696  0.00  0.00    +0.006 C 
BRANCH  25  26
ATOM     26  N   UNL     1      33.227 -23.403 -14.665  0.00  0.00    +0.391 N 
ATOM     27  H   UNL     1      33.586 -23.208 -15.600  0.00  0.00    -0.084 HD
ATOM     28  H   UNL     1      33.354 -24.390 -14.439  0.00  0.00    -0.084 HD
BRANCH  26  29
ATOM     29  C   UNL     1      31.795 -23.086 -14.622  0.00  0.00    -0.061 C 
ATOM     30  C   UNL     1      31.036 -24.373 -14.281  0.00  0.00    -0.021 C 
ATOM     31  C   UNL     1      31.395 -22.439 -15.956  0.00  0.00    -0.021 C 
ATOM     32  C   UNL     1      29.512 -24.248 -14.261  0.00  0.00    -0.002 C 
ATOM     33  C   UNL     1      30.009 -21.795 -15.910  0.00  0.00    -0.002 C 
ATOM     34  C   UNL     1      28.913 -24.142 -15.659  0.00  0.00    -0.000 C 
ATOM     35  C   UNL     1      28.847 -22.729 -16.229  0.00  0.00    -0.000 C 
ENDBRANCH  26  29
ENDBRANCH  25  26
ENDBRANCH   7  25
TORSDOF 7
ENDMDL
MODEL 7
REMARK VINA RESULT:      -9.9      3.569      8.518
REMARK  Name = 25113614
REMARK  7 active torsions:
REMARK  status: ('A' for Active; 'I' for Inactive)
REMARK    1  A    between atoms: C_3  and  C_10
REMARK    2  A    between atoms: C_7  and  C_25
REMARK    3  A    between atoms: N_9  and  C_12
REMARK    4  A    between atoms: C_12  and  C_13
REMARK    5  A    between atoms: C_18  and  C_21
REMARK    6  A    between atoms: C_25  and  N_26
REMARK    7  A    between atoms: N_26  and  C_29
REMARK                            x       y       z     vdW  Elec       q    Type
REMARK                         _______ _______ _______ _____ _____    ______ ____
ROOT
ATOM      1  O   UNL     1      34.456 -22.358 -14.771  0.00  0.00    -0.277 OA
ATOM      2  N   UNL     1      34.658 -21.955 -17.036  0.00  0.00    -0.275 N 
ATOM      3  C   UNL     1      35.383 -21.969 -18.305  0.00  0.00    +0.152 C 
ATOM      4  C   UNL     1      34.290 -22.037 -19.368  0.00  0.00    +0.031 C 
ATOM      5  C   UNL     1      33.235 -21.727 -17.249  0.00  0.00    +0.094 C 
ATOM      6  C   UNL     1      33.111 -21.324 -18.709  0.00  0.00    +0.024 C 
ATOM      7  C   UNL     1      35.156 -22.259 -15.780  0.00  0.00    +0.204 C 
ENDROOT
BRANCH   3  10
ATOM      8  O   UNL     1      36.892 -20.295 -17.518  0.00  0.00    -0.273 OA
ATOM      9  N   UNL     1      35.899 -20.026 -19.606  0.00  0.00    -0.299 N 
ATOM     10  C   UNL     1      36.150 -20.686 -18.416  0.00  0.00    +0.241 C 
ATOM     11  H   UNL     1      35.282 -20.443 -20.251  0.00  0.00    +0.150 HD
BRANCH   9  12
ATOM     12  C   UNL     1      36.497 -18.756 -19.948  0.00  0.00    +0.116 C 
BRANCH  12  13
ATOM     13  C   UNL     1      35.896 -18.169 -21.192  0.00  0.00    -0.003 C 
ATOM     14  C   UNL     1      36.034 -16.806 -21.457  0.00  0.00    -0.003 C 
ATOM     15  C   UNL     1      35.198 -18.985 -22.082  0.00  0.00    -0.003 C 
ATOM     16  C   UNL     1      35.474 -16.260 -22.611  0.00  0.00    +0.002 C 
ATOM     17  C   UNL     1      34.638 -18.439 -23.237  0.00  0.00    +0.002 C 
ATOM     18  C   UNL     1      34.776 -17.076 -23.503  0.00  0.00    +0.031 C 
BRANCH  18  21
ATOM     19  N   UNL     1      32.979 -16.964 -25.212  0.00  0.00    -0.343 N 
ATOM     20  N   UNL     1      34.824 -15.536 -25.346  0.00  0.00    -0.285 NA
ATOM     21  C   UNL     1      34.194 -16.506 -24.706  0.00  0.00    +0.117 C 
ATOM     22  H   UNL     1      32.602 -16.564 -26.029  0.00  0.00    +0.144 HD
ATOM     23  H   UNL     1      32.497 -17.688 -24.752  0.00  0.00    +0.144 HD
ATOM     24  H   UNL     1      34.431 -15.147 -26.160  0.00  0.00    +0.188 HD
ENDBRANCH  18  21
ENDBRANCH  12  13
ENDBRANCH   9  12
ENDBRANCH   3  10
BRANCH   7  25
ATOM     25  C   UNL     1      36.646 -22.476 -15.692  0.00  0.00    +0.006 C 
BRANCH  25  26
ATOM     26  N   UNL     1      37.114 -21.742 -14.528  0.00  0.00    +0.391 N 
ATOM     27  H   UNL     1      37.755 -21.008 -14.830  0.00  0.00    -0.084 HD
ATOM     28  H   UNL     1      36.311 -21.333 -14.051  0.00  0.00    -0.084 HD
BRANCH  26  29
ATOM     29  C   UNL     1      37.812 -22.640 -13.600  0.00  0.00    -0.061 C 
ATOM     30  C   UNL     1      38.445 -23.768 -14.422  0.00  0.00    -0.021 C 
ATOM     31  C   UNL     1      36.817 -23.108 -12.528  0.00  0.00    -0.021 C 
ATOM     32  C   UNL     1      39.162 -24.847 -13.608  0.00  0.00    -0.002 C 
ATOM     33  C   UNL     1      37.499 -23.796 -11.347  0.00  0.00    -0.002 C 
ATOM     34  C   UNL     1      38.195 -25.777 -12.885  0.00  0.00    -0.000 C 
ATOM     35  C   UNL     1      37.736 -25.293 -11.513  0.00  0.00    -0.000 C 
ENDBRANCH  26  29
ENDBRANCH  25  26
ENDBRANCH   7  25
TORSDOF 7
ENDMDL
MODEL 8
REMARK VINA RESULT:      -9.8      2.560      7.411
REMARK  Name = 25113614
REMARK  7 active torsions:
REMARK  status: ('A' for Active; 'I' for Inactive)
REMARK    1  A    between atoms: C_3  and  C_10
REMARK    2  A    between atoms: C_7  and  C_25
REMARK    3  A    between atoms: N_9  and  C_12
REMARK    4  A    between atoms: C_12  and  C_13
REMARK    5  A    between atoms: C_18  and  C_21
REMARK    6  A    between atoms: C_25  and  N_26
REMARK    7  A    between atoms: N_26  and  C_29
REMARK                            x       y       z     vdW  Elec       q    Type
REMARK                         _______ _______ _______ _____ _____    ______ ____
ROOT
ATOM      1  O   UNL     1      32.453 -20.603 -18.453  0.00  0.00    -0.277 OA
ATOM      2  N   UNL     1      34.628 -20.470 -19.221  0.00  0.00    -0.275 N 
ATOM      3  C   UNL     1      36.001 -20.955 -19.344  0.00  0.00    +0.152 C 
ATOM      4  C   UNL     1      36.491 -20.381 -20.670  0.00  0.00    +0.031 C 
ATOM      5  C   UNL     1      34.347 -19.436 -20.208  0.00  0.00    +0.094 C 
ATOM      6  C   UNL     1      35.699 -19.083 -20.808  0.00  0.00    +0.024 C 
ATOM      7  C   UNL     1      33.627 -20.976 -18.408  0.00  0.00    +0.204 C 
ENDROOT
BRANCH   3  10
ATOM      8  O   UNL     1      37.264 -19.263 -18.230  0.00  0.00    -0.273 OA
ATOM      9  N   UNL     1      36.934 -21.308 -17.166  0.00  0.00    -0.299 N 
ATOM     10  C   UNL     1      36.794 -20.398 -18.200  0.00  0.00    +0.241 C 
ATOM     11  H   UNL     1      36.508 -22.191 -17.260  0.00  0.00    +0.150 HD
BRANCH   9  12
ATOM     12  C   UNL     1      37.673 -21.025 -15.958  0.00  0.00    +0.116 C 
BRANCH  12  13
ATOM     13  C   UNL     1      37.543 -22.127 -14.948  0.00  0.00    -0.003 C 
ATOM     14  C   UNL     1      36.560 -22.056 -13.960  0.00  0.00    -0.003 C 
ATOM     15  C   UNL     1      38.405 -23.223 -14.995  0.00  0.00    -0.003 C 
ATOM     16  C   UNL     1      36.440 -23.079 -13.021  0.00  0.00    +0.002 C 
ATOM     17  C   UNL     1      38.285 -24.246 -14.056  0.00  0.00    +0.002 C 
ATOM     18  C   UNL     1      37.302 -24.175 -13.069  0.00  0.00    +0.031 C 
BRANCH  18  21
ATOM     19  N   UNL     1      37.432 -26.570 -12.424  0.00  0.00    -0.343 N 
ATOM     20  N   UNL     1      36.805 -24.959 -10.852  0.00  0.00    -0.285 NA
ATOM     21  C   UNL     1      37.175 -25.242 -12.089  0.00  0.00    +0.117 C 
ATOM     22  H   UNL     1      37.341 -27.277 -11.745  0.00  0.00    +0.144 HD
ATOM     23  H   UNL     1      37.706 -26.801 -13.341  0.00  0.00    +0.144 HD
ATOM     24  H   UNL     1      36.719 -25.679 -10.187  0.00  0.00    +0.188 HD
ENDBRANCH  18  21
ENDBRANCH  12  13
ENDBRANCH   9  12
ENDBRANCH   3  10
BRANCH   7  25
ATOM     25  C   UNL     1      34.044 -22.044 -17.429  0.00  0.00    +0.006 C 
BRANCH  25  26
ATOM     26  N   UNL     1      32.858 -22.826 -17.122  0.00  0.00    +0.391 N 
ATOM     27  H   UNL     1      32.088 -22.515 -17.714  0.00  0.00    -0.084 HD
ATOM     28  H   UNL     1      33.059 -23.811 -17.295  0.00  0.00    -0.084 HD
BRANCH  26  29
ATOM     29  C   UNL     1      32.482 -22.659 -15.713  0.00  0.00    -0.061 C 
ATOM     30  C   UNL     1      33.360 -23.595 -14.875  0.00  0.00    -0.021 C 
ATOM     31  C   UNL     1      30.973 -22.901 -15.575  0.00  0.00    -0.021 C 
ATOM     32  C   UNL     1      33.059 -23.607 -13.376  0.00  0.00    -0.002 C 
ATOM     33  C   UNL     1      30.423 -22.459 -14.220  0.00  0.00    -0.002 C 
ATOM     34  C   UNL     1      31.770 -24.348 -13.042  0.00  0.00    -0.000 C 
ATOM     35  C   UNL     1      30.502 -23.504 -13.112  0.00  0.00    -0.000 C 
ENDBRANCH  26  29
ENDBRANCH  25  26
ENDBRANCH   7  25
TORSDOF 7
ENDMDL
MODEL 9
REMARK VINA RESULT:      -9.7     10.497     14.505
REMARK  Name = 25113614
REMARK  7 active torsions:
REMARK  status: ('A' for Active; 'I' for Inactive)
REMARK    1  A    between atoms: C_3  and  C_10
REMARK    2  A    between atoms: C_7  and  C_25
REMARK    3  A    between atoms: N_9  and  C_12
REMARK    4  A    between atoms: C_12  and  C_13
REMARK    5  A    between atoms: C_18  and  C_21
REMARK    6  A    between atoms: C_25  and  N_26
REMARK    7  A    between atoms: N_26  and  C_29
REMARK                            x       y       z     vdW  Elec       q    Type
REMARK                         _______ _______ _______ _____ _____    ______ ____
ROOT
ATOM      1  O   UNL     1      33.738 -14.933 -25.378  0.00  0.00    -0.277 OA
ATOM      2  N   UNL     1      33.947 -12.812 -24.487  0.00  0.00    -0.275 N 
ATOM      3  C   UNL     1      34.340 -11.867 -23.444  0.00  0.00    +0.152 C 
ATOM      4  C   UNL     1      34.597 -10.561 -24.191  0.00  0.00    +0.031 C 
ATOM      5  C   UNL     1      33.676 -12.124 -25.743  0.00  0.00    +0.094 C 
ATOM      6  C   UNL     1      33.654 -10.646 -25.389  0.00  0.00    +0.024 C 
ATOM      7  C   UNL     1      33.954 -14.195 -24.414  0.00  0.00    +0.204 C 
ENDROOT
BRANCH   3  10
ATOM      8  O   UNL     1      32.498 -12.674 -22.157  0.00  0.00    -0.273 OA
ATOM      9  N   UNL     1      33.009 -10.404 -22.094  0.00  0.00    -0.299 N 
ATOM     10  C   UNL     1      33.188 -11.716 -22.496  0.00  0.00    +0.241 C 
ATOM     11  H   UNL     1      33.631  -9.721 -22.435  0.00  0.00    +0.150 HD
BRANCH   9  12
ATOM     12  C   UNL     1      31.954  -9.988 -21.198  0.00  0.00    +0.116 C 
BRANCH  12  13
ATOM     13  C   UNL     1      32.076  -8.541 -20.820  0.00  0.00    -0.003 C 
ATOM     14  C   UNL     1      32.317  -8.184 -19.493  0.00  0.00    -0.003 C 
ATOM     15  C   UNL     1      31.945  -7.552 -21.795  0.00  0.00    -0.003 C 
ATOM     16  C   UNL     1      32.428  -6.840 -19.141  0.00  0.00    +0.002 C 
ATOM     17  C   UNL     1      32.056  -6.207 -21.443  0.00  0.00    +0.002 C 
ATOM     18  C   UNL     1      32.298  -5.850 -20.117  0.00  0.00    +0.031 C 
BRANCH  18  21
ATOM     19  N   UNL     1      32.706  -4.062 -18.443  0.00  0.00    -0.343 N 
ATOM     20  N   UNL     1      32.238  -3.511 -20.665  0.00  0.00    -0.285 NA
ATOM     21  C   UNL     1      32.415  -4.448 -19.749  0.00  0.00    +0.117 C 
ATOM     22  H   UNL     1      32.780  -3.107 -18.216  0.00  0.00    +0.144 HD
ATOM     23  H   UNL     1      32.837  -4.745 -17.746  0.00  0.00    +0.144 HD
ATOM     24  H   UNL     1      32.317  -2.562 -20.419  0.00  0.00    +0.188 HD
ENDBRANCH  18  21
ENDBRANCH  12  13
ENDBRANCH   9  12
ENDBRANCH   3  10
BRANCH   7  25
ATOM     25  C   UNL     1      34.250 -14.786 -23.059  0.00  0.00    +0.006 C 
BRANCH  25  26
ATOM     26  N   UNL     1      35.660 -15.134 -23.045  0.00  0.00    +0.391 N 
ATOM     27  H   UNL     1      36.026 -15.088 -23.997  0.00  0.00    -0.084 HD
ATOM     28  H   UNL     1      36.157 -14.476 -22.445  0.00  0.00    -0.084 HD
BRANCH  26  29
ATOM     29  C   UNL     1      35.850 -16.492 -22.521  0.00  0.00    -0.061 C 
ATOM     30  C   UNL     1      34.935 -17.435 -23.310  0.00  0.00    -0.021 C 
ATOM     31  C   UNL     1      35.599 -16.473 -21.006  0.00  0.00    -0.021 C 
ATOM     32  C   UNL     1      34.948 -18.894 -22.851  0.00  0.00    -0.002 C 
ATOM     33  C   UNL     1      36.061 -17.754 -20.313  0.00  0.00    -0.002 C 
ATOM     34  C   UNL     1      34.204 -19.103 -21.537  0.00  0.00    -0.000 C 
ATOM     35  C   UNL     1      35.037 -18.882 -20.280  0.00  0.00    -0.000 C 
ENDBRANCH  26  29
ENDBRANCH  25  26
ENDBRANCH   7  25
TORSDOF 7
ENDMDL
