MODEL 1
REMARK VINA RESULT:     -12.1      0.000      0.000
REMARK  Name = 6323454
REMARK  1 active torsions:
REMARK  status: ('A' for Active; 'I' for Inactive)
REMARK    1  A    between atoms: C_18  and  O_22
REMARK                            x       y       z     vdW  Elec       q    Type
REMARK                         _______ _______ _______ _____ _____    ______ ____
ROOT
ATOM      1  O   UNL     1      34.672 -24.000 -12.740  0.00  0.00    -0.350 OA
ATOM      2  O   UNL     1      37.730 -22.271 -13.065  0.00  0.00    -0.445 OA
ATOM      3  O   UNL     1      37.994 -21.804 -15.803  0.00  0.00    -0.287 OA
ATOM      4  O   UNL     1      38.716 -22.191 -10.982  0.00  0.00    -0.250 OA
ATOM      5  O   UNL     1      32.817 -22.910 -16.430  0.00  0.00    -0.287 OA
ATOM      6  C   UNL     1      35.676 -23.050 -12.450  0.00  0.00    +0.171 C 
ATOM      7  C   UNL     1      36.670 -23.066 -13.583  0.00  0.00    +0.221 C 
ATOM      8  C   UNL     1      35.987 -22.604 -14.833  0.00  0.00    +0.060 C 
ATOM      9  C   UNL     1      33.866 -23.574 -13.872  0.00  0.00    +0.141 C 
ATOM     10  C   UNL     1      34.672 -22.869 -14.971  0.00  0.00    +0.046 C 
ATOM     11  C   UNL     1      36.593 -23.346 -11.290  0.00  0.00    +0.143 C 
ATOM     12  C   UNL     1      37.804 -22.544 -11.713  0.00  0.00    +0.320 C 
ATOM     13  C   UNL     1      36.783 -21.954 -15.902  0.00  0.00    +0.195 C 
ATOM     14  C   UNL     1      33.968 -22.536 -16.242  0.00  0.00    +0.197 C 
ATOM     15  C   UNL     1      32.722 -22.714 -13.325  0.00  0.00    +0.037 C 
ATOM     16  C   UNL     1      36.062 -21.492 -17.103  0.00  0.00    +0.045 C 
ATOM     17  C   UNL     1      34.707 -21.774 -17.265  0.00  0.00    +0.075 C 
ATOM     18  C   UNL     1      34.038 -21.338 -18.416  0.00  0.00    +0.137 C 
ATOM     19  C   UNL     1      36.753 -20.779 -18.089  0.00  0.00    +0.003 C 
ATOM     20  C   UNL     1      34.728 -20.623 -19.397  0.00  0.00    +0.037 C 
ATOM     21  C   UNL     1      36.083 -20.345 -19.234  0.00  0.00    +0.003 C 
ENDROOT
BRANCH  18  22
ATOM     22  O   UNL     1      32.713 -21.572 -18.635  0.00  0.00    -0.505 OA
ATOM     23  H   UNL     1      32.346 -21.427 -19.485  0.00  0.00    +0.292 HD
ENDBRANCH  18  22
TORSDOF 1
ENDMDL
MODEL 2
REMARK VINA RESULT:     -11.2      1.981      5.724
REMARK  Name = 6323454
REMARK  1 active torsions:
REMARK  status: ('A' for Active; 'I' for Inactive)
REMARK    1  A    between atoms: C_18  and  O_22
REMARK                            x       y       z     vdW  Elec       q    Type
REMARK                         _______ _______ _______ _____ _____    ______ ____
ROOT
ATOM      1  O   UNL     1      32.161 -22.363 -14.469  0.00  0.00    -0.350 OA
ATOM      2  O   UNL     1      34.410 -22.233 -17.183  0.00  0.00    -0.445 OA
ATOM      3  O   UNL     1      36.938 -22.443 -16.021  0.00  0.00    -0.287 OA
ATOM      4  O   UNL     1      33.184 -21.823 -19.093  0.00  0.00    -0.250 OA
ATOM      5  O   UNL     1      34.662 -24.193 -11.530  0.00  0.00    -0.287 OA
ATOM      6  C   UNL     1      32.689 -22.653 -15.745  0.00  0.00    +0.171 C 
ATOM      7  C   UNL     1      34.091 -22.099 -15.804  0.00  0.00    +0.221 C 
ATOM      8  C   UNL     1      34.941 -22.828 -14.808  0.00  0.00    +0.060 C 
ATOM      9  C   UNL     1      32.844 -23.126 -13.438  0.00  0.00    +0.141 C 
ATOM     10  C   UNL     1      34.350 -23.286 -13.687  0.00  0.00    +0.046 C 
ATOM     11  C   UNL     1      32.076 -21.943 -16.926  0.00  0.00    +0.143 C 
ATOM     12  C   UNL     1      33.246 -21.986 -17.884  0.00  0.00    +0.320 C 
ATOM     13  C   UNL     1      36.400 -22.946 -15.043  0.00  0.00    +0.195 C 
ATOM     14  C   UNL     1      35.167 -23.914 -12.610  0.00  0.00    +0.197 C 
ATOM     15  C   UNL     1      32.116 -24.466 -13.299  0.00  0.00    +0.037 C 
ATOM     16  C   UNL     1      37.191 -23.694 -14.050  0.00  0.00    +0.045 C 
ATOM     17  C   UNL     1      36.596 -24.159 -12.878  0.00  0.00    +0.075 C 
ATOM     18  C   UNL     1      37.364 -24.859 -11.938  0.00  0.00    +0.137 C 
ATOM     19  C   UNL     1      38.552 -23.924 -14.284  0.00  0.00    +0.003 C 
ATOM     20  C   UNL     1      38.719 -25.090 -12.175  0.00  0.00    +0.037 C 
ATOM     21  C   UNL     1      39.312 -24.623 -13.345  0.00  0.00    +0.003 C 
ENDROOT
BRANCH  18  22
ATOM     22  O   UNL     1      36.844 -25.348 -10.776  0.00  0.00    -0.505 OA
ATOM     23  H   UNL     1      36.145 -24.893 -10.348  0.00  0.00    +0.292 HD
ENDBRANCH  18  22
TORSDOF 1
ENDMDL
MODEL 3
REMARK VINA RESULT:     -10.4      1.934      6.111
REMARK  Name = 6323454
REMARK  1 active torsions:
REMARK  status: ('A' for Active; 'I' for Inactive)
REMARK    1  A    between atoms: C_18  and  O_22
REMARK                            x       y       z     vdW  Elec       q    Type
REMARK                         _______ _______ _______ _____ _____    ______ ____
ROOT
ATOM      1  O   UNL     1      37.247 -21.660 -17.541  0.00  0.00    -0.350 OA
ATOM      2  O   UNL     1      34.250 -20.509 -19.002  0.00  0.00    -0.445 OA
ATOM      3  O   UNL     1      32.238 -21.987 -17.755  0.00  0.00    -0.287 OA
ATOM      4  O   UNL     1      34.810 -19.029 -20.680  0.00  0.00    -0.250 OA
ATOM      5  O   UNL     1      35.699 -23.371 -13.945  0.00  0.00    -0.287 OA
ATOM      6  C   UNL     1      36.303 -20.733 -18.033  0.00  0.00    +0.171 C 
ATOM      7  C   UNL     1      35.017 -21.475 -18.295  0.00  0.00    +0.221 C 
ATOM      8  C   UNL     1      34.480 -21.987 -16.993  0.00  0.00    +0.060 C 
ATOM      9  C   UNL     1      36.876 -22.124 -16.214  0.00  0.00    +0.141 C 
ATOM     10  C   UNL     1      35.363 -22.313 -16.029  0.00  0.00    +0.046 C 
ATOM     11  C   UNL     1      36.554 -20.152 -19.402  0.00  0.00    +0.143 C 
ATOM     12  C   UNL     1      35.135 -19.806 -19.796  0.00  0.00    +0.320 C 
ATOM     13  C   UNL     1      33.021 -22.198 -16.838  0.00  0.00    +0.195 C 
ATOM     14  C   UNL     1      34.894 -22.935 -14.759  0.00  0.00    +0.197 C 
ATOM     15  C   UNL     1      37.485 -21.151 -15.199  0.00  0.00    +0.037 C 
ATOM     16  C   UNL     1      32.537 -22.678 -15.531  0.00  0.00    +0.045 C 
ATOM     17  C   UNL     1      33.440 -23.033 -14.530  0.00  0.00    +0.075 C 
ATOM     18  C   UNL     1      32.966 -23.498 -13.297  0.00  0.00    +0.137 C 
ATOM     19  C   UNL     1      31.160 -22.788 -15.303  0.00  0.00    +0.003 C 
ATOM     20  C   UNL     1      31.593 -23.604 -13.071  0.00  0.00    +0.037 C 
ATOM     21  C   UNL     1      30.692 -23.250 -14.073  0.00  0.00    +0.003 C 
ENDROOT
BRANCH  18  22
ATOM     22  O   UNL     1      33.793 -23.855 -12.274  0.00  0.00    -0.505 OA
ATOM     23  H   UNL     1      34.688 -24.069 -12.449  0.00  0.00    +0.292 HD
ENDBRANCH  18  22
TORSDOF 1
ENDMDL
MODEL 4
REMARK VINA RESULT:     -10.3      1.894      4.529
REMARK  Name = 6323454
REMARK  1 active torsions:
REMARK  status: ('A' for Active; 'I' for Inactive)
REMARK    1  A    between atoms: C_18  and  O_22
REMARK                            x       y       z     vdW  Elec       q    Type
REMARK                         _______ _______ _______ _____ _____    ______ ____
ROOT
ATOM      1  O   UNL     1      33.480 -23.561 -12.736  0.00  0.00    -0.350 OA
ATOM      2  O   UNL     1      30.754 -23.651 -14.974  0.00  0.00    -0.445 OA
ATOM      3  O   UNL     1      31.442 -21.864 -17.004  0.00  0.00    -0.287 OA
ATOM      4  O   UNL     1      29.124 -24.989 -14.041  0.00  0.00    -0.250 OA
ATOM      5  O   UNL     1      36.498 -21.991 -15.319  0.00  0.00    -0.287 OA
ATOM      6  C   UNL     1      32.460 -24.123 -13.534  0.00  0.00    +0.171 C 
ATOM      7  C   UNL     1      31.907 -23.032 -14.416  0.00  0.00    +0.221 C 
ATOM      8  C   UNL     1      32.984 -22.573 -15.351  0.00  0.00    +0.060 C 
ATOM      9  C   UNL     1      34.631 -23.196 -13.545  0.00  0.00    +0.141 C 
ATOM     10  C   UNL     1      34.260 -22.631 -14.923  0.00  0.00    +0.046 C 
ATOM     11  C   UNL     1      31.198 -24.562 -12.836  0.00  0.00    +0.143 C 
ATOM     12  C   UNL     1      30.221 -24.455 -13.985  0.00  0.00    +0.320 C 
ATOM     13  C   UNL     1      32.611 -21.997 -16.666  0.00  0.00    +0.195 C 
ATOM     14  C   UNL     1      35.360 -22.080 -15.764  0.00  0.00    +0.197 C 
ATOM     15  C   UNL     1      35.543 -24.424 -13.628  0.00  0.00    +0.037 C 
ATOM     16  C   UNL     1      33.706 -21.583 -17.562  0.00  0.00    +0.045 C 
ATOM     17  C   UNL     1      35.029 -21.623 -17.127  0.00  0.00    +0.075 C 
ATOM     18  C   UNL     1      36.058 -21.217 -17.987  0.00  0.00    +0.137 C 
ATOM     19  C   UNL     1      33.406 -21.135 -18.855  0.00  0.00    +0.003 C 
ATOM     20  C   UNL     1      35.757 -20.774 -19.276  0.00  0.00    +0.037 C 
ATOM     21  C   UNL     1      34.434 -20.733 -19.708  0.00  0.00    +0.003 C 
ENDROOT
BRANCH  18  22
ATOM     22  O   UNL     1      37.373 -21.237 -17.628  0.00  0.00    -0.505 OA
ATOM     23  H   UNL     1      37.714 -20.572 -17.063  0.00  0.00    +0.292 HD
ENDBRANCH  18  22
TORSDOF 1
ENDMDL
MODEL 5
REMARK VINA RESULT:     -10.1      2.310      5.172
REMARK  Name = 6323454
REMARK  1 active torsions:
REMARK  status: ('A' for Active; 'I' for Inactive)
REMARK    1  A    between atoms: C_18  and  O_22
REMARK                            x       y       z     vdW  Elec       q    Type
REMARK                         _______ _______ _______ _____ _____    ______ ____
ROOT
ATOM      1  O   UNL     1      36.583 -23.348 -14.626  0.00  0.00    -0.350 OA
ATOM      2  O   UNL     1      35.317 -21.301 -17.205  0.00  0.00    -0.445 OA
ATOM      3  O   UNL     1      32.647 -22.065 -17.473  0.00  0.00    -0.287 OA
ATOM      4  O   UNL     1      37.075 -20.073 -18.054  0.00  0.00    -0.250 OA
ATOM      5  O   UNL     1      32.927 -24.485 -12.731  0.00  0.00    -0.287 OA
ATOM      6  C   UNL     1      36.352 -22.168 -15.366  0.00  0.00    +0.171 C 
ATOM      7  C   UNL     1      35.280 -22.462 -16.385  0.00  0.00    +0.221 C 
ATOM      8  C   UNL     1      34.004 -22.780 -15.668  0.00  0.00    +0.060 C 
ATOM      9  C   UNL     1      35.437 -23.672 -13.793  0.00  0.00    +0.141 C 
ATOM     10  C   UNL     1      34.087 -23.371 -14.460  0.00  0.00    +0.046 C 
ATOM     11  C   UNL     1      37.457 -21.694 -16.275  0.00  0.00    +0.143 C 
ATOM     12  C   UNL     1      36.641 -20.914 -17.282  0.00  0.00    +0.320 C 
ATOM     13  C   UNL     1      32.707 -22.516 -16.336  0.00  0.00    +0.195 C 
ATOM     14  C   UNL     1      32.852 -23.815 -13.754  0.00  0.00    +0.197 C 
ATOM     15  C   UNL     1      35.618 -22.946 -12.457  0.00  0.00    +0.037 C 
ATOM     16  C   UNL     1      31.478 -22.820 -15.581  0.00  0.00    +0.045 C 
ATOM     17  C   UNL     1      31.549 -23.446 -14.337  0.00  0.00    +0.075 C 
ATOM     18  C   UNL     1      30.372 -23.738 -13.636  0.00  0.00    +0.137 C 
ATOM     19  C   UNL     1      30.233 -22.487 -16.127  0.00  0.00    +0.003 C 
ATOM     20  C   UNL     1      29.132 -23.402 -14.182  0.00  0.00    +0.037 C 
ATOM     21  C   UNL     1      29.062 -22.779 -15.425  0.00  0.00    +0.003 C 
ENDROOT
BRANCH  18  22
ATOM     22  O   UNL     1      30.370 -24.341 -12.414  0.00  0.00    -0.505 OA
ATOM     23  H   UNL     1      31.080 -24.900 -12.166  0.00  0.00    +0.292 HD
ENDBRANCH  18  22
TORSDOF 1
ENDMDL
MODEL 6
REMARK VINA RESULT:     -10.0      3.171      4.676
REMARK  Name = 6323454
REMARK  1 active torsions:
REMARK  status: ('A' for Active; 'I' for Inactive)
REMARK    1  A    between atoms: C_18  and  O_22
REMARK                            x       y       z     vdW  Elec       q    Type
REMARK                         _______ _______ _______ _____ _____    ______ ____
ROOT
ATOM      1  O   UNL     1      38.467 -24.558 -11.366  0.00  0.00    -0.350 OA
ATOM      2  O   UNL     1      38.536 -24.986 -14.867  0.00  0.00    -0.445 OA
ATOM      3  O   UNL     1      35.851 -25.031 -15.630  0.00  0.00    -0.287 OA
ATOM      4  O   UNL     1      40.733 -25.297 -15.494  0.00  0.00    -0.250 OA
ATOM      5  O   UNL     1      34.536 -22.955 -10.899  0.00  0.00    -0.287 OA
ATOM      6  C   UNL     1      38.875 -24.352 -12.702  0.00  0.00    +0.171 C 
ATOM      7  C   UNL     1      37.891 -25.057 -13.601  0.00  0.00    +0.221 C 
ATOM      8  C   UNL     1      36.550 -24.406 -13.454  0.00  0.00    +0.060 C 
ATOM      9  C   UNL     1      37.227 -23.854 -11.088  0.00  0.00    +0.141 C 
ATOM     10  C   UNL     1      36.237 -23.864 -12.261  0.00  0.00    +0.046 C 
ATOM     11  C   UNL     1      40.156 -25.014 -13.144  0.00  0.00    +0.143 C 
ATOM     12  C   UNL     1      39.890 -25.118 -14.629  0.00  0.00    +0.320 C 
ATOM     13  C   UNL     1      35.589 -24.453 -14.582  0.00  0.00    +0.195 C 
ATOM     14  C   UNL     1      34.874 -23.309 -12.022  0.00  0.00    +0.197 C 
ATOM     15  C   UNL     1      37.593 -22.439 -10.628  0.00  0.00    +0.037 C 
ATOM     16  C   UNL     1      34.292 -23.777 -14.401  0.00  0.00    +0.045 C 
ATOM     17  C   UNL     1      33.949 -23.226 -13.167  0.00  0.00    +0.075 C 
ATOM     18  C   UNL     1      32.708 -22.597 -13.006  0.00  0.00    +0.137 C 
ATOM     19  C   UNL     1      33.397 -23.702 -15.474  0.00  0.00    +0.003 C 
ATOM     20  C   UNL     1      31.819 -22.520 -14.079  0.00  0.00    +0.037 C 
ATOM     21  C   UNL     1      32.162 -23.072 -15.311  0.00  0.00    +0.003 C 
ENDROOT
BRANCH  18  22
ATOM     22  O   UNL     1      32.313 -22.031 -11.830  0.00  0.00    -0.505 OA
ATOM     23  H   UNL     1      32.054 -22.576 -11.113  0.00  0.00    +0.292 HD
ENDBRANCH  18  22
TORSDOF 1
ENDMDL
MODEL 7
REMARK VINA RESULT:      -9.6      1.800      6.217
REMARK  Name = 6323454
REMARK  1 active torsions:
REMARK  status: ('A' for Active; 'I' for Inactive)
REMARK    1  A    between atoms: C_18  and  O_22
REMARK                            x       y       z     vdW  Elec       q    Type
REMARK                         _______ _______ _______ _____ _____    ______ ____
ROOT
ATOM      1  O   UNL     1      32.871 -22.884 -17.173  0.00  0.00    -0.350 OA
ATOM      2  O   UNL     1      31.128 -22.624 -14.117  0.00  0.00    -0.445 OA
ATOM      3  O   UNL     1      32.890 -23.637 -12.205  0.00  0.00    -0.287 OA
ATOM      4  O   UNL     1      28.994 -21.886 -14.586  0.00  0.00    -0.250 OA
ATOM      5  O   UNL     1      36.876 -23.153 -15.712  0.00  0.00    -0.287 OA
ATOM      6  C   UNL     1      32.070 -22.298 -16.169  0.00  0.00    +0.171 C 
ATOM      7  C   UNL     1      32.144 -23.175 -14.945  0.00  0.00    +0.221 C 
ATOM      8  C   UNL     1      33.552 -23.173 -14.431  0.00  0.00    +0.060 C 
ATOM      9  C   UNL     1      34.279 -22.815 -16.820  0.00  0.00    +0.141 C 
ATOM     10  C   UNL     1      34.551 -23.027 -15.324  0.00  0.00    +0.046 C 
ATOM     11  C   UNL     1      30.579 -22.284 -16.393  0.00  0.00    +0.143 C 
ATOM     12  C   UNL     1      30.106 -22.226 -14.958  0.00  0.00    +0.320 C 
ATOM     13  C   UNL     1      33.803 -23.412 -12.990  0.00  0.00    +0.195 C 
ATOM     14  C   UNL     1      35.971 -23.133 -14.886  0.00  0.00    +0.197 C 
ATOM     15  C   UNL     1      34.820 -21.480 -17.342  0.00  0.00    +0.037 C 
ATOM     16  C   UNL     1      35.202 -23.374 -12.527  0.00  0.00    +0.045 C 
ATOM     17  C   UNL     1      36.245 -23.240 -13.442  0.00  0.00    +0.075 C 
ATOM     18  C   UNL     1      37.570 -23.216 -12.987  0.00  0.00    +0.137 C 
ATOM     19  C   UNL     1      35.479 -23.487 -11.159  0.00  0.00    +0.003 C 
ATOM     20  C   UNL     1      37.844 -23.326 -11.623  0.00  0.00    +0.037 C 
ATOM     21  C   UNL     1      36.800 -23.462 -10.711  0.00  0.00    +0.003 C 
ENDROOT
BRANCH  18  22
ATOM     22  O   UNL     1      38.637 -23.080 -13.826  0.00  0.00    -0.505 OA
ATOM     23  H   UNL     1      39.132 -23.834 -14.079  0.00  0.00    +0.292 HD
ENDBRANCH  18  22
TORSDOF 1
ENDMDL
MODEL 8
REMARK VINA RESULT:      -9.6     12.547     15.440
REMARK  Name = 6323454
REMARK  1 active torsions:
REMARK  status: ('A' for Active; 'I' for Inactive)
REMARK    1  A    between atoms: C_18  and  O_22
REMARK                            x       y       z     vdW  Elec       q    Type
REMARK                         _______ _______ _______ _____ _____    ______ ____
ROOT
ATOM      1  O   UNL     1      32.694  -6.122 -22.123  0.00  0.00    -0.350 OA
ATOM      2  O   UNL     1      32.294  -6.782 -18.681  0.00  0.00    -0.445 OA
ATOM      3  O   UNL     1      31.508  -9.457 -18.557  0.00  0.00    -0.287 OA
ATOM      4  O   UNL     1      32.600  -4.798 -17.545  0.00  0.00    -0.250 OA
ATOM      5  O   UNL     1      33.151 -10.110 -23.586  0.00  0.00    -0.287 OA
ATOM      6  C   UNL     1      33.001  -6.117 -20.745  0.00  0.00    +0.171 C 
ATOM      7  C   UNL     1      32.051  -7.061 -20.054  0.00  0.00    +0.221 C 
ATOM      8  C   UNL     1      32.306  -8.452 -20.548  0.00  0.00    +0.060 C 
ATOM      9  C   UNL     1      33.029  -7.402 -22.724  0.00  0.00    +0.141 C 
ATOM     10  C   UNL     1      32.743  -8.604 -21.813  0.00  0.00    +0.046 C 
ATOM     11  C   UNL     1      32.717  -4.849 -19.978  0.00  0.00    +0.143 C 
ATOM     12  C   UNL     1      32.540  -5.426 -18.591  0.00  0.00    +0.320 C 
ATOM     13  C   UNL     1      31.993  -9.606 -19.671  0.00  0.00    +0.195 C 
ATOM     14  C   UNL     1      32.902  -9.967 -22.395  0.00  0.00    +0.197 C 
ATOM     15  C   UNL     1      34.491  -7.330 -23.176  0.00  0.00    +0.037 C 
ATOM     16  C   UNL     1      32.286 -10.954 -20.190  0.00  0.00    +0.045 C 
ATOM     17  C   UNL     1      32.723 -11.127 -21.502  0.00  0.00    +0.075 C 
ATOM     18  C   UNL     1      32.987 -12.415 -21.984  0.00  0.00    +0.137 C 
ATOM     19  C   UNL     1      32.108 -12.067 -19.358  0.00  0.00    +0.003 C 
ATOM     20  C   UNL     1      32.813 -13.522 -21.153  0.00  0.00    +0.037 C 
ATOM     21  C   UNL     1      32.374 -13.348 -19.842  0.00  0.00    +0.003 C 
ENDROOT
BRANCH  18  22
ATOM     22  O   UNL     1      33.424 -12.654 -23.253  0.00  0.00    -0.505 OA
ATOM     23  H   UNL     1      33.092 -13.388 -23.732  0.00  0.00    +0.292 HD
ENDBRANCH  18  22
TORSDOF 1
ENDMDL
MODEL 9
REMARK VINA RESULT:      -9.4      2.162      4.788
REMARK  Name = 6323454
REMARK  1 active torsions:
REMARK  status: ('A' for Active; 'I' for Inactive)
REMARK    1  A    between atoms: C_18  and  O_22
REMARK                            x       y       z     vdW  Elec       q    Type
REMARK                         _______ _______ _______ _____ _____    ______ ____
ROOT
ATOM      1  O   UNL     1      35.903 -21.639 -16.333  0.00  0.00    -0.350 OA
ATOM      2  O   UNL     1      36.022 -23.827 -13.570  0.00  0.00    -0.445 OA
ATOM      3  O   UNL     1      33.401 -23.910 -12.616  0.00  0.00    -0.287 OA
ATOM      4  O   UNL     1      38.228 -24.403 -13.224  0.00  0.00    -0.250 OA
ATOM      5  O   UNL     1      31.726 -21.793 -17.212  0.00  0.00    -0.287 OA
ATOM      6  C   UNL     1      36.243 -22.789 -15.589  0.00  0.00    +0.171 C 
ATOM      7  C   UNL     1      35.421 -22.782 -14.325  0.00  0.00    +0.221 C 
ATOM      8  C   UNL     1      33.974 -22.915 -14.687  0.00  0.00    +0.060 C 
ATOM      9  C   UNL     1      34.544 -21.732 -16.841  0.00  0.00    +0.141 C 
ATOM     10  C   UNL     1      33.566 -22.396 -15.862  0.00  0.00    +0.046 C 
ATOM     11  C   UNL     1      37.631 -22.847 -15.001  0.00  0.00    +0.143 C 
ATOM     12  C   UNL     1      37.376 -23.782 -13.840  0.00  0.00    +0.320 C 
ATOM     13  C   UNL     1      33.033 -23.528 -13.719  0.00  0.00    +0.195 C 
ATOM     14  C   UNL     1      32.119 -22.396 -16.221  0.00  0.00    +0.197 C 
ATOM     15  C   UNL     1      34.606 -22.441 -18.197  0.00  0.00    +0.037 C 
ATOM     16  C   UNL     1      31.624 -23.661 -14.131  0.00  0.00    +0.045 C 
ATOM     17  C   UNL     1      31.185 -23.115 -15.336  0.00  0.00    +0.075 C 
ATOM     18  C   UNL     1      29.841 -23.240 -15.708  0.00  0.00    +0.137 C 
ATOM     19  C   UNL     1      30.722 -24.330 -13.295  0.00  0.00    +0.003 C 
ATOM     20  C   UNL     1      28.944 -23.910 -14.876  0.00  0.00    +0.037 C 
ATOM     21  C   UNL     1      29.383 -24.454 -13.671  0.00  0.00    +0.003 C 
ENDROOT
BRANCH  18  22
ATOM     22  O   UNL     1      29.347 -22.737 -16.875  0.00  0.00    -0.505 OA
ATOM     23  H   UNL     1      29.051 -23.319 -17.548  0.00  0.00    +0.292 HD
ENDBRANCH  18  22
TORSDOF 1
ENDMDL
