MODEL 1
REMARK VINA RESULT:     -11.7      0.000      0.000
REMARK  Name = 6857690
REMARK  2 active torsions:
REMARK  status: ('A' for Active; 'I' for Inactive)
REMARK    1  A    between atoms: C_4  and  C_18
REMARK    2  A    between atoms: C_21  and  O_24
REMARK                            x       y       z     vdW  Elec       q    Type
REMARK                         _______ _______ _______ _____ _____    ______ ____
ROOT
ATOM      1  O   UNL     1      37.502 -24.461 -15.004  0.00  0.00    -0.252 OA
ATOM      2  N   UNL     1      35.919 -22.928 -14.336  0.00  0.00    -0.259 N 
ATOM      3  N   UNL     1      36.794 -24.559 -12.814  0.00  0.00    -0.261 N 
ATOM      4  C   UNL     1      35.055 -22.420 -16.584  0.00  0.00    +0.064 C 
ATOM      5  C   UNL     1      36.113 -22.093 -15.515  0.00  0.00    +0.104 C 
ATOM      6  C   UNL     1      33.651 -22.449 -15.985  0.00  0.00    -0.019 C 
ATOM      7  C   UNL     1      33.473 -22.596 -14.593  0.00  0.00    -0.010 C 
ATOM      8  C   UNL     1      34.644 -22.708 -13.642  0.00  0.00    +0.121 C 
ATOM      9  C   UNL     1      32.175 -22.628 -14.058  0.00  0.00    -0.028 C 
ATOM     10  C   UNL     1      32.514 -22.416 -16.812  0.00  0.00    -0.005 C 
ATOM     11  C   UNL     1      31.060 -22.559 -14.891  0.00  0.00    -0.026 C 
ATOM     12  C   UNL     1      36.780 -24.010 -14.105  0.00  0.00    +0.308 C 
ATOM     13  C   UNL     1      31.230 -22.462 -16.268  0.00  0.00    -0.005 C 
ATOM     14  C   UNL     1      31.967 -22.745 -12.578  0.00  0.00    +0.030 C 
ATOM     15  C   UNL     1      29.675 -22.588 -14.336  0.00  0.00    +0.031 C 
ATOM     16  C   UNL     1      36.522 -23.806 -11.593  0.00  0.00    +0.117 C 
ATOM     17  C   UNL     1      37.358 -25.888 -12.616  0.00  0.00    +0.117 C 
ENDROOT
BRANCH   4  18
ATOM     18  C   UNL     1      35.228 -21.476 -17.765  0.00  0.00    -0.014 C 
ATOM     19  C   UNL     1      34.117 -21.089 -18.509  0.00  0.00    +0.033 C 
ATOM     20  C   UNL     1      36.496 -21.006 -18.093  0.00  0.00    -0.004 C 
ATOM     21  C   UNL     1      34.275 -20.224 -19.590  0.00  0.00    +0.133 C 
ATOM     22  C   UNL     1      36.654 -20.139 -19.174  0.00  0.00    +0.003 C 
ATOM     23  C   UNL     1      35.545 -19.748 -19.923  0.00  0.00    +0.037 C 
BRANCH  21  24
ATOM     24  O   UNL     1      33.193 -19.842 -20.321  0.00  0.00    -0.506 OA
ATOM     25  H   UNL     1      33.054 -18.936 -20.513  0.00  0.00    +0.292 HD
ENDBRANCH  21  24
ENDBRANCH   4  18
TORSDOF 2
ENDMDL
MODEL 2
REMARK VINA RESULT:     -10.2     10.907     13.576
REMARK  Name = 6857690
REMARK  2 active torsions:
REMARK  status: ('A' for Active; 'I' for Inactive)
REMARK    1  A    between atoms: C_4  and  C_18
REMARK    2  A    between atoms: C_21  and  O_24
REMARK                            x       y       z     vdW  Elec       q    Type
REMARK                         _______ _______ _______ _____ _____    ______ ____
ROOT
ATOM      1  O   UNL     1      35.839  -9.747 -24.694  0.00  0.00    -0.252 OA
ATOM      2  N   UNL     1      33.776 -10.286 -23.828  0.00  0.00    -0.259 N 
ATOM      3  N   UNL     1      34.425  -8.005 -24.174  0.00  0.00    -0.261 N 
ATOM      4  C   UNL     1      34.385 -12.534 -23.031  0.00  0.00    +0.064 C 
ATOM      5  C   UNL     1      33.889 -11.687 -24.216  0.00  0.00    +0.104 C 
ATOM      6  C   UNL     1      33.590 -12.234 -21.762  0.00  0.00    -0.019 C 
ATOM      7  C   UNL     1      32.846 -11.040 -21.654  0.00  0.00    -0.010 C 
ATOM      8  C   UNL     1      32.784 -10.028 -22.777  0.00  0.00    +0.121 C 
ATOM      9  C   UNL     1      32.126 -10.775 -20.478  0.00  0.00    -0.028 C 
ATOM     10  C   UNL     1      33.652 -13.095 -20.652  0.00  0.00    -0.005 C 
ATOM     11  C   UNL     1      32.171 -11.658 -19.401  0.00  0.00    -0.026 C 
ATOM     12  C   UNL     1      34.745  -9.368 -24.257  0.00  0.00    +0.308 C 
ATOM     13  C   UNL     1      32.941 -12.813 -19.485  0.00  0.00    -0.005 C 
ATOM     14  C   UNL     1      31.298  -9.530 -20.360  0.00  0.00    +0.030 C 
ATOM     15  C   UNL     1      31.407 -11.391 -18.147  0.00  0.00    +0.031 C 
ATOM     16  C   UNL     1      33.072  -7.466 -24.288  0.00  0.00    +0.117 C 
ATOM     17  C   UNL     1      35.497  -7.021 -24.235  0.00  0.00    +0.117 C 
ENDROOT
BRANCH   4  18
ATOM     18  C   UNL     1      34.411 -14.000 -23.439  0.00  0.00    -0.014 C 
ATOM     19  C   UNL     1      33.596 -14.443 -24.476  0.00  0.00    +0.033 C 
ATOM     20  C   UNL     1      35.249 -14.887 -22.771  0.00  0.00    -0.004 C 
ATOM     21  C   UNL     1      33.620 -15.785 -24.850  0.00  0.00    +0.133 C 
ATOM     22  C   UNL     1      35.274 -16.231 -23.146  0.00  0.00    +0.003 C 
ATOM     23  C   UNL     1      34.459 -16.680 -24.185  0.00  0.00    +0.037 C 
BRANCH  21  24
ATOM     24  O   UNL     1      32.825 -16.224 -25.864  0.00  0.00    -0.506 OA
ATOM     25  H   UNL     1      33.182 -16.772 -26.534  0.00  0.00    +0.292 HD
ENDBRANCH  21  24
ENDBRANCH   4  18
TORSDOF 2
ENDMDL
MODEL 3
REMARK VINA RESULT:      -9.6     11.968     15.810
REMARK  Name = 6857690
REMARK  2 active torsions:
REMARK  status: ('A' for Active; 'I' for Inactive)
REMARK    1  A    between atoms: C_4  and  C_18
REMARK    2  A    between atoms: C_21  and  O_24
REMARK                            x       y       z     vdW  Elec       q    Type
REMARK                         _______ _______ _______ _____ _____    ______ ____
ROOT
ATOM      1  O   UNL     1      33.757 -12.294 -20.746  0.00  0.00    -0.252 OA
ATOM      2  N   UNL     1      33.355 -11.280 -22.773  0.00  0.00    -0.259 N 
ATOM      3  N   UNL     1      34.046 -13.571 -22.641  0.00  0.00    -0.261 N 
ATOM      4  C   UNL     1      33.639  -8.963 -21.988  0.00  0.00    +0.064 C 
ATOM      5  C   UNL     1      32.670 -10.147 -22.162  0.00  0.00    +0.104 C 
ATOM      6  C   UNL     1      34.413  -8.686 -23.275  0.00  0.00    -0.019 C 
ATOM      7  C   UNL     1      34.510  -9.676 -24.276  0.00  0.00    -0.010 C 
ATOM      8  C   UNL     1      33.844 -11.028 -24.134  0.00  0.00    +0.121 C 
ATOM      9  C   UNL     1      35.231  -9.409 -25.450  0.00  0.00    -0.028 C 
ATOM     10  C   UNL     1      35.112  -7.478 -23.449  0.00  0.00    -0.005 C 
ATOM     11  C   UNL     1      35.889  -8.192 -25.620  0.00  0.00    -0.026 C 
ATOM     12  C   UNL     1      33.722 -12.376 -21.981  0.00  0.00    +0.308 C 
ATOM     13  C   UNL     1      35.837  -7.231 -24.616  0.00  0.00    -0.005 C 
ATOM     14  C   UNL     1      35.312 -10.434 -26.541  0.00  0.00    +0.030 C 
ATOM     15  C   UNL     1      36.656  -7.892 -26.865  0.00  0.00    +0.031 C 
ATOM     16  C   UNL     1      33.478 -13.986 -23.921  0.00  0.00    +0.117 C 
ATOM     17  C   UNL     1      34.787 -14.599 -21.924  0.00  0.00    +0.117 C 
ENDROOT
BRANCH   4  18
ATOM     18  C   UNL     1      32.877  -7.770 -21.430  0.00  0.00    -0.014 C 
ATOM     19  C   UNL     1      33.135  -7.330 -20.136  0.00  0.00    +0.033 C 
ATOM     20  C   UNL     1      31.927  -7.128 -22.218  0.00  0.00    -0.004 C 
ATOM     21  C   UNL     1      32.438  -6.237 -19.624  0.00  0.00    +0.133 C 
ATOM     22  C   UNL     1      31.230  -6.033 -21.707  0.00  0.00    +0.003 C 
ATOM     23  C   UNL     1      31.485  -5.588 -20.410  0.00  0.00    +0.037 C 
BRANCH  21  24
ATOM     24  O   UNL     1      32.687  -5.802 -18.359  0.00  0.00    -0.506 OA
ATOM     25  H   UNL     1      32.492  -4.917 -18.121  0.00  0.00    +0.292 HD
ENDBRANCH  21  24
ENDBRANCH   4  18
TORSDOF 2
ENDMDL
MODEL 4
REMARK VINA RESULT:      -9.5      1.973      5.930
REMARK  Name = 6857690
REMARK  2 active torsions:
REMARK  status: ('A' for Active; 'I' for Inactive)
REMARK    1  A    between atoms: C_4  and  C_18
REMARK    2  A    between atoms: C_21  and  O_24
REMARK                            x       y       z     vdW  Elec       q    Type
REMARK                         _______ _______ _______ _____ _____    ______ ____
ROOT
ATOM      1  O   UNL     1      36.943 -20.932 -16.871  0.00  0.00    -0.252 OA
ATOM      2  N   UNL     1      35.244 -22.466 -16.629  0.00  0.00    -0.259 N 
ATOM      3  N   UNL     1      35.366 -21.033 -18.546  0.00  0.00    -0.261 N 
ATOM      4  C   UNL     1      35.430 -22.709 -14.186  0.00  0.00    +0.064 C 
ATOM      5  C   UNL     1      35.932 -23.182 -15.562  0.00  0.00    +0.104 C 
ATOM      6  C   UNL     1      33.904 -22.690 -14.129  0.00  0.00    -0.019 C 
ATOM      7  C   UNL     1      33.146 -22.680 -15.319  0.00  0.00    -0.010 C 
ATOM      8  C   UNL     1      33.797 -22.710 -16.685  0.00  0.00    +0.121 C 
ATOM      9  C   UNL     1      31.744 -22.656 -15.250  0.00  0.00    -0.028 C 
ATOM     10  C   UNL     1      33.231 -22.596 -12.898  0.00  0.00    -0.005 C 
ATOM     11  C   UNL     1      31.093 -22.598 -14.019  0.00  0.00    -0.026 C 
ATOM     12  C   UNL     1      35.911 -21.446 -17.321  0.00  0.00    +0.308 C 
ATOM     13  C   UNL     1      31.837 -22.559 -12.844  0.00  0.00    -0.005 C 
ATOM     14  C   UNL     1      30.922 -22.685 -16.503  0.00  0.00    +0.030 C 
ATOM     15  C   UNL     1      29.603 -22.576 -13.930  0.00  0.00    +0.031 C 
ATOM     16  C   UNL     1      34.606 -21.898 -19.445  0.00  0.00    +0.117 C 
ATOM     17  C   UNL     1      35.776 -19.754 -19.109  0.00  0.00    +0.117 C 
ENDROOT
BRANCH   4  18
ATOM     18  C   UNL     1      36.102 -23.532 -13.097  0.00  0.00    -0.014 C 
ATOM     19  C   UNL     1      36.015 -23.123 -11.770  0.00  0.00    +0.033 C 
ATOM     20  C   UNL     1      36.797 -24.688 -13.436  0.00  0.00    -0.004 C 
ATOM     21  C   UNL     1      36.630 -23.878 -10.772  0.00  0.00    +0.133 C 
ATOM     22  C   UNL     1      37.412 -25.444 -12.438  0.00  0.00    +0.003 C 
ATOM     23  C   UNL     1      37.328 -25.039 -11.106  0.00  0.00    +0.037 C 
BRANCH  21  24
ATOM     24  O   UNL     1      36.548 -23.483  -9.472  0.00  0.00    -0.506 OA
ATOM     25  H   UNL     1      36.850 -24.050  -8.791  0.00  0.00    +0.292 HD
ENDBRANCH  21  24
ENDBRANCH   4  18
TORSDOF 2
ENDMDL
MODEL 5
REMARK VINA RESULT:      -9.5     13.791     17.209
REMARK  Name = 6857690
REMARK  2 active torsions:
REMARK  status: ('A' for Active; 'I' for Inactive)
REMARK    1  A    between atoms: C_4  and  C_18
REMARK    2  A    between atoms: C_21  and  O_24
REMARK                            x       y       z     vdW  Elec       q    Type
REMARK                         _______ _______ _______ _____ _____    ______ ____
ROOT
ATOM      1  O   UNL     1      31.939  -8.038 -19.256  0.00  0.00    -0.252 OA
ATOM      2  N   UNL     1      31.909  -8.664 -21.470  0.00  0.00    -0.259 N 
ATOM      3  N   UNL     1      31.931 -10.295 -19.714  0.00  0.00    -0.261 N 
ATOM      4  C   UNL     1      32.796  -6.552 -22.372  0.00  0.00    +0.064 C 
ATOM      5  C   UNL     1      31.543  -7.328 -21.927  0.00  0.00    +0.104 C 
ATOM      6  C   UNL     1      33.663  -7.386 -23.311  0.00  0.00    -0.019 C 
ATOM      7  C   UNL     1      33.517  -8.789 -23.358  0.00  0.00    -0.010 C 
ATOM      8  C   UNL     1      32.498  -9.518 -22.509  0.00  0.00    +0.121 C 
ATOM      9  C   UNL     1      34.327  -9.544 -24.222  0.00  0.00    -0.028 C 
ATOM     10  C   UNL     1      34.675  -6.786 -24.081  0.00  0.00    -0.005 C 
ATOM     11  C   UNL     1      35.302  -8.927 -25.003  0.00  0.00    -0.026 C 
ATOM     12  C   UNL     1      31.928  -8.945 -20.097  0.00  0.00    +0.308 C 
ATOM     13  C   UNL     1      35.482  -7.550 -24.926  0.00  0.00    -0.005 C 
ATOM     14  C   UNL     1      34.159 -11.031 -24.313  0.00  0.00    +0.030 C 
ATOM     15  C   UNL     1      36.167  -9.716 -25.929  0.00  0.00    +0.031 C 
ATOM     16  C   UNL     1      31.317 -11.373 -20.485  0.00  0.00    +0.117 C 
ATOM     17  C   UNL     1      32.331 -10.646 -18.358  0.00  0.00    +0.117 C 
ENDROOT
BRANCH   4  18
ATOM     18  C   UNL     1      32.375  -5.197 -22.923  0.00  0.00    -0.014 C 
ATOM     19  C   UNL     1      32.285  -4.102 -22.069  0.00  0.00    +0.033 C 
ATOM     20  C   UNL     1      32.084  -5.063 -24.277  0.00  0.00    -0.004 C 
ATOM     21  C   UNL     1      31.901  -2.861 -22.574  0.00  0.00    +0.133 C 
ATOM     22  C   UNL     1      31.700  -3.821 -24.782  0.00  0.00    +0.003 C 
ATOM     23  C   UNL     1      31.608  -2.720 -23.931  0.00  0.00    +0.037 C 
BRANCH  21  24
ATOM     24  O   UNL     1      31.811  -1.786 -21.744  0.00  0.00    -0.506 OA
ATOM     25  H   UNL     1      32.366  -1.728 -20.991  0.00  0.00    +0.292 HD
ENDBRANCH  21  24
ENDBRANCH   4  18
TORSDOF 2
ENDMDL
MODEL 6
REMARK VINA RESULT:      -9.3     12.452     16.011
REMARK  Name = 6857690
REMARK  2 active torsions:
REMARK  status: ('A' for Active; 'I' for Inactive)
REMARK    1  A    between atoms: C_4  and  C_18
REMARK    2  A    between atoms: C_21  and  O_24
REMARK                            x       y       z     vdW  Elec       q    Type
REMARK                         _______ _______ _______ _____ _____    ______ ____
ROOT
ATOM      1  O   UNL     1      32.730 -11.249 -19.490  0.00  0.00    -0.252 OA
ATOM      2  N   UNL     1      32.518 -10.533 -21.668  0.00  0.00    -0.259 N 
ATOM      3  N   UNL     1      32.926 -12.837 -21.148  0.00  0.00    -0.261 N 
ATOM      4  C   UNL     1      33.048  -8.168 -21.239  0.00  0.00    +0.064 C 
ATOM      5  C   UNL     1      31.952  -9.247 -21.276  0.00  0.00    +0.104 C 
ATOM      6  C   UNL     1      33.891  -8.188 -22.512  0.00  0.00    -0.019 C 
ATOM      7  C   UNL     1      33.902  -9.330 -23.341  0.00  0.00    -0.010 C 
ATOM      8  C   UNL     1      33.076 -10.559 -23.025  0.00  0.00    +0.121 C 
ATOM      9  C   UNL     1      34.688  -9.337 -24.504  0.00  0.00    -0.028 C 
ATOM     10  C   UNL     1      34.734  -7.110 -22.836  0.00  0.00    -0.005 C 
ATOM     11  C   UNL     1      35.491  -8.244 -24.827  0.00  0.00    -0.026 C 
ATOM     12  C   UNL     1      32.726 -11.523 -20.697  0.00  0.00    +0.308 C 
ATOM     13  C   UNL     1      35.520  -7.135 -23.988  0.00  0.00    -0.005 C 
ATOM     14  C   UNL     1      34.682 -10.526 -25.417  0.00  0.00    +0.030 C 
ATOM     15  C   UNL     1      36.328  -8.236 -26.063  0.00  0.00    +0.031 C 
ATOM     16  C   UNL     1      32.355 -13.385 -22.375  0.00  0.00    +0.117 C 
ATOM     17  C   UNL     1      33.517 -13.813 -20.242  0.00  0.00    +0.117 C 
ENDROOT
BRANCH   4  18
ATOM     18  C   UNL     1      32.416  -6.823 -20.912  0.00  0.00    -0.014 C 
ATOM     19  C   UNL     1      32.802  -6.139 -19.763  0.00  0.00    +0.033 C 
ATOM     20  C   UNL     1      31.456  -6.287 -21.764  0.00  0.00    -0.004 C 
ATOM     21  C   UNL     1      32.223  -4.907 -19.464  0.00  0.00    +0.133 C 
ATOM     22  C   UNL     1      30.877  -5.053 -21.465  0.00  0.00    +0.003 C 
ATOM     23  C   UNL     1      31.260  -4.363 -20.315  0.00  0.00    +0.037 C 
BRANCH  21  24
ATOM     24  O   UNL     1      32.597  -4.234 -18.342  0.00  0.00    -0.506 OA
ATOM     25  H   UNL     1      33.419  -3.785 -18.317  0.00  0.00    +0.292 HD
ENDBRANCH  21  24
ENDBRANCH   4  18
TORSDOF 2
ENDMDL
MODEL 7
REMARK VINA RESULT:      -9.2     10.871     14.026
REMARK  Name = 6857690
REMARK  2 active torsions:
REMARK  status: ('A' for Active; 'I' for Inactive)
REMARK    1  A    between atoms: C_4  and  C_18
REMARK    2  A    between atoms: C_21  and  O_24
REMARK                            x       y       z     vdW  Elec       q    Type
REMARK                         _______ _______ _______ _____ _____    ______ ____
ROOT
ATOM      1  O   UNL     1      33.505 -13.012 -25.723  0.00  0.00    -0.252 OA
ATOM      2  N   UNL     1      34.167 -12.491 -23.581  0.00  0.00    -0.259 N 
ATOM      3  N   UNL     1      33.965 -14.767 -24.304  0.00  0.00    -0.261 N 
ATOM      4  C   UNL     1      33.218 -10.220 -23.539  0.00  0.00    +0.064 C 
ATOM      5  C   UNL     1      34.427 -11.095 -23.914  0.00  0.00    +0.104 C 
ATOM      6  C   UNL     1      32.741 -10.510 -22.118  0.00  0.00    -0.019 C 
ATOM      7  C   UNL     1      33.104 -11.714 -21.476  0.00  0.00    -0.010 C 
ATOM      8  C   UNL     1      33.984 -12.746 -22.147  0.00  0.00    +0.121 C 
ATOM      9  C   UNL     1      32.652 -11.970 -20.172  0.00  0.00    -0.028 C 
ATOM     10  C   UNL     1      31.867  -9.629 -21.456  0.00  0.00    -0.005 C 
ATOM     11  C   UNL     1      31.814 -11.068 -19.519  0.00  0.00    -0.026 C 
ATOM     12  C   UNL     1      33.857 -13.400 -24.602  0.00  0.00    +0.308 C 
ATOM     13  C   UNL     1      31.415  -9.902 -20.165  0.00  0.00    -0.005 C 
ATOM     14  C   UNL     1      33.059 -13.225 -19.461  0.00  0.00    +0.030 C 
ATOM     15  C   UNL     1      31.330 -11.325 -18.131  0.00  0.00    +0.031 C 
ATOM     16  C   UNL     1      34.903 -15.329 -23.336  0.00  0.00    +0.117 C 
ATOM     17  C   UNL     1      33.305 -15.735 -25.169  0.00  0.00    +0.117 C 
ENDROOT
BRANCH   4  18
ATOM     18  C   UNL     1      33.550  -8.761 -23.817  0.00  0.00    -0.014 C 
ATOM     19  C   UNL     1      32.549  -7.798 -23.743  0.00  0.00    +0.033 C 
ATOM     20  C   UNL     1      34.854  -8.401 -24.143  0.00  0.00    -0.004 C 
ATOM     21  C   UNL     1      32.853  -6.462 -23.997  0.00  0.00    +0.133 C 
ATOM     22  C   UNL     1      35.159  -7.063 -24.397  0.00  0.00    +0.003 C 
ATOM     23  C   UNL     1      34.159  -6.094 -24.324  0.00  0.00    +0.037 C 
BRANCH  21  24
ATOM     24  O   UNL     1      31.877  -5.516 -23.926  0.00  0.00    -0.506 OA
ATOM     25  H   UNL     1      31.322  -5.359 -24.664  0.00  0.00    +0.292 HD
ENDBRANCH  21  24
ENDBRANCH   4  18
TORSDOF 2
ENDMDL
MODEL 8
REMARK VINA RESULT:      -8.9     12.050     15.881
REMARK  Name = 6857690
REMARK  2 active torsions:
REMARK  status: ('A' for Active; 'I' for Inactive)
REMARK    1  A    between atoms: C_4  and  C_18
REMARK    2  A    between atoms: C_21  and  O_24
REMARK                            x       y       z     vdW  Elec       q    Type
REMARK                         _______ _______ _______ _____ _____    ______ ____
ROOT
ATOM      1  O   UNL     1      33.804 -12.296 -20.835  0.00  0.00    -0.252 OA
ATOM      2  N   UNL     1      33.397 -11.257 -22.849  0.00  0.00    -0.259 N 
ATOM      3  N   UNL     1      34.049 -13.561 -22.744  0.00  0.00    -0.261 N 
ATOM      4  C   UNL     1      33.729  -8.953 -22.048  0.00  0.00    +0.064 C 
ATOM      5  C   UNL     1      32.738 -10.118 -22.220  0.00  0.00    +0.104 C 
ATOM      6  C   UNL     1      34.493  -8.678 -23.341  0.00  0.00    -0.019 C 
ATOM      7  C   UNL     1      34.561  -9.661 -24.351  0.00  0.00    -0.010 C 
ATOM      8  C   UNL     1      33.874 -11.002 -24.213  0.00  0.00    +0.121 C 
ATOM      9  C   UNL     1      35.274  -9.396 -25.532  0.00  0.00    -0.028 C 
ATOM     10  C   UNL     1      35.211  -7.481 -23.513  0.00  0.00    -0.005 C 
ATOM     11  C   UNL     1      35.950  -8.189 -25.699  0.00  0.00    -0.026 C 
ATOM     12  C   UNL     1      33.754 -12.367 -22.070  0.00  0.00    +0.308 C 
ATOM     13  C   UNL     1      35.926  -7.236 -24.686  0.00  0.00    -0.005 C 
ATOM     14  C   UNL     1      35.324 -10.413 -26.632  0.00  0.00    +0.030 C 
ATOM     15  C   UNL     1      36.708  -7.892 -26.950  0.00  0.00    +0.031 C 
ATOM     16  C   UNL     1      33.460 -13.955 -24.021  0.00  0.00    +0.117 C 
ATOM     17  C   UNL     1      34.781 -14.608 -22.043  0.00  0.00    +0.117 C 
ENDROOT
BRANCH   4  18
ATOM     18  C   UNL     1      32.994  -7.752 -21.471  0.00  0.00    -0.014 C 
ATOM     19  C   UNL     1      32.405  -6.826 -22.326  0.00  0.00    +0.033 C 
ATOM     20  C   UNL     1      32.916  -7.589 -20.091  0.00  0.00    -0.004 C 
ATOM     21  C   UNL     1      31.731  -5.726 -21.797  0.00  0.00    +0.133 C 
ATOM     22  C   UNL     1      32.241  -6.488 -19.562  0.00  0.00    +0.003 C 
ATOM     23  C   UNL     1      31.649  -5.557 -20.415  0.00  0.00    +0.037 C 
BRANCH  21  24
ATOM     24  O   UNL     1      31.153  -4.817 -22.629  0.00  0.00    -0.506 OA
ATOM     25  H   UNL     1      30.488  -4.243 -22.305  0.00  0.00    +0.292 HD
ENDBRANCH  21  24
ENDBRANCH   4  18
TORSDOF 2
ENDMDL
MODEL 9
REMARK VINA RESULT:      -8.8     13.459     16.171
REMARK  Name = 6857690
REMARK  2 active torsions:
REMARK  status: ('A' for Active; 'I' for Inactive)
REMARK    1  A    between atoms: C_4  and  C_18
REMARK    2  A    between atoms: C_21  and  O_24
REMARK                            x       y       z     vdW  Elec       q    Type
REMARK                         _______ _______ _______ _____ _____    ______ ____
ROOT
ATOM      1  O   UNL     1      31.514 -11.112 -20.986  0.00  0.00    -0.252 OA
ATOM      2  N   UNL     1      32.757  -9.175 -20.981  0.00  0.00    -0.259 N 
ATOM      3  N   UNL     1      31.333  -9.746 -19.140  0.00  0.00    -0.261 N 
ATOM      4  C   UNL     1      33.066  -9.034 -23.420  0.00  0.00    +0.064 C 
ATOM      5  C   UNL     1      33.592  -9.613 -22.094  0.00  0.00    +0.104 C 
ATOM      6  C   UNL     1      32.803  -7.534 -23.305  0.00  0.00    -0.019 C 
ATOM      7  C   UNL     1      32.652  -6.932 -22.038  0.00  0.00    -0.010 C 
ATOM      8  C   UNL     1      32.764  -7.725 -20.754  0.00  0.00    +0.121 C 
ATOM      9  C   UNL     1      32.403  -5.553 -21.950  0.00  0.00    -0.028 C 
ATOM     10  C   UNL     1      32.621  -6.745 -24.455  0.00  0.00    -0.005 C 
ATOM     11  C   UNL     1      32.261  -4.780 -23.101  0.00  0.00    -0.026 C 
ATOM     12  C   UNL     1      31.847 -10.072 -20.404  0.00  0.00    +0.308 C 
ATOM     13  C   UNL     1      32.361  -5.378 -24.352  0.00  0.00    -0.005 C 
ATOM     14  C   UNL     1      32.279  -4.889 -20.612  0.00  0.00    +0.030 C 
ATOM     15  C   UNL     1      32.001  -3.312 -23.021  0.00  0.00    +0.031 C 
ATOM     16  C   UNL     1      32.049  -8.968 -18.133  0.00  0.00    +0.117 C 
ATOM     17  C   UNL     1      30.127 -10.416 -18.672  0.00  0.00    +0.117 C 
ENDROOT
BRANCH   4  18
ATOM     18  C   UNL     1      34.004  -9.435 -24.549  0.00  0.00    -0.014 C 
ATOM     19  C   UNL     1      33.710 -10.550 -25.327  0.00  0.00    +0.033 C 
ATOM     20  C   UNL     1      35.149  -8.683 -24.794  0.00  0.00    -0.004 C 
ATOM     21  C   UNL     1      34.569 -10.917 -26.362  0.00  0.00    +0.133 C 
ATOM     22  C   UNL     1      36.008  -9.050 -25.830  0.00  0.00    +0.003 C 
ATOM     23  C   UNL     1      35.718 -10.167 -26.614  0.00  0.00    +0.037 C 
BRANCH  21  24
ATOM     24  O   UNL     1      34.287 -12.007 -27.127  0.00  0.00    -0.506 OA
ATOM     25  H   UNL     1      33.982 -11.896 -28.006  0.00  0.00    +0.292 HD
ENDBRANCH  21  24
ENDBRANCH   4  18
TORSDOF 2
ENDMDL
