MODEL 1
REMARK VINA RESULT:     -11.1      0.000      0.000
REMARK  Name = 446277
REMARK  7 active torsions:
REMARK  status: ('A' for Active; 'I' for Inactive)
REMARK    1  A    between atoms: N_2  and  C_17
REMARK    2  A    between atoms: C_3  and  C_5
REMARK    3  A    between atoms: C_8  and  S_11
REMARK    4  A    between atoms: S_11  and  N_14
REMARK    5  A    between atoms: C_17  and  C_18
REMARK    6  A    between atoms: C_18  and  C_20
REMARK    7  A    between atoms: C_20  and  N_21
REMARK                            x       y       z     vdW  Elec       q    Type
REMARK                         _______ _______ _______ _____ _____    ______ ____
ROOT
ATOM      1  O   UNL     1      37.225 -17.628 -21.802  0.00  0.00    -0.270 OA
ATOM      2  N   UNL     1      35.105 -16.684 -21.765  0.00  0.00    -0.301 N 
ATOM      3  C   UNL     1      36.053 -17.644 -21.432  0.00  0.00    +0.246 C 
ATOM      4  H   UNL     1      34.190 -16.784 -21.418  0.00  0.00    +0.150 HD
ENDROOT
BRANCH   3   5
ATOM      5  C   UNL     1      35.575 -18.771 -20.589  0.00  0.00    +0.053 C 
ATOM      6  C   UNL     1      34.229 -19.070 -20.577  0.00  0.00    +0.006 C 
ATOM      7  C   UNL     1      36.495 -19.481 -19.844  0.00  0.00    +0.006 C 
ATOM      8  C   UNL     1      34.691 -20.862 -19.023  0.00  0.00    +0.122 C 
ATOM      9  C   UNL     1      33.781 -20.128 -19.784  0.00  0.00    +0.020 C 
ATOM     10  C   UNL     1      36.047 -20.538 -19.053  0.00  0.00    +0.020 C 
BRANCH   8  11
ATOM     11  S   UNL     1      34.131 -22.186 -18.032  0.00  0.00    +0.057 S 
ATOM     12  O   UNL     1      34.064 -23.383 -18.860  0.00  0.00    -0.153 OA
ATOM     13  O   UNL     1      34.906 -22.202 -16.799  0.00  0.00    -0.153 OA
BRANCH  11  14
ATOM     14  N   UNL     1      32.541 -21.675 -17.673  0.00  0.00    -0.203 NA
ATOM     15  H   UNL     1      32.414 -20.712 -17.985  0.00  0.00    +0.144 HD
ATOM     16  H   UNL     1      32.386 -21.730 -16.666  0.00  0.00    +0.144 HD
ENDBRANCH  11  14
ENDBRANCH   8  11
ENDBRANCH   3   5
BRANCH   2  17
ATOM     17  C   UNL     1      35.409 -15.549 -22.593  0.00  0.00    +0.091 C 
BRANCH  17  18
ATOM     18  C   UNL     1      34.957 -14.210 -21.990  0.00  0.00    +0.040 C 
ATOM     19  C   UNL     1      34.839 -14.305 -20.465  0.00  0.00    +0.004 C 
BRANCH  18  20
ATOM     20  C   UNL     1      33.646 -13.725 -22.641  0.00  0.00    +0.097 C 
BRANCH  20  21
ATOM     21  N   UNL     1      33.455 -12.279 -22.573  0.00  0.00    -0.286 N 
ATOM     22  C   UNL     1      32.712 -11.627 -21.627  0.00  0.00    +0.052 C 
ATOM     23  C   UNL     1      32.792 -10.264 -21.925  0.00  0.00    +0.015 C 
ATOM     24  C   UNL     1      34.003 -11.400 -23.457  0.00  0.00    +0.065 C 
ATOM     25  C   UNL     1      33.609 -10.136 -23.082  0.00  0.00    +0.017 C 
ATOM     26  C   UNL     1      31.981 -12.121 -20.541  0.00  0.00    +0.015 C 
ATOM     27  C   UNL     1      32.109  -9.348 -21.099  0.00  0.00    +0.001 C 
ATOM     28  C   UNL     1      31.311 -11.194 -19.736  0.00  0.00    +0.001 C 
ATOM     29  C   UNL     1      31.373  -9.829 -20.009  0.00  0.00    +0.000 C 
ENDBRANCH  20  21
ENDBRANCH  18  20
ENDBRANCH  17  18
ENDBRANCH   2  17
TORSDOF 7
ENDMDL
MODEL 2
REMARK VINA RESULT:     -11.1      5.717     11.260
REMARK  Name = 446277
REMARK  7 active torsions:
REMARK  status: ('A' for Active; 'I' for Inactive)
REMARK    1  A    between atoms: N_2  and  C_17
REMARK    2  A    between atoms: C_3  and  C_5
REMARK    3  A    between atoms: C_8  and  S_11
REMARK    4  A    between atoms: S_11  and  N_14
REMARK    5  A    between atoms: C_17  and  C_18
REMARK    6  A    between atoms: C_18  and  C_20
REMARK    7  A    between atoms: C_20  and  N_21
REMARK                            x       y       z     vdW  Elec       q    Type
REMARK                         _______ _______ _______ _____ _____    ______ ____
ROOT
ATOM      1  O   UNL     1      33.883 -23.566 -18.441  0.00  0.00    -0.270 OA
ATOM      2  N   UNL     1      33.118 -22.104 -16.809  0.00  0.00    -0.301 N 
ATOM      3  C   UNL     1      33.754 -22.425 -18.003  0.00  0.00    +0.246 C 
ATOM      4  H   UNL     1      33.065 -21.159 -16.542  0.00  0.00    +0.150 HD
ENDROOT
BRANCH   3   5
ATOM      5  C   UNL     1      34.329 -21.286 -18.765  0.00  0.00    +0.053 C 
ATOM      6  C   UNL     1      33.480 -20.465 -19.477  0.00  0.00    +0.006 C 
ATOM      7  C   UNL     1      35.694 -21.087 -18.735  0.00  0.00    +0.006 C 
ATOM      8  C   UNL     1      35.397 -19.173 -20.179  0.00  0.00    +0.122 C 
ATOM      9  C   UNL     1      34.020 -19.396 -20.193  0.00  0.00    +0.020 C 
ATOM     10  C   UNL     1      36.233 -20.018 -19.451  0.00  0.00    +0.020 C 
BRANCH   8  11
ATOM     11  S   UNL     1      36.073 -17.834 -21.074  0.00  0.00    +0.057 S 
ATOM     12  O   UNL     1      35.579 -16.595 -20.488  0.00  0.00    -0.153 OA
ATOM     13  O   UNL     1      37.507 -18.047 -21.213  0.00  0.00    -0.153 OA
BRANCH  11  14
ATOM     14  N   UNL     1      35.336 -18.056 -22.599  0.00  0.00    -0.203 NA
ATOM     15  H   UNL     1      35.384 -17.186 -23.130  0.00  0.00    +0.144 HD
ATOM     16  H   UNL     1      34.359 -18.321 -22.469  0.00  0.00    +0.144 HD
ENDBRANCH  11  14
ENDBRANCH   8  11
ENDBRANCH   3   5
BRANCH   2  17
ATOM     17  C   UNL     1      32.535 -23.098 -15.950  0.00  0.00    +0.091 C 
BRANCH  17  18
ATOM     18  C   UNL     1      33.138 -23.119 -14.537  0.00  0.00    +0.040 C 
ATOM     19  C   UNL     1      32.257 -22.343 -13.552  0.00  0.00    +0.004 C 
BRANCH  18  20
ATOM     20  C   UNL     1      34.588 -22.596 -14.548  0.00  0.00    +0.097 C 
BRANCH  20  21
ATOM     21  N   UNL     1      35.585 -23.621 -14.246  0.00  0.00    -0.286 N 
ATOM     22  C   UNL     1      36.525 -23.537 -13.256  0.00  0.00    +0.052 C 
ATOM     23  C   UNL     1      37.270 -24.717 -13.309  0.00  0.00    +0.015 C 
ATOM     24  C   UNL     1      35.695 -24.795 -14.928  0.00  0.00    +0.065 C 
ATOM     25  C   UNL     1      36.735 -25.501 -14.369  0.00  0.00    +0.017 C 
ATOM     26  C   UNL     1      36.779 -22.526 -12.322  0.00  0.00    +0.015 C 
ATOM     27  C   UNL     1      38.320 -24.899 -12.387  0.00  0.00    +0.001 C 
ATOM     28  C   UNL     1      37.826 -22.728 -11.418  0.00  0.00    +0.001 C 
ATOM     29  C   UNL     1      38.586 -23.896 -11.448  0.00  0.00    +0.000 C 
ENDBRANCH  20  21
ENDBRANCH  18  20
ENDBRANCH  17  18
ENDBRANCH   2  17
TORSDOF 7
ENDMDL
MODEL 3
REMARK VINA RESULT:     -11.1      5.699     11.016
REMARK  Name = 446277
REMARK  7 active torsions:
REMARK  status: ('A' for Active; 'I' for Inactive)
REMARK    1  A    between atoms: N_2  and  C_17
REMARK    2  A    between atoms: C_3  and  C_5
REMARK    3  A    between atoms: C_8  and  S_11
REMARK    4  A    between atoms: S_11  and  N_14
REMARK    5  A    between atoms: C_17  and  C_18
REMARK    6  A    between atoms: C_18  and  C_20
REMARK    7  A    between atoms: C_20  and  N_21
REMARK                            x       y       z     vdW  Elec       q    Type
REMARK                         _______ _______ _______ _____ _____    ______ ____
ROOT
ATOM      1  O   UNL     1      33.821 -23.539 -18.303  0.00  0.00    -0.270 OA
ATOM      2  N   UNL     1      33.155 -22.027 -16.672  0.00  0.00    -0.301 N 
ATOM      3  C   UNL     1      33.730 -22.386 -17.886  0.00  0.00    +0.246 C 
ATOM      4  H   UNL     1      33.129 -21.075 -16.426  0.00  0.00    +0.150 HD
ENDROOT
BRANCH   3   5
ATOM      5  C   UNL     1      34.287 -21.276 -18.700  0.00  0.00    +0.053 C 
ATOM      6  C   UNL     1      33.422 -20.471 -19.412  0.00  0.00    +0.006 C 
ATOM      7  C   UNL     1      35.654 -21.084 -18.718  0.00  0.00    +0.006 C 
ATOM      8  C   UNL     1      35.323 -19.213 -20.211  0.00  0.00    +0.122 C 
ATOM      9  C   UNL     1      33.946 -19.428 -20.176  0.00  0.00    +0.020 C 
ATOM     10  C   UNL     1      36.177 -20.041 -19.482  0.00  0.00    +0.020 C 
BRANCH   8  11
ATOM     11  S   UNL     1      35.979 -17.907 -21.167  0.00  0.00    +0.057 S 
ATOM     12  O   UNL     1      37.430 -18.030 -21.178  0.00  0.00    -0.153 OA
ATOM     13  O   UNL     1      35.249 -17.843 -22.425  0.00  0.00    -0.153 OA
BRANCH  11  14
ATOM     14  N   UNL     1      35.547 -16.557 -20.214  0.00  0.00    -0.203 NA
ATOM     15  H   UNL     1      35.126 -15.842 -20.807  0.00  0.00    +0.144 HD
ATOM     16  H   UNL     1      36.381 -16.178 -19.764  0.00  0.00    +0.144 HD
ENDBRANCH  11  14
ENDBRANCH   8  11
ENDBRANCH   3   5
BRANCH   2  17
ATOM     17  C   UNL     1      32.595 -22.991 -15.764  0.00  0.00    +0.091 C 
BRANCH  17  18
ATOM     18  C   UNL     1      33.587 -23.474 -14.694  0.00  0.00    +0.040 C 
ATOM     19  C   UNL     1      32.852 -24.119 -13.514  0.00  0.00    +0.004 C 
BRANCH  18  20
ATOM     20  C   UNL     1      34.512 -22.327 -14.240  0.00  0.00    +0.097 C 
BRANCH  20  21
ATOM     21  N   UNL     1      35.932 -22.604 -14.436  0.00  0.00    -0.286 N 
ATOM     22  C   UNL     1      36.681 -23.453 -13.668  0.00  0.00    +0.052 C 
ATOM     23  C   UNL     1      37.977 -23.428 -14.191  0.00  0.00    +0.015 C 
ATOM     24  C   UNL     1      36.685 -22.039 -15.420  0.00  0.00    +0.065 C 
ATOM     25  C   UNL     1      37.964 -22.532 -15.296  0.00  0.00    +0.017 C 
ATOM     26  C   UNL     1      36.328 -24.237 -12.564  0.00  0.00    +0.015 C 
ATOM     27  C   UNL     1      38.969 -24.223 -13.583  0.00  0.00    +0.001 C 
ATOM     28  C   UNL     1      37.330 -25.017 -11.977  0.00  0.00    +0.001 C 
ATOM     29  C   UNL     1      38.631 -25.012 -12.478  0.00  0.00    +0.000 C 
ENDBRANCH  20  21
ENDBRANCH  18  20
ENDBRANCH  17  18
ENDBRANCH   2  17
TORSDOF 7
ENDMDL
MODEL 4
REMARK VINA RESULT:     -11.0      5.671     11.428
REMARK  Name = 446277
REMARK  7 active torsions:
REMARK  status: ('A' for Active; 'I' for Inactive)
REMARK    1  A    between atoms: N_2  and  C_17
REMARK    2  A    between atoms: C_3  and  C_5
REMARK    3  A    between atoms: C_8  and  S_11
REMARK    4  A    between atoms: S_11  and  N_14
REMARK    5  A    between atoms: C_17  and  C_18
REMARK    6  A    between atoms: C_18  and  C_20
REMARK    7  A    between atoms: C_20  and  N_21
REMARK                            x       y       z     vdW  Elec       q    Type
REMARK                         _______ _______ _______ _____ _____    ______ ____
ROOT
ATOM      1  O   UNL     1      33.916 -23.572 -18.644  0.00  0.00    -0.270 OA
ATOM      2  N   UNL     1      33.350 -22.209 -16.853  0.00  0.00    -0.301 N 
ATOM      3  C   UNL     1      33.860 -22.461 -18.121  0.00  0.00    +0.246 C 
ATOM      4  H   UNL     1      33.348 -21.282 -16.521  0.00  0.00    +0.150 HD
ENDROOT
BRANCH   3   5
ATOM      5  C   UNL     1      34.391 -21.286 -18.859  0.00  0.00    +0.053 C 
ATOM      6  C   UNL     1      35.752 -21.060 -18.864  0.00  0.00    +0.006 C 
ATOM      7  C   UNL     1      33.505 -20.458 -19.517  0.00  0.00    +0.006 C 
ATOM      8  C   UNL     1      35.374 -19.104 -20.230  0.00  0.00    +0.122 C 
ATOM      9  C   UNL     1      36.249 -19.956 -19.557  0.00  0.00    +0.020 C 
ATOM     10  C   UNL     1      34.003 -19.355 -20.210  0.00  0.00    +0.020 C 
BRANCH   8  11
ATOM     11  S   UNL     1      35.997 -17.723 -21.099  0.00  0.00    +0.057 S 
ATOM     12  O   UNL     1      35.556 -16.514 -20.416  0.00  0.00    -0.153 OA
ATOM     13  O   UNL     1      37.416 -17.935 -21.349  0.00  0.00    -0.153 OA
BRANCH  11  14
ATOM     14  N   UNL     1      35.154 -17.860 -22.578  0.00  0.00    -0.203 NA
ATOM     15  H   UNL     1      35.762 -17.572 -23.345  0.00  0.00    +0.144 HD
ATOM     16  H   UNL     1      34.328 -17.262 -22.555  0.00  0.00    +0.144 HD
ENDBRANCH  11  14
ENDBRANCH   8  11
ENDBRANCH   3   5
BRANCH   2  17
ATOM     17  C   UNL     1      32.823 -23.246 -16.009  0.00  0.00    +0.091 C 
BRANCH  17  18
ATOM     18  C   UNL     1      33.216 -23.093 -14.531  0.00  0.00    +0.040 C 
ATOM     19  C   UNL     1      32.228 -22.185 -13.791  0.00  0.00    +0.004 C 
BRANCH  18  20
ATOM     20  C   UNL     1      34.669 -22.596 -14.394  0.00  0.00    +0.097 C 
BRANCH  20  21
ATOM     21  N   UNL     1      35.411 -23.240 -13.313  0.00  0.00    -0.286 N 
ATOM     22  C   UNL     1      36.704 -23.680 -13.400  0.00  0.00    +0.052 C 
ATOM     23  C   UNL     1      37.025 -24.227 -12.155  0.00  0.00    +0.015 C 
ATOM     24  C   UNL     1      34.893 -23.482 -12.077  0.00  0.00    +0.065 C 
ATOM     25  C   UNL     1      35.873 -24.096 -11.331  0.00  0.00    +0.017 C 
ATOM     26  C   UNL     1      37.612 -23.639 -14.463  0.00  0.00    +0.015 C 
ATOM     27  C   UNL     1      38.315 -24.762 -11.961  0.00  0.00    +0.001 C 
ATOM     28  C   UNL     1      38.886 -24.176 -14.248  0.00  0.00    +0.001 C 
ATOM     29  C   UNL     1      39.233 -24.729 -13.017  0.00  0.00    +0.000 C 
ENDBRANCH  20  21
ENDBRANCH  18  20
ENDBRANCH  17  18
ENDBRANCH   2  17
TORSDOF 7
ENDMDL
MODEL 5
REMARK VINA RESULT:     -10.9      0.829      1.858
REMARK  Name = 446277
REMARK  7 active torsions:
REMARK  status: ('A' for Active; 'I' for Inactive)
REMARK    1  A    between atoms: N_2  and  C_17
REMARK    2  A    between atoms: C_3  and  C_5
REMARK    3  A    between atoms: C_8  and  S_11
REMARK    4  A    between atoms: S_11  and  N_14
REMARK    5  A    between atoms: C_17  and  C_18
REMARK    6  A    between atoms: C_18  and  C_20
REMARK    7  A    between atoms: C_20  and  N_21
REMARK                            x       y       z     vdW  Elec       q    Type
REMARK                         _______ _______ _______ _____ _____    ______ ____
ROOT
ATOM      1  O   UNL     1      37.364 -17.884 -21.705  0.00  0.00    -0.270 OA
ATOM      2  N   UNL     1      35.308 -16.810 -21.634  0.00  0.00    -0.301 N 
ATOM      3  C   UNL     1      36.199 -17.829 -21.319  0.00  0.00    +0.246 C 
ATOM      4  H   UNL     1      34.393 -16.855 -21.275  0.00  0.00    +0.150 HD
ENDROOT
BRANCH   3   5
ATOM      5  C   UNL     1      35.664 -18.928 -20.474  0.00  0.00    +0.053 C 
ATOM      6  C   UNL     1      34.303 -19.147 -20.448  0.00  0.00    +0.006 C 
ATOM      7  C   UNL     1      36.547 -19.694 -19.741  0.00  0.00    +0.006 C 
ATOM      8  C   UNL     1      34.673 -20.968 -18.905  0.00  0.00    +0.122 C 
ATOM      9  C   UNL     1      33.801 -20.179 -19.654  0.00  0.00    +0.020 C 
ATOM     10  C   UNL     1      36.046 -20.726 -18.948  0.00  0.00    +0.020 C 
BRANCH   8  11
ATOM     11  S   UNL     1      34.045 -22.261 -17.912  0.00  0.00    +0.057 S 
ATOM     12  O   UNL     1      33.983 -23.472 -18.720  0.00  0.00    -0.153 OA
ATOM     13  O   UNL     1      34.771 -22.269 -16.650  0.00  0.00    -0.153 OA
BRANCH  11  14
ATOM     14  N   UNL     1      32.454 -21.708 -17.625  0.00  0.00    -0.203 NA
ATOM     15  H   UNL     1      32.222 -21.835 -16.640  0.00  0.00    +0.144 HD
ATOM     16  H   UNL     1      31.801 -22.239 -18.200  0.00  0.00    +0.144 HD
ENDBRANCH  11  14
ENDBRANCH   8  11
ENDBRANCH   3   5
BRANCH   2  17
ATOM     17  C   UNL     1      35.671 -15.692 -22.462  0.00  0.00    +0.091 C 
BRANCH  17  18
ATOM     18  C   UNL     1      34.471 -14.837 -22.899  0.00  0.00    +0.040 C 
ATOM     19  C   UNL     1      34.335 -14.821 -24.425  0.00  0.00    +0.004 C 
BRANCH  18  20
ATOM     20  C   UNL     1      34.564 -13.414 -22.313  0.00  0.00    +0.097 C 
BRANCH  20  21
ATOM     21  N   UNL     1      33.597 -13.150 -21.251  0.00  0.00    -0.286 N 
ATOM     22  C   UNL     1      32.841 -12.015 -21.139  0.00  0.00    +0.052 C 
ATOM     23  C   UNL     1      32.056 -12.168 -19.994  0.00  0.00    +0.015 C 
ATOM     24  C   UNL     1      33.332 -14.017 -20.235  0.00  0.00    +0.065 C 
ATOM     25  C   UNL     1      32.376 -13.436 -19.434  0.00  0.00    +0.017 C 
ATOM     26  C   UNL     1      32.784 -10.873 -21.946  0.00  0.00    +0.015 C 
ATOM     27  C   UNL     1      31.169 -11.132 -19.636  0.00  0.00    +0.001 C 
ATOM     28  C   UNL     1      31.899  -9.858 -21.571  0.00  0.00    +0.001 C 
ATOM     29  C   UNL     1      31.103  -9.984 -20.433  0.00  0.00    +0.000 C 
ENDBRANCH  20  21
ENDBRANCH  18  20
ENDBRANCH  17  18
ENDBRANCH   2  17
TORSDOF 7
ENDMDL
MODEL 6
REMARK VINA RESULT:     -10.9      1.098      2.284
REMARK  Name = 446277
REMARK  7 active torsions:
REMARK  status: ('A' for Active; 'I' for Inactive)
REMARK    1  A    between atoms: N_2  and  C_17
REMARK    2  A    between atoms: C_3  and  C_5
REMARK    3  A    between atoms: C_8  and  S_11
REMARK    4  A    between atoms: S_11  and  N_14
REMARK    5  A    between atoms: C_17  and  C_18
REMARK    6  A    between atoms: C_18  and  C_20
REMARK    7  A    between atoms: C_20  and  N_21
REMARK                            x       y       z     vdW  Elec       q    Type
REMARK                         _______ _______ _______ _____ _____    ______ ____
ROOT
ATOM      1  O   UNL     1      37.205 -17.550 -21.832  0.00  0.00    -0.270 OA
ATOM      2  N   UNL     1      35.029 -16.835 -22.202  0.00  0.00    -0.301 N 
ATOM      3  C   UNL     1      35.997 -17.652 -21.632  0.00  0.00    +0.246 C 
ATOM      4  H   UNL     1      34.084 -16.996 -21.978  0.00  0.00    +0.150 HD
ENDROOT
BRANCH   3   5
ATOM      5  C   UNL     1      35.500 -18.733 -20.740  0.00  0.00    +0.053 C 
ATOM      6  C   UNL     1      36.409 -19.451 -19.993  0.00  0.00    +0.006 C 
ATOM      7  C   UNL     1      34.144 -18.982 -20.690  0.00  0.00    +0.006 C 
ATOM      8  C   UNL     1      34.576 -20.737 -19.086  0.00  0.00    +0.122 C 
ATOM      9  C   UNL     1      35.942 -20.465 -19.156  0.00  0.00    +0.020 C 
ATOM     10  C   UNL     1      33.677 -19.995 -19.853  0.00  0.00    +0.020 C 
BRANCH   8  11
ATOM     11  S   UNL     1      33.991 -22.005 -18.038  0.00  0.00    +0.057 S 
ATOM     12  O   UNL     1      34.959 -22.198 -16.967  0.00  0.00    -0.153 OA
ATOM     13  O   UNL     1      32.598 -21.731 -17.714  0.00  0.00    -0.153 OA
BRANCH  11  14
ATOM     14  N   UNL     1      34.054 -23.351 -19.088  0.00  0.00    -0.203 NA
ATOM     15  H   UNL     1      34.177 -24.204 -18.542  0.00  0.00    +0.144 HD
ATOM     16  H   UNL     1      34.838 -23.243 -19.732  0.00  0.00    +0.144 HD
ENDBRANCH  11  14
ENDBRANCH   8  11
ENDBRANCH   3   5
BRANCH   2  17
ATOM     17  C   UNL     1      35.352 -15.763 -23.103  0.00  0.00    +0.091 C 
BRANCH  17  18
ATOM     18  C   UNL     1      34.241 -14.709 -23.228  0.00  0.00    +0.040 C 
ATOM     19  C   UNL     1      33.971 -14.365 -24.697  0.00  0.00    +0.004 C 
BRANCH  18  20
ATOM     20  C   UNL     1      34.572 -13.455 -22.393  0.00  0.00    +0.097 C 
BRANCH  20  21
ATOM     21  N   UNL     1      33.624 -13.201 -21.312  0.00  0.00    -0.286 N 
ATOM     22  C   UNL     1      32.872 -12.066 -21.175  0.00  0.00    +0.052 C 
ATOM     23  C   UNL     1      32.108 -12.230 -20.017  0.00  0.00    +0.015 C 
ATOM     24  C   UNL     1      33.377 -14.078 -20.299  0.00  0.00    +0.065 C 
ATOM     25  C   UNL     1      32.436 -13.504 -19.475  0.00  0.00    +0.017 C 
ATOM     26  C   UNL     1      32.802 -10.917 -21.969  0.00  0.00    +0.015 C 
ATOM     27  C   UNL     1      31.230 -11.196 -19.632  0.00  0.00    +0.001 C 
ATOM     28  C   UNL     1      31.925  -9.904 -21.567  0.00  0.00    +0.001 C 
ATOM     29  C   UNL     1      31.150 -10.041 -20.417  0.00  0.00    +0.000 C 
ENDBRANCH  20  21
ENDBRANCH  18  20
ENDBRANCH  17  18
ENDBRANCH   2  17
TORSDOF 7
ENDMDL
MODEL 7
REMARK VINA RESULT:     -10.7      0.977      2.082
REMARK  Name = 446277
REMARK  7 active torsions:
REMARK  status: ('A' for Active; 'I' for Inactive)
REMARK    1  A    between atoms: N_2  and  C_17
REMARK    2  A    between atoms: C_3  and  C_5
REMARK    3  A    between atoms: C_8  and  S_11
REMARK    4  A    between atoms: S_11  and  N_14
REMARK    5  A    between atoms: C_17  and  C_18
REMARK    6  A    between atoms: C_18  and  C_20
REMARK    7  A    between atoms: C_20  and  N_21
REMARK                            x       y       z     vdW  Elec       q    Type
REMARK                         _______ _______ _______ _____ _____    ______ ____
ROOT
ATOM      1  O   UNL     1      37.216 -17.611 -21.770  0.00  0.00    -0.270 OA
ATOM      2  N   UNL     1      35.104 -16.653 -21.808  0.00  0.00    -0.301 N 
ATOM      3  C   UNL     1      36.034 -17.615 -21.435  0.00  0.00    +0.246 C 
ATOM      4  H   UNL     1      34.178 -16.742 -21.487  0.00  0.00    +0.150 HD
ENDROOT
BRANCH   3   5
ATOM      5  C   UNL     1      35.524 -18.727 -20.591  0.00  0.00    +0.053 C 
ATOM      6  C   UNL     1      34.166 -18.958 -20.543  0.00  0.00    +0.006 C 
ATOM      7  C   UNL     1      36.427 -19.492 -19.882  0.00  0.00    +0.006 C 
ATOM      8  C   UNL     1      34.579 -20.790 -19.024  0.00  0.00    +0.122 C 
ATOM      9  C   UNL     1      33.687 -20.002 -19.750  0.00  0.00    +0.020 C 
ATOM     10  C   UNL     1      35.949 -20.535 -19.090  0.00  0.00    +0.020 C 
BRANCH   8  11
ATOM     11  S   UNL     1      33.981 -22.098 -18.033  0.00  0.00    +0.057 S 
ATOM     12  O   UNL     1      34.936 -22.334 -16.959  0.00  0.00    -0.153 OA
ATOM     13  O   UNL     1      32.585 -21.834 -17.713  0.00  0.00    -0.153 OA
BRANCH  11  14
ATOM     14  N   UNL     1      34.054 -23.402 -19.133  0.00  0.00    -0.203 NA
ATOM     15  H   UNL     1      34.159 -23.041 -20.082  0.00  0.00    +0.144 HD
ATOM     16  H   UNL     1      33.195 -23.949 -19.070  0.00  0.00    +0.144 HD
ENDBRANCH  11  14
ENDBRANCH   8  11
ENDBRANCH   3   5
BRANCH   2  17
ATOM     17  C   UNL     1      35.440 -15.531 -22.642  0.00  0.00    +0.091 C 
BRANCH  17  18
ATOM     18  C   UNL     1      34.950 -14.184 -22.087  0.00  0.00    +0.040 C 
ATOM     19  C   UNL     1      34.769 -14.249 -20.567  0.00  0.00    +0.004 C 
BRANCH  18  20
ATOM     20  C   UNL     1      33.663 -13.727 -22.802  0.00  0.00    +0.097 C 
BRANCH  20  21
ATOM     21  N   UNL     1      33.167 -12.430 -22.350  0.00  0.00    -0.286 N 
ATOM     22  C   UNL     1      33.544 -11.220 -22.866  0.00  0.00    +0.052 C 
ATOM     23  C   UNL     1      32.840 -10.245 -22.155  0.00  0.00    +0.015 C 
ATOM     24  C   UNL     1      32.260 -12.274 -21.346  0.00  0.00    +0.065 C 
ATOM     25  C   UNL     1      32.034 -10.924 -21.199  0.00  0.00    +0.017 C 
ATOM     26  C   UNL     1      34.439 -10.906 -23.894  0.00  0.00    +0.015 C 
ATOM     27  C   UNL     1      33.039  -8.889 -22.485  0.00  0.00    +0.001 C 
ATOM     28  C   UNL     1      34.621  -9.554 -24.204  0.00  0.00    +0.001 C 
ATOM     29  C   UNL     1      33.932  -8.560 -23.511  0.00  0.00    +0.000 C 
ENDBRANCH  20  21
ENDBRANCH  18  20
ENDBRANCH  17  18
ENDBRANCH   2  17
TORSDOF 7
ENDMDL
MODEL 8
REMARK VINA RESULT:     -10.5      4.433      6.939
REMARK  Name = 446277
REMARK  7 active torsions:
REMARK  status: ('A' for Active; 'I' for Inactive)
REMARK    1  A    between atoms: N_2  and  C_17
REMARK    2  A    between atoms: C_3  and  C_5
REMARK    3  A    between atoms: C_8  and  S_11
REMARK    4  A    between atoms: S_11  and  N_14
REMARK    5  A    between atoms: C_17  and  C_18
REMARK    6  A    between atoms: C_18  and  C_20
REMARK    7  A    between atoms: C_20  and  N_21
REMARK                            x       y       z     vdW  Elec       q    Type
REMARK                         _______ _______ _______ _____ _____    ______ ____
ROOT
ATOM      1  O   UNL     1      37.555 -19.959 -16.670  0.00  0.00    -0.270 OA
ATOM      2  N   UNL     1      36.255 -21.508 -17.807  0.00  0.00    -0.301 N 
ATOM      3  C   UNL     1      36.916 -21.008 -16.691  0.00  0.00    +0.246 C 
ATOM      4  H   UNL     1      35.767 -22.359 -17.724  0.00  0.00    +0.150 HD
ENDROOT
BRANCH   3   5
ATOM      5  C   UNL     1      36.844 -21.837 -15.461  0.00  0.00    +0.053 C 
ATOM      6  C   UNL     1      37.983 -22.478 -15.021  0.00  0.00    +0.006 C 
ATOM      7  C   UNL     1      35.638 -21.940 -14.797  0.00  0.00    +0.006 C 
ATOM      8  C   UNL     1      36.708 -23.376 -13.176  0.00  0.00    +0.122 C 
ATOM      9  C   UNL     1      37.915 -23.257 -13.865  0.00  0.00    +0.020 C 
ATOM     10  C   UNL     1      35.570 -22.718 -13.642  0.00  0.00    +0.020 C 
BRANCH   8  11
ATOM     11  S   UNL     1      36.623 -24.350 -11.728  0.00  0.00    +0.057 S 
ATOM     12  O   UNL     1      37.720 -23.964 -10.850  0.00  0.00    -0.153 OA
ATOM     13  O   UNL     1      35.254 -24.321 -11.231  0.00  0.00    -0.153 OA
BRANCH  11  14
ATOM     14  N   UNL     1      36.944 -25.903 -12.361  0.00  0.00    -0.203 NA
ATOM     15  H   UNL     1      37.148 -25.829 -13.358  0.00  0.00    +0.144 HD
ATOM     16  H   UNL     1      36.128 -26.501 -12.224  0.00  0.00    +0.144 HD
ENDBRANCH  11  14
ENDBRANCH   8  11
ENDBRANCH   3   5
BRANCH   2  17
ATOM     17  C   UNL     1      36.254 -20.832 -19.076  0.00  0.00    +0.091 C 
BRANCH  17  18
ATOM     18  C   UNL     1      34.946 -20.082 -19.371  0.00  0.00    +0.040 C 
ATOM     19  C   UNL     1      33.736 -20.852 -18.830  0.00  0.00    +0.004 C 
BRANCH  18  20
ATOM     20  C   UNL     1      34.810 -19.779 -20.877  0.00  0.00    +0.097 C 
BRANCH  20  21
ATOM     21  N   UNL     1      35.058 -18.382 -21.220  0.00  0.00    -0.286 N 
ATOM     22  C   UNL     1      34.824 -17.819 -22.445  0.00  0.00    +0.052 C 
ATOM     23  C   UNL     1      35.194 -16.476 -22.346  0.00  0.00    +0.015 C 
ATOM     24  C   UNL     1      35.558 -17.464 -20.347  0.00  0.00    +0.065 C 
ATOM     25  C   UNL     1      35.655 -16.266 -21.017  0.00  0.00    +0.017 C 
ATOM     26  C   UNL     1      34.320 -18.378 -23.625  0.00  0.00    +0.015 C 
ATOM     27  C   UNL     1      35.055 -15.648 -23.479  0.00  0.00    +0.001 C 
ATOM     28  C   UNL     1      34.191 -17.538 -24.736  0.00  0.00    +0.001 C 
ATOM     29  C   UNL     1      34.553 -16.194 -24.666  0.00  0.00    +0.000 C 
ENDBRANCH  20  21
ENDBRANCH  18  20
ENDBRANCH  17  18
ENDBRANCH   2  17
TORSDOF 7
ENDMDL
MODEL 9
REMARK VINA RESULT:     -10.2      4.373      8.867
REMARK  Name = 446277
REMARK  7 active torsions:
REMARK  status: ('A' for Active; 'I' for Inactive)
REMARK    1  A    between atoms: N_2  and  C_17
REMARK    2  A    between atoms: C_3  and  C_5
REMARK    3  A    between atoms: C_8  and  S_11
REMARK    4  A    between atoms: S_11  and  N_14
REMARK    5  A    between atoms: C_17  and  C_18
REMARK    6  A    between atoms: C_18  and  C_20
REMARK    7  A    between atoms: C_20  and  N_21
REMARK                            x       y       z     vdW  Elec       q    Type
REMARK                         _______ _______ _______ _____ _____    ______ ____
ROOT
ATOM      1  O   UNL     1      33.633 -13.549 -23.871  0.00  0.00    -0.270 OA
ATOM      2  N   UNL     1      34.682 -14.844 -22.257  0.00  0.00    -0.301 N 
ATOM      3  C   UNL     1      33.861 -13.811 -22.693  0.00  0.00    +0.246 C 
ATOM      4  H   UNL     1      34.802 -14.975 -21.290  0.00  0.00    +0.150 HD
ENDROOT
BRANCH   3   5
ATOM      5  C   UNL     1      33.252 -12.967 -21.632  0.00  0.00    +0.053 C 
ATOM      6  C   UNL     1      33.014 -13.524 -20.392  0.00  0.00    +0.006 C 
ATOM      7  C   UNL     1      32.943 -11.654 -21.921  0.00  0.00    +0.006 C 
ATOM      8  C   UNL     1      32.121 -11.401 -19.664  0.00  0.00    +0.122 C 
ATOM      9  C   UNL     1      32.442 -12.731 -19.397  0.00  0.00    +0.020 C 
ATOM     10  C   UNL     1      32.372 -10.862 -20.925  0.00  0.00    +0.020 C 
BRANCH   8  11
ATOM     11  S   UNL     1      31.406 -10.409 -18.417  0.00  0.00    +0.057 S 
ATOM     12  O   UNL     1      30.076 -10.008 -18.856  0.00  0.00    -0.153 OA
ATOM     13  O   UNL     1      31.572 -11.083 -17.137  0.00  0.00    -0.153 OA
BRANCH  11  14
ATOM     14  N   UNL     1      32.434  -9.045 -18.455  0.00  0.00    -0.203 NA
ATOM     15  H   UNL     1      32.007  -8.313 -19.023  0.00  0.00    +0.144 HD
ATOM     16  H   UNL     1      33.333  -9.309 -18.859  0.00  0.00    +0.144 HD
ENDBRANCH  11  14
ENDBRANCH   8  11
ENDBRANCH   3   5
BRANCH   2  17
ATOM     17  C   UNL     1      35.361 -15.730 -23.164  0.00  0.00    +0.091 C 
BRANCH  17  18
ATOM     18  C   UNL     1      35.555 -17.148 -22.606  0.00  0.00    +0.040 C 
ATOM     19  C   UNL     1      34.696 -18.162 -23.370  0.00  0.00    +0.004 C 
BRANCH  18  20
ATOM     20  C   UNL     1      35.283 -17.188 -21.089  0.00  0.00    +0.097 C 
BRANCH  20  21
ATOM     21  N   UNL     1      35.741 -18.414 -20.441  0.00  0.00    -0.286 N 
ATOM     22  C   UNL     1      34.924 -19.393 -19.943  0.00  0.00    +0.052 C 
ATOM     23  C   UNL     1      35.759 -20.380 -19.414  0.00  0.00    +0.015 C 
ATOM     24  C   UNL     1      37.053 -18.729 -20.256  0.00  0.00    +0.065 C 
ATOM     25  C   UNL     1      37.099 -19.948 -19.618  0.00  0.00    +0.017 C 
ATOM     26  C   UNL     1      33.529 -19.490 -19.914  0.00  0.00    +0.015 C 
ATOM     27  C   UNL     1      35.174 -21.520 -18.827  0.00  0.00    +0.001 C 
ATOM     28  C   UNL     1      32.971 -20.629 -19.326  0.00  0.00    +0.001 C 
ATOM     29  C   UNL     1      33.780 -21.630 -18.791  0.00  0.00    +0.000 C 
ENDBRANCH  20  21
ENDBRANCH  18  20
ENDBRANCH  17  18
ENDBRANCH   2  17
TORSDOF 7
ENDMDL
