MODEL 1
REMARK VINA RESULT:     -11.1      0.000      0.000
REMARK  Name = 46207586
REMARK  7 active torsions:
REMARK  status: ('A' for Active; 'I' for Inactive)
REMARK    1  A    between atoms: C_6  and  C_13
REMARK    2  A    between atoms: C_7  and  C_34
REMARK    3  A    between atoms: C_16  and  N_20
REMARK    4  A    between atoms: N_21  and  C_26
REMARK    5  A    between atoms: N_32  and  C_37
REMARK    6  A    between atoms: C_37  and  C_38
REMARK    7  A    between atoms: C_38  and  O_39
REMARK                            x       y       z     vdW  Elec       q    Type
REMARK                         _______ _______ _______ _____ _____    ______ ____
ROOT
ATOM      1  S   UNL     1      35.031 -15.111 -19.934  0.00  0.00    -0.086 S 
ATOM      2  N   UNL     1      34.639 -16.145 -24.275  0.00  0.00    -0.230 NA
ATOM      3  N   UNL     1      33.943 -13.925 -24.695  0.00  0.00    -0.343 N 
ATOM      4  C   UNL     1      34.501 -14.627 -22.418  0.00  0.00    +0.038 C 
ATOM      5  C   UNL     1      34.926 -15.651 -21.567  0.00  0.00    +0.034 C 
ATOM      6  C   UNL     1      34.270 -13.411 -21.691  0.00  0.00    +0.010 C 
ATOM      7  C   UNL     1      35.212 -16.931 -22.058  0.00  0.00    +0.028 C 
ATOM      8  C   UNL     1      34.367 -14.914 -23.785  0.00  0.00    +0.126 C 
ATOM      9  C   UNL     1      34.520 -13.538 -20.344  0.00  0.00    +0.036 C 
ATOM     10  C   UNL     1      35.046 -17.104 -23.421  0.00  0.00    +0.101 C 
ATOM     11  H   UNL     1      33.853 -14.142 -25.652  0.00  0.00    +0.144 HD
ATOM     12  H   UNL     1      33.737 -13.018 -24.375  0.00  0.00    +0.144 HD
ENDROOT
BRANCH   6  13
ATOM     13  C   UNL     1      33.829 -12.137 -22.200  0.00  0.00    +0.001 C 
ATOM     14  C   UNL     1      34.513 -11.531 -23.254  0.00  0.00    +0.001 C 
ATOM     15  C   UNL     1      32.716 -11.509 -21.639  0.00  0.00    +0.001 C 
ATOM     16  C   UNL     1      32.972  -9.671 -23.185  0.00  0.00    +0.052 C 
ATOM     17  C   UNL     1      34.085 -10.297 -23.747  0.00  0.00    +0.015 C 
ATOM     18  C   UNL     1      32.287 -10.276 -22.132  0.00  0.00    +0.015 C 
BRANCH  16  20
ATOM     19  O   UNL     1      34.034  -6.923 -22.694  0.00  0.00    -0.252 OA
ATOM     20  N   UNL     1      32.543  -8.438 -23.679  0.00  0.00    -0.268 N 
ATOM     21  N   UNL     1      32.339  -6.181 -24.124  0.00  0.00    -0.268 N 
ATOM     22  C   UNL     1      33.073  -7.150 -23.422  0.00  0.00    +0.308 C 
ATOM     23  H   UNL     1      31.768  -8.468 -24.286  0.00  0.00    +0.156 HD
ATOM     24  H   UNL     1      31.592  -6.517 -24.671  0.00  0.00    +0.156 HD
BRANCH  21  26
ATOM     25  F   UNL     1      32.154  -1.906 -21.946  0.00  0.00    -0.204 F 
ATOM     26  C   UNL     1      32.539  -4.780 -24.143  0.00  0.00    +0.054 C 
ATOM     27  C   UNL     1      32.242  -4.019 -23.012  0.00  0.00    +0.044 C 
ATOM     28  C   UNL     1      33.032  -4.161 -25.291  0.00  0.00    +0.015 C 
ATOM     29  C   UNL     1      32.438  -2.638 -23.030  0.00  0.00    +0.141 C 
ATOM     30  C   UNL     1      33.228  -2.781 -25.310  0.00  0.00    +0.004 C 
ATOM     31  C   UNL     1      32.931  -2.019 -24.179  0.00  0.00    +0.030 C 
ENDBRANCH  21  26
ENDBRANCH  16  20
ENDBRANCH   6  13
BRANCH   7  34
ATOM     32  N   UNL     1      35.615 -19.761 -19.922  0.00  0.00    -0.208 N 
ATOM     33  N   UNL     1      36.912 -19.406 -19.929  0.00  0.00    -0.176 NA
ATOM     34  C   UNL     1      35.650 -17.991 -21.202  0.00  0.00    +0.039 C 
ATOM     35  C   UNL     1      34.818 -18.945 -20.668  0.00  0.00    +0.086 C 
ATOM     36  C   UNL     1      36.927 -18.326 -20.713  0.00  0.00    +0.119 C 
BRANCH  32  37
ATOM     37  C   UNL     1      35.192 -20.913 -19.163  0.00  0.00    +0.148 C 
BRANCH  37  38
ATOM     38  C   UNL     1      33.752 -20.790 -18.675  0.00  0.00    +0.161 C 
BRANCH  38  39
ATOM     39  O   UNL     1      32.916 -21.662 -19.426  0.00  0.00    -0.380 OA
ATOM     40  H   UNL     1      32.028 -21.674 -19.035  0.00  0.00    +0.211 HD
ENDBRANCH  38  39
ENDBRANCH  37  38
ENDBRANCH  32  37
ENDBRANCH   7  34
TORSDOF 7
ENDMDL
MODEL 2
REMARK VINA RESULT:     -10.9      5.684     13.657
REMARK  Name = 46207586
REMARK  7 active torsions:
REMARK  status: ('A' for Active; 'I' for Inactive)
REMARK    1  A    between atoms: C_6  and  C_13
REMARK    2  A    between atoms: C_7  and  C_34
REMARK    3  A    between atoms: C_16  and  N_20
REMARK    4  A    between atoms: N_21  and  C_26
REMARK    5  A    between atoms: N_32  and  C_37
REMARK    6  A    between atoms: C_37  and  C_38
REMARK    7  A    between atoms: C_38  and  O_39
REMARK                            x       y       z     vdW  Elec       q    Type
REMARK                         _______ _______ _______ _____ _____    ______ ____
ROOT
ATOM      1  S   UNL     1      34.903 -16.058 -24.005  0.00  0.00    -0.086 S 
ATOM      2  N   UNL     1      34.651 -13.789 -20.151  0.00  0.00    -0.230 NA
ATOM      3  N   UNL     1      35.152 -15.788 -18.993  0.00  0.00    -0.343 N 
ATOM      4  C   UNL     1      35.001 -15.789 -21.435  0.00  0.00    +0.038 C 
ATOM      5  C   UNL     1      34.774 -15.060 -22.606  0.00  0.00    +0.034 C 
ATOM      6  C   UNL     1      35.279 -17.167 -21.728  0.00  0.00    +0.010 C 
ATOM      7  C   UNL     1      34.483 -13.691 -22.564  0.00  0.00    +0.028 C 
ATOM      8  C   UNL     1      34.931 -15.111 -20.209  0.00  0.00    +0.126 C 
ATOM      9  C   UNL     1      35.257 -17.442 -23.075  0.00  0.00    +0.036 C 
ATOM     10  C   UNL     1      34.438 -13.124 -21.302  0.00  0.00    +0.101 C 
ATOM     11  H   UNL     1      35.098 -15.299 -18.139  0.00  0.00    +0.144 HD
ATOM     12  H   UNL     1      35.359 -16.751 -18.996  0.00  0.00    +0.144 HD
ENDROOT
BRANCH   6  13
ATOM     13  C   UNL     1      35.565 -18.235 -20.804  0.00  0.00    +0.001 C 
ATOM     14  C   UNL     1      36.873 -18.450 -20.368  0.00  0.00    +0.001 C 
ATOM     15  C   UNL     1      34.534 -19.054 -20.344  0.00  0.00    +0.001 C 
ATOM     16  C   UNL     1      36.118 -20.303 -19.014  0.00  0.00    +0.052 C 
ATOM     17  C   UNL     1      37.149 -19.484 -19.473  0.00  0.00    +0.015 C 
ATOM     18  C   UNL     1      34.810 -20.088 -19.449  0.00  0.00    +0.015 C 
BRANCH  16  20
ATOM     19  O   UNL     1      37.202 -20.205 -16.233  0.00  0.00    -0.252 OA
ATOM     20  N   UNL     1      36.394 -21.336 -18.118  0.00  0.00    -0.268 N 
ATOM     21  N   UNL     1      37.035 -22.537 -16.252  0.00  0.00    -0.268 N 
ATOM     22  C   UNL     1      36.910 -21.251 -16.802  0.00  0.00    +0.308 C 
ATOM     23  H   UNL     1      36.205 -22.246 -18.445  0.00  0.00    +0.156 HD
ATOM     24  H   UNL     1      36.759 -23.283 -16.831  0.00  0.00    +0.156 HD
BRANCH  21  26
ATOM     25  F   UNL     1      40.314 -24.636 -13.442  0.00  0.00    -0.204 F 
ATOM     26  C   UNL     1      37.508 -22.893 -14.967  0.00  0.00    +0.054 C 
ATOM     27  C   UNL     1      38.701 -23.602 -14.836  0.00  0.00    +0.044 C 
ATOM     28  C   UNL     1      36.781 -22.534 -13.832  0.00  0.00    +0.015 C 
ATOM     29  C   UNL     1      39.168 -23.955 -13.569  0.00  0.00    +0.141 C 
ATOM     30  C   UNL     1      37.247 -22.886 -12.565  0.00  0.00    +0.004 C 
ATOM     31  C   UNL     1      38.441 -23.596 -12.434  0.00  0.00    +0.030 C 
ENDBRANCH  21  26
ENDBRANCH  16  20
ENDBRANCH   6  13
BRANCH   7  34
ATOM     32  N   UNL     1      34.182 -11.252 -25.151  0.00  0.00    -0.208 N 
ATOM     33  N   UNL     1      33.648 -12.267 -25.854  0.00  0.00    -0.176 NA
ATOM     34  C   UNL     1      34.248 -12.928 -23.752  0.00  0.00    +0.039 C 
ATOM     35  C   UNL     1      34.556 -11.596 -23.886  0.00  0.00    +0.086 C 
ATOM     36  C   UNL     1      33.693 -13.287 -24.994  0.00  0.00    +0.119 C 
BRANCH  32  37
ATOM     37  C   UNL     1      34.306  -9.949 -25.758  0.00  0.00    +0.148 C 
BRANCH  37  38
ATOM     38  C   UNL     1      35.710  -9.371 -25.609  0.00  0.00    +0.161 C 
BRANCH  38  39
ATOM     39  O   UNL     1      35.686  -8.283 -24.694  0.00  0.00    -0.380 OA
ATOM     40  H   UNL     1      35.258  -8.563 -23.870  0.00  0.00    +0.211 HD
ENDBRANCH  38  39
ENDBRANCH  37  38
ENDBRANCH  32  37
ENDBRANCH   7  34
TORSDOF 7
ENDMDL
MODEL 3
REMARK VINA RESULT:     -10.7      4.170     12.607
REMARK  Name = 46207586
REMARK  7 active torsions:
REMARK  status: ('A' for Active; 'I' for Inactive)
REMARK    1  A    between atoms: C_6  and  C_13
REMARK    2  A    between atoms: C_7  and  C_34
REMARK    3  A    between atoms: C_16  and  N_20
REMARK    4  A    between atoms: N_21  and  C_26
REMARK    5  A    between atoms: N_32  and  C_37
REMARK    6  A    between atoms: C_37  and  C_38
REMARK    7  A    between atoms: C_38  and  O_39
REMARK                            x       y       z     vdW  Elec       q    Type
REMARK                         _______ _______ _______ _____ _____    ______ ____
ROOT
ATOM      1  S   UNL     1      34.515  -8.401 -24.249  0.00  0.00    -0.086 S 
ATOM      2  N   UNL     1      31.129  -9.163 -21.417  0.00  0.00    -0.230 NA
ATOM      3  N   UNL     1      31.806 -11.424 -21.285  0.00  0.00    -0.343 N 
ATOM      4  C   UNL     1      33.043  -9.852 -22.695  0.00  0.00    +0.038 C 
ATOM      5  C   UNL     1      33.176  -8.545 -23.173  0.00  0.00    +0.034 C 
ATOM      6  C   UNL     1      34.061 -10.707 -23.235  0.00  0.00    +0.010 C 
ATOM      7  C   UNL     1      32.289  -7.534 -22.781  0.00  0.00    +0.028 C 
ATOM      8  C   UNL     1      31.993 -10.128 -21.805  0.00  0.00    +0.126 C 
ATOM      9  C   UNL     1      34.918 -10.049 -24.085  0.00  0.00    +0.036 C 
ATOM     10  C   UNL     1      31.292  -7.917 -21.901  0.00  0.00    +0.101 C 
ATOM     11  H   UNL     1      31.065 -11.603 -20.662  0.00  0.00    +0.144 HD
ATOM     12  H   UNL     1      32.416 -12.151 -21.546  0.00  0.00    +0.144 HD
ENDROOT
BRANCH   6  13
ATOM     13  C   UNL     1      34.268 -12.113 -22.989  0.00  0.00    +0.001 C 
ATOM     14  C   UNL     1      33.997 -13.045 -23.990  0.00  0.00    +0.001 C 
ATOM     15  C   UNL     1      34.741 -12.541 -21.748  0.00  0.00    +0.001 C 
ATOM     16  C   UNL     1      34.671 -14.832 -22.510  0.00  0.00    +0.052 C 
ATOM     17  C   UNL     1      34.198 -14.405 -23.751  0.00  0.00    +0.015 C 
ATOM     18  C   UNL     1      34.943 -13.901 -21.508  0.00  0.00    +0.015 C 
BRANCH  16  20
ATOM     19  O   UNL     1      35.006 -16.308 -19.936  0.00  0.00    -0.252 OA
ATOM     20  N   UNL     1      34.873 -16.192 -22.272  0.00  0.00    -0.268 N 
ATOM     21  N   UNL     1      35.210 -18.233 -21.247  0.00  0.00    -0.268 N 
ATOM     22  C   UNL     1      35.029 -16.858 -21.032  0.00  0.00    +0.308 C 
ATOM     23  H   UNL     1      34.913 -16.764 -23.072  0.00  0.00    +0.156 HD
ATOM     24  H   UNL     1      35.204 -18.529 -22.186  0.00  0.00    +0.156 HD
BRANCH  21  26
ATOM     25  F   UNL     1      33.435 -21.602 -18.321  0.00  0.00    -0.204 F 
ATOM     26  C   UNL     1      35.401 -19.249 -20.279  0.00  0.00    +0.054 C 
ATOM     27  C   UNL     1      34.302 -19.938 -19.768  0.00  0.00    +0.044 C 
ATOM     28  C   UNL     1      36.687 -19.559 -19.837  0.00  0.00    +0.015 C 
ATOM     29  C   UNL     1      34.489 -20.939 -18.813  0.00  0.00    +0.141 C 
ATOM     30  C   UNL     1      36.874 -20.558 -18.883  0.00  0.00    +0.004 C 
ATOM     31  C   UNL     1      35.775 -21.248 -18.371  0.00  0.00    +0.030 C 
ENDBRANCH  21  26
ENDBRANCH  16  20
ENDBRANCH   6  13
BRANCH   7  34
ATOM     32  N   UNL     1      32.389  -4.007 -23.313  0.00  0.00    -0.208 N 
ATOM     33  N   UNL     1      32.771  -4.346 -24.557  0.00  0.00    -0.176 NA
ATOM     34  C   UNL     1      32.411  -6.191 -23.259  0.00  0.00    +0.039 C 
ATOM     35  C   UNL     1      32.160  -5.076 -22.498  0.00  0.00    +0.086 C 
ATOM     36  C   UNL     1      32.783  -5.681 -24.517  0.00  0.00    +0.119 C 
BRANCH  32  37
ATOM     37  C   UNL     1      32.256  -2.615 -22.960  0.00  0.00    +0.148 C 
BRANCH  37  38
ATOM     38  C   UNL     1      31.484  -1.820 -24.007  0.00  0.00    +0.161 C 
BRANCH  38  39
ATOM     39  O   UNL     1      30.419  -2.612 -24.520  0.00  0.00    -0.380 OA
ATOM     40  H   UNL     1      30.527  -3.529 -24.225  0.00  0.00    +0.211 HD
ENDBRANCH  38  39
ENDBRANCH  37  38
ENDBRANCH  32  37
ENDBRANCH   7  34
TORSDOF 7
ENDMDL
MODEL 4
REMARK VINA RESULT:      -9.7      4.219     12.681
REMARK  Name = 46207586
REMARK  7 active torsions:
REMARK  status: ('A' for Active; 'I' for Inactive)
REMARK    1  A    between atoms: C_6  and  C_13
REMARK    2  A    between atoms: C_7  and  C_34
REMARK    3  A    between atoms: C_16  and  N_20
REMARK    4  A    between atoms: N_21  and  C_26
REMARK    5  A    between atoms: N_32  and  C_37
REMARK    6  A    between atoms: C_37  and  C_38
REMARK    7  A    between atoms: C_38  and  O_39
REMARK                            x       y       z     vdW  Elec       q    Type
REMARK                         _______ _______ _______ _____ _____    ______ ____
ROOT
ATOM      1  S   UNL     1      31.598  -8.003 -22.220  0.00  0.00    -0.086 S 
ATOM      2  N   UNL     1      35.310  -7.714 -24.710  0.00  0.00    -0.230 NA
ATOM      3  N   UNL     1      35.704 -10.010 -24.309  0.00  0.00    -0.343 N 
ATOM      4  C   UNL     1      33.739  -8.915 -23.346  0.00  0.00    +0.038 C 
ATOM      5  C   UNL     1      32.992  -7.743 -23.199  0.00  0.00    +0.034 C 
ATOM      6  C   UNL     1      33.133 -10.008 -22.639  0.00  0.00    +0.010 C 
ATOM      7  C   UNL     1      33.394  -6.545 -23.804  0.00  0.00    +0.028 C 
ATOM      8  C   UNL     1      34.908  -8.863 -24.120  0.00  0.00    +0.126 C 
ATOM      9  C   UNL     1      31.974  -9.649 -21.992  0.00  0.00    +0.036 C 
ATOM     10  C   UNL     1      34.561  -6.607 -24.543  0.00  0.00    +0.101 C 
ATOM     11  H   UNL     1      36.523  -9.958 -24.854  0.00  0.00    +0.144 HD
ATOM     12  H   UNL     1      35.443 -10.864 -23.895  0.00  0.00    +0.144 HD
ENDROOT
BRANCH   6  13
ATOM     13  C   UNL     1      33.590 -11.372 -22.545  0.00  0.00    +0.001 C 
ATOM     14  C   UNL     1      34.125 -11.848 -21.348  0.00  0.00    +0.001 C 
ATOM     15  C   UNL     1      33.496 -12.217 -23.651  0.00  0.00    +0.001 C 
ATOM     16  C   UNL     1      34.472 -14.012 -22.364  0.00  0.00    +0.052 C 
ATOM     17  C   UNL     1      34.566 -13.169 -21.257  0.00  0.00    +0.015 C 
ATOM     18  C   UNL     1      33.937 -13.537 -23.561  0.00  0.00    +0.015 C 
BRANCH  16  20
ATOM     19  O   UNL     1      34.596 -15.846 -20.009  0.00  0.00    -0.252 OA
ATOM     20  N   UNL     1      34.913 -15.333 -22.273  0.00  0.00    -0.268 N 
ATOM     21  N   UNL     1      35.472 -17.432 -21.487  0.00  0.00    -0.268 N 
ATOM     22  C   UNL     1      34.957 -16.174 -21.134  0.00  0.00    +0.308 C 
ATOM     23  H   UNL     1      35.236 -15.734 -23.113  0.00  0.00    +0.156 HD
ATOM     24  H   UNL     1      35.720 -17.548 -22.433  0.00  0.00    +0.156 HD
BRANCH  21  26
ATOM     25  F   UNL     1      33.773 -21.246 -19.116  0.00  0.00    -0.204 F 
ATOM     26  C   UNL     1      35.680 -18.554 -20.650  0.00  0.00    +0.054 C 
ATOM     27  C   UNL     1      34.603 -19.363 -20.289  0.00  0.00    +0.044 C 
ATOM     28  C   UNL     1      36.962 -18.850 -20.186  0.00  0.00    +0.015 C 
ATOM     29  C   UNL     1      34.807 -20.469 -19.463  0.00  0.00    +0.141 C 
ATOM     30  C   UNL     1      37.166 -19.956 -19.361  0.00  0.00    +0.004 C 
ATOM     31  C   UNL     1      36.089 -20.765 -18.999  0.00  0.00    +0.030 C 
ENDBRANCH  21  26
ENDBRANCH  16  20
ENDBRANCH   6  13
BRANCH   7  34
ATOM     32  N   UNL     1      31.595  -3.484 -24.165  0.00  0.00    -0.208 N 
ATOM     33  N   UNL     1      31.451  -3.573 -22.832  0.00  0.00    -0.176 NA
ATOM     34  C   UNL     1      32.641  -5.336 -23.665  0.00  0.00    +0.039 C 
ATOM     35  C   UNL     1      32.301  -4.515 -24.713  0.00  0.00    +0.086 C 
ATOM     36  C   UNL     1      32.092  -4.706 -22.533  0.00  0.00    +0.119 C 
BRANCH  32  37
ATOM     37  C   UNL     1      31.024  -2.365 -24.874  0.00  0.00    +0.148 C 
BRANCH  37  38
ATOM     38  C   UNL     1      31.951  -1.833 -25.962  0.00  0.00    +0.161 C 
BRANCH  38  39
ATOM     39  O   UNL     1      31.470  -2.233 -27.240  0.00  0.00    -0.380 OA
ATOM     40  H   UNL     1      30.522  -2.430 -27.181  0.00  0.00    +0.211 HD
ENDBRANCH  38  39
ENDBRANCH  37  38
ENDBRANCH  32  37
ENDBRANCH   7  34
TORSDOF 7
ENDMDL
MODEL 5
REMARK VINA RESULT:      -9.7      4.236     12.561
REMARK  Name = 46207586
REMARK  7 active torsions:
REMARK  status: ('A' for Active; 'I' for Inactive)
REMARK    1  A    between atoms: C_6  and  C_13
REMARK    2  A    between atoms: C_7  and  C_34
REMARK    3  A    between atoms: C_16  and  N_20
REMARK    4  A    between atoms: N_21  and  C_26
REMARK    5  A    between atoms: N_32  and  C_37
REMARK    6  A    between atoms: C_37  and  C_38
REMARK    7  A    between atoms: C_38  and  O_39
REMARK                            x       y       z     vdW  Elec       q    Type
REMARK                         _______ _______ _______ _____ _____    ______ ____
ROOT
ATOM      1  S   UNL     1      31.583  -8.065 -22.151  0.00  0.00    -0.086 S 
ATOM      2  N   UNL     1      35.297  -7.764 -24.638  0.00  0.00    -0.230 NA
ATOM      3  N   UNL     1      35.694 -10.061 -24.244  0.00  0.00    -0.343 N 
ATOM      4  C   UNL     1      33.726  -8.971 -23.279  0.00  0.00    +0.038 C 
ATOM      5  C   UNL     1      32.978  -7.800 -23.128  0.00  0.00    +0.034 C 
ATOM      6  C   UNL     1      33.121 -10.067 -22.576  0.00  0.00    +0.010 C 
ATOM      7  C   UNL     1      33.379  -6.600 -23.728  0.00  0.00    +0.028 C 
ATOM      8  C   UNL     1      34.896  -8.915 -24.051  0.00  0.00    +0.126 C 
ATOM      9  C   UNL     1      31.962  -9.712 -21.928  0.00  0.00    +0.036 C 
ATOM     10  C   UNL     1      34.547  -6.658 -24.467  0.00  0.00    +0.101 C 
ATOM     11  H   UNL     1      36.513 -10.006 -24.788  0.00  0.00    +0.144 HD
ATOM     12  H   UNL     1      35.433 -10.916 -23.833  0.00  0.00    +0.144 HD
ENDROOT
BRANCH   6  13
ATOM     13  C   UNL     1      33.579 -11.431 -22.486  0.00  0.00    +0.001 C 
ATOM     14  C   UNL     1      33.492 -12.272 -23.594  0.00  0.00    +0.001 C 
ATOM     15  C   UNL     1      34.112 -11.910 -21.288  0.00  0.00    +0.001 C 
ATOM     16  C   UNL     1      34.468 -14.070 -22.309  0.00  0.00    +0.052 C 
ATOM     17  C   UNL     1      33.936 -13.592 -23.507  0.00  0.00    +0.015 C 
ATOM     18  C   UNL     1      34.556 -13.229 -21.200  0.00  0.00    +0.015 C 
BRANCH  16  20
ATOM     19  O   UNL     1      34.601 -15.907 -19.958  0.00  0.00    -0.252 OA
ATOM     20  N   UNL     1      34.913 -15.389 -22.221  0.00  0.00    -0.268 N 
ATOM     21  N   UNL     1      35.481 -17.487 -21.440  0.00  0.00    -0.268 N 
ATOM     22  C   UNL     1      34.962 -16.232 -21.084  0.00  0.00    +0.308 C 
ATOM     23  H   UNL     1      35.237 -15.787 -23.062  0.00  0.00    +0.156 HD
ATOM     24  H   UNL     1      35.727 -17.601 -22.386  0.00  0.00    +0.156 HD
BRANCH  21  26
ATOM     25  F   UNL     1      33.787 -21.263 -19.004  0.00  0.00    -0.204 F 
ATOM     26  C   UNL     1      35.694 -18.610 -20.605  0.00  0.00    +0.054 C 
ATOM     27  C   UNL     1      34.614 -19.398 -20.209  0.00  0.00    +0.044 C 
ATOM     28  C   UNL     1      36.983 -18.927 -20.178  0.00  0.00    +0.015 C 
ATOM     29  C   UNL     1      34.823 -20.505 -19.385  0.00  0.00    +0.141 C 
ATOM     30  C   UNL     1      37.193 -20.033 -19.355  0.00  0.00    +0.004 C 
ATOM     31  C   UNL     1      36.113 -20.822 -18.958  0.00  0.00    +0.030 C 
ENDBRANCH  21  26
ENDBRANCH  16  20
ENDBRANCH   6  13
BRANCH   7  34
ATOM     32  N   UNL     1      31.833  -3.538 -22.745  0.00  0.00    -0.208 N 
ATOM     33  N   UNL     1      31.206  -3.636 -23.930  0.00  0.00    -0.176 NA
ATOM     34  C   UNL     1      32.625  -5.392 -23.586  0.00  0.00    +0.039 C 
ATOM     35  C   UNL     1      32.694  -4.565 -22.491  0.00  0.00    +0.086 C 
ATOM     36  C   UNL     1      31.694  -4.770 -24.438  0.00  0.00    +0.119 C 
BRANCH  32  37
ATOM     37  C   UNL     1      31.561  -2.415 -21.881  0.00  0.00    +0.148 C 
BRANCH  37  38
ATOM     38  C   UNL     1      30.199  -1.787 -22.157  0.00  0.00    +0.161 C 
BRANCH  38  39
ATOM     39  O   UNL     1      29.349  -1.970 -21.032  0.00  0.00    -0.380 OA
ATOM     40  H   UNL     1      29.608  -2.777 -20.559  0.00  0.00    +0.211 HD
ENDBRANCH  38  39
ENDBRANCH  37  38
ENDBRANCH  32  37
ENDBRANCH   7  34
TORSDOF 7
ENDMDL
MODEL 6
REMARK VINA RESULT:      -9.2      5.608     13.667
REMARK  Name = 46207586
REMARK  7 active torsions:
REMARK  status: ('A' for Active; 'I' for Inactive)
REMARK    1  A    between atoms: C_6  and  C_13
REMARK    2  A    between atoms: C_7  and  C_34
REMARK    3  A    between atoms: C_16  and  N_20
REMARK    4  A    between atoms: N_21  and  C_26
REMARK    5  A    between atoms: N_32  and  C_37
REMARK    6  A    between atoms: C_37  and  C_38
REMARK    7  A    between atoms: C_38  and  O_39
REMARK                            x       y       z     vdW  Elec       q    Type
REMARK                         _______ _______ _______ _____ _____    ______ ____
ROOT
ATOM      1  S   UNL     1      34.940 -14.478 -21.598  0.00  0.00    -0.086 S 
ATOM      2  N   UNL     1      34.435 -17.659 -24.711  0.00  0.00    -0.230 NA
ATOM      3  N   UNL     1      34.951 -19.283 -23.072  0.00  0.00    -0.343 N 
ATOM      4  C   UNL     1      34.914 -16.909 -22.480  0.00  0.00    +0.038 C 
ATOM      5  C   UNL     1      34.713 -15.590 -22.896  0.00  0.00    +0.034 C 
ATOM      6  C   UNL     1      35.254 -16.967 -21.086  0.00  0.00    +0.010 C 
ATOM      7  C   UNL     1      34.372 -15.289 -24.220  0.00  0.00    +0.028 C 
ATOM      8  C   UNL     1      34.764 -17.932 -23.428  0.00  0.00    +0.126 C 
ATOM      9  C   UNL     1      35.300 -15.726 -20.495  0.00  0.00    +0.036 C 
ATOM     10  C   UNL     1      34.251 -16.374 -25.071  0.00  0.00    +0.101 C 
ATOM     11  H   UNL     1      34.843 -19.990 -23.749  0.00  0.00    +0.144 HD
ATOM     12  H   UNL     1      35.190 -19.519 -22.147  0.00  0.00    +0.144 HD
ENDROOT
BRANCH   6  13
ATOM     13  C   UNL     1      35.534 -18.132 -20.284  0.00  0.00    +0.001 C 
ATOM     14  C   UNL     1      36.839 -18.398 -19.872  0.00  0.00    +0.001 C 
ATOM     15  C   UNL     1      34.499 -18.993 -19.920  0.00  0.00    +0.001 C 
ATOM     16  C   UNL     1      36.074 -20.386 -18.732  0.00  0.00    +0.052 C 
ATOM     17  C   UNL     1      37.110 -19.525 -19.095  0.00  0.00    +0.015 C 
ATOM     18  C   UNL     1      34.769 -20.120 -19.143  0.00  0.00    +0.015 C 
BRANCH  16  20
ATOM     19  O   UNL     1      36.758 -20.609 -15.832  0.00  0.00    -0.252 OA
ATOM     20  N   UNL     1      36.345 -21.512 -17.954  0.00  0.00    -0.268 N 
ATOM     21  N   UNL     1      36.863 -22.916 -16.195  0.00  0.00    -0.268 N 
ATOM     22  C   UNL     1      36.667 -21.580 -16.576  0.00  0.00    +0.308 C 
ATOM     23  H   UNL     1      36.307 -22.376 -18.426  0.00  0.00    +0.156 HD
ATOM     24  H   UNL     1      36.755 -23.589 -16.905  0.00  0.00    +0.156 HD
BRANCH  21  26
ATOM     25  F   UNL     1      40.132 -24.475 -13.042  0.00  0.00    -0.204 F 
ATOM     26  C   UNL     1      37.198 -23.417 -14.914  0.00  0.00    +0.054 C 
ATOM     27  C   UNL     1      38.526 -23.704 -14.604  0.00  0.00    +0.044 C 
ATOM     28  C   UNL     1      36.198 -23.623 -13.963  0.00  0.00    +0.015 C 
ATOM     29  C   UNL     1      38.857 -24.199 -13.341  0.00  0.00    +0.141 C 
ATOM     30  C   UNL     1      36.528 -24.117 -12.701  0.00  0.00    +0.004 C 
ATOM     31  C   UNL     1      37.857 -24.405 -12.390  0.00  0.00    +0.030 C 
ENDBRANCH  21  26
ENDBRANCH  16  20
ENDBRANCH   6  13
BRANCH   7  34
ATOM     32  N   UNL     1      33.969 -11.769 -24.643  0.00  0.00    -0.208 N 
ATOM     33  N   UNL     1      33.740 -12.090 -25.928  0.00  0.00    -0.176 NA
ATOM     34  C   UNL     1      34.162 -13.945 -24.664  0.00  0.00    +0.039 C 
ATOM     35  C   UNL     1      34.225 -12.844 -23.844  0.00  0.00    +0.086 C 
ATOM     36  C   UNL     1      33.860 -13.420 -25.934  0.00  0.00    +0.119 C 
BRANCH  32  37
ATOM     37  C   UNL     1      33.925 -10.387 -24.231  0.00  0.00    +0.148 C 
BRANCH  37  38
ATOM     38  C   UNL     1      35.173  -9.617 -24.649  0.00  0.00    +0.161 C 
BRANCH  38  39
ATOM     39  O   UNL     1      35.879  -9.185 -23.492  0.00  0.00    -0.380 OA
ATOM     40  H   UNL     1      36.800  -8.991 -23.729  0.00  0.00    +0.211 HD
ENDBRANCH  38  39
ENDBRANCH  37  38
ENDBRANCH  32  37
ENDBRANCH   7  34
TORSDOF 7
ENDMDL
MODEL 7
REMARK VINA RESULT:      -8.6      5.525     13.571
REMARK  Name = 46207586
REMARK  7 active torsions:
REMARK  status: ('A' for Active; 'I' for Inactive)
REMARK    1  A    between atoms: C_6  and  C_13
REMARK    2  A    between atoms: C_7  and  C_34
REMARK    3  A    between atoms: C_16  and  N_20
REMARK    4  A    between atoms: N_21  and  C_26
REMARK    5  A    between atoms: N_32  and  C_37
REMARK    6  A    between atoms: C_37  and  C_38
REMARK    7  A    between atoms: C_38  and  O_39
REMARK                            x       y       z     vdW  Elec       q    Type
REMARK                         _______ _______ _______ _____ _____    ______ ____
ROOT
ATOM      1  S   UNL     1      34.896 -14.475 -21.640  0.00  0.00    -0.086 S 
ATOM      2  N   UNL     1      34.395 -17.666 -24.744  0.00  0.00    -0.230 NA
ATOM      3  N   UNL     1      34.910 -19.285 -23.099  0.00  0.00    -0.343 N 
ATOM      4  C   UNL     1      34.872 -16.909 -22.514  0.00  0.00    +0.038 C 
ATOM      5  C   UNL     1      34.670 -15.591 -22.934  0.00  0.00    +0.034 C 
ATOM      6  C   UNL     1      35.210 -16.962 -21.120  0.00  0.00    +0.010 C 
ATOM      7  C   UNL     1      34.330 -15.295 -24.261  0.00  0.00    +0.028 C 
ATOM      8  C   UNL     1      34.723 -17.935 -23.459  0.00  0.00    +0.126 C 
ATOM      9  C   UNL     1      35.256 -15.720 -20.533  0.00  0.00    +0.036 C 
ATOM     10  C   UNL     1      34.210 -16.383 -25.107  0.00  0.00    +0.101 C 
ATOM     11  H   UNL     1      34.803 -19.994 -23.773  0.00  0.00    +0.144 HD
ATOM     12  H   UNL     1      35.149 -19.518 -22.173  0.00  0.00    +0.144 HD
ENDROOT
BRANCH   6  13
ATOM     13  C   UNL     1      35.491 -18.124 -20.314  0.00  0.00    +0.001 C 
ATOM     14  C   UNL     1      34.462 -18.999 -19.967  0.00  0.00    +0.001 C 
ATOM     15  C   UNL     1      36.793 -18.374 -19.882  0.00  0.00    +0.001 C 
ATOM     16  C   UNL     1      36.036 -20.372 -18.756  0.00  0.00    +0.052 C 
ATOM     17  C   UNL     1      34.734 -20.123 -19.187  0.00  0.00    +0.015 C 
ATOM     18  C   UNL     1      37.067 -19.499 -19.102  0.00  0.00    +0.015 C 
BRANCH  16  20
ATOM     19  O   UNL     1      36.708 -20.592 -15.853  0.00  0.00    -0.252 OA
ATOM     20  N   UNL     1      36.309 -21.498 -17.977  0.00  0.00    -0.268 N 
ATOM     21  N   UNL     1      36.827 -22.898 -16.215  0.00  0.00    -0.268 N 
ATOM     22  C   UNL     1      36.625 -21.563 -16.598  0.00  0.00    +0.308 C 
ATOM     23  H   UNL     1      36.278 -22.361 -18.449  0.00  0.00    +0.156 HD
ATOM     24  H   UNL     1      36.726 -23.572 -16.926  0.00  0.00    +0.156 HD
BRANCH  21  26
ATOM     25  F   UNL     1      35.517 -24.336 -11.825  0.00  0.00    -0.204 F 
ATOM     26  C   UNL     1      37.159 -23.397 -14.933  0.00  0.00    +0.054 C 
ATOM     27  C   UNL     1      36.154 -23.626 -13.993  0.00  0.00    +0.044 C 
ATOM     28  C   UNL     1      38.490 -23.658 -14.609  0.00  0.00    +0.015 C 
ATOM     29  C   UNL     1      36.480 -24.116 -12.728  0.00  0.00    +0.141 C 
ATOM     30  C   UNL     1      38.817 -24.148 -13.344  0.00  0.00    +0.004 C 
ATOM     31  C   UNL     1      37.812 -24.377 -12.404  0.00  0.00    +0.030 C 
ENDBRANCH  21  26
ENDBRANCH  16  20
ENDBRANCH   6  13
BRANCH   7  34
ATOM     32  N   UNL     1      33.884 -11.781 -24.688  0.00  0.00    -0.208 N 
ATOM     33  N   UNL     1      33.732 -12.098 -25.985  0.00  0.00    -0.176 NA
ATOM     34  C   UNL     1      34.119 -13.952 -24.708  0.00  0.00    +0.039 C 
ATOM     35  C   UNL     1      34.117 -12.855 -23.881  0.00  0.00    +0.086 C 
ATOM     36  C   UNL     1      33.877 -13.426 -25.991  0.00  0.00    +0.119 C 
BRANCH  32  37
ATOM     37  C   UNL     1      33.792 -10.402 -24.273  0.00  0.00    +0.148 C 
BRANCH  37  38
ATOM     38  C   UNL     1      33.348 -10.261 -22.821  0.00  0.00    +0.161 C 
BRANCH  38  39
ATOM     39  O   UNL     1      32.669  -9.024 -22.645  0.00  0.00    -0.380 OA
ATOM     40  H   UNL     1      32.148  -9.054 -21.827  0.00  0.00    +0.211 HD
ENDBRANCH  38  39
ENDBRANCH  37  38
ENDBRANCH  32  37
ENDBRANCH   7  34
TORSDOF 7
ENDMDL
