MODEL 1
REMARK VINA RESULT:     -11.1      0.000      0.000
REMARK  Name = 656948
REMARK  8 active torsions:
REMARK  status: ('A' for Active; 'I' for Inactive)
REMARK    1  A    between atoms: N_1  and  C_3
REMARK    2  A    between atoms: N_1  and  C_18
REMARK    3  A    between atoms: C_6  and  C_10
REMARK    4  A    between atoms: C_10  and  O_11
REMARK    5  A    between atoms: O_11  and  P_12
REMARK    6  A    between atoms: P_12  and  O_14
REMARK    7  A    between atoms: P_12  and  O_16
REMARK    8  A    between atoms: C_18  and  C_25
REMARK                            x       y       z     vdW  Elec       q    Type
REMARK                         _______ _______ _______ _____ _____    ______ ____
ROOT
ATOM      1  N   UNL     1      34.280 -18.891 -21.322  0.00  0.00    -0.327 N 
ATOM      2  H   UNL     1      33.367 -18.607 -21.556  0.00  0.00    +0.147 HD
ENDROOT
BRANCH   1   3
ATOM      3  C   UNL     1      34.447 -19.721 -20.229  0.00  0.00    +0.045 C 
ATOM      4  C   UNL     1      33.337 -20.306 -19.587  0.00  0.00    +0.015 C 
ATOM      5  C   UNL     1      35.731 -20.006 -19.724  0.00  0.00    +0.015 C 
ATOM      6  C   UNL     1      34.786 -21.412 -18.001  0.00  0.00    +0.076 C 
ATOM      7  C   UNL     1      33.505 -21.144 -18.485  0.00  0.00    +0.008 C 
ATOM      8  C   UNL     1      35.898 -20.843 -18.620  0.00  0.00    +0.008 C 
BRANCH   6  10
ATOM      9  O   UNL     1      34.130 -23.111 -16.454  0.00  0.00    -0.245 OA
ATOM     10  C   UNL     1      34.961 -22.285 -16.852  0.00  0.00    +0.348 C 
BRANCH  10  11
ATOM     11  O   UNL     1      36.166 -22.092 -16.244  0.00  0.00    -0.368 OA
BRANCH  11  12
ATOM     12  P   UNL     1      36.616 -22.715 -14.821  0.00  0.00    +0.530 P 
ATOM     13  O   UNL     1      37.998 -22.332 -14.374  0.00  0.00    -0.216 OA
BRANCH  12  14
ATOM     14  O   UNL     1      36.362 -24.301 -15.002  0.00  0.00    -0.293 OA
ATOM     15  H   UNL     1      36.483 -24.748 -14.149  0.00  0.00    +0.223 HD
ENDBRANCH  12  14
BRANCH  12  16
ATOM     16  O   UNL     1      35.425 -22.255 -13.830  0.00  0.00    -0.293 OA
ATOM     17  H   UNL     1      35.796 -22.028 -12.963  0.00  0.00    +0.223 HD
ENDBRANCH  12  16
ENDBRANCH  11  12
ENDBRANCH  10  11
ENDBRANCH   6  10
ENDBRANCH   1   3
BRANCH   1  18
ATOM     18  C   UNL     1      35.376 -18.416 -22.142  0.00  0.00    +0.145 C 
BRANCH  18  25
ATOM     19  O   UNL     1      35.065 -13.493 -21.961  0.00  0.00    -0.206 OA
ATOM     20  N   UNL     1      34.993 -16.075 -22.644  0.00  0.00    -0.391 NA
ATOM     21  N   UNL     1      33.683 -14.385 -25.605  0.00  0.00    -0.259 N 
ATOM     22  N   UNL     1      34.029 -16.728 -25.199  0.00  0.00    -0.246 NA
ATOM     23  N   UNL     1      34.210 -12.745 -23.960  0.00  0.00    -0.300 NA
ATOM     24  N   UNL     1      33.330 -12.162 -26.054  0.00  0.00    -0.320 N 
ATOM     25  C   UNL     1      34.923 -17.348 -23.074  0.00  0.00    +0.132 C 
ATOM     26  C   UNL     1      34.571 -15.143 -23.523  0.00  0.00    +0.255 C 
ATOM     27  C   UNL     1      34.091 -15.443 -24.787  0.00  0.00    +0.173 C 
ATOM     28  C   UNL     1      34.448 -17.668 -24.328  0.00  0.00    +0.183 C 
ATOM     29  C   UNL     1      34.634 -13.730 -23.085  0.00  0.00    +0.240 C 
ATOM     30  C   UNL     1      33.766 -13.091 -25.141  0.00  0.00    +0.249 C 
ATOM     31  H   UNL     1      33.337 -14.566 -26.509  0.00  0.00    +0.157 HD
ATOM     32  H   UNL     1      33.000 -12.454 -26.935  0.00  0.00    +0.146 HD
ATOM     33  H   UNL     1      33.345 -11.204 -25.827  0.00  0.00    +0.146 HD
ENDBRANCH  18  25
ENDBRANCH   1  18
TORSDOF 8
ENDMDL
MODEL 2
REMARK VINA RESULT:     -10.9      1.233      2.048
REMARK  Name = 656948
REMARK  8 active torsions:
REMARK  status: ('A' for Active; 'I' for Inactive)
REMARK    1  A    between atoms: N_1  and  C_3
REMARK    2  A    between atoms: N_1  and  C_18
REMARK    3  A    between atoms: C_6  and  C_10
REMARK    4  A    between atoms: C_10  and  O_11
REMARK    5  A    between atoms: O_11  and  P_12
REMARK    6  A    between atoms: P_12  and  O_14
REMARK    7  A    between atoms: P_12  and  O_16
REMARK    8  A    between atoms: C_18  and  C_25
REMARK                            x       y       z     vdW  Elec       q    Type
REMARK                         _______ _______ _______ _____ _____    ______ ____
ROOT
ATOM      1  N   UNL     1      34.488 -18.949 -21.463  0.00  0.00    -0.327 N 
ATOM      2  H   UNL     1      33.604 -18.866 -21.889  0.00  0.00    +0.147 HD
ENDROOT
BRANCH   1   3
ATOM      3  C   UNL     1      34.601 -19.754 -20.344  0.00  0.00    +0.045 C 
ATOM      4  C   UNL     1      35.864 -20.102 -19.827  0.00  0.00    +0.015 C 
ATOM      5  C   UNL     1      33.457 -20.249 -19.689  0.00  0.00    +0.015 C 
ATOM      6  C   UNL     1      34.831 -21.393 -18.064  0.00  0.00    +0.076 C 
ATOM      7  C   UNL     1      35.978 -20.913 -18.698  0.00  0.00    +0.008 C 
ATOM      8  C   UNL     1      33.571 -21.061 -18.559  0.00  0.00    +0.008 C 
BRANCH   6  10
ATOM      9  O   UNL     1      34.079 -23.014 -16.479  0.00  0.00    -0.245 OA
ATOM     10  C   UNL     1      34.951 -22.238 -16.887  0.00  0.00    +0.348 C 
BRANCH  10  11
ATOM     11  O   UNL     1      36.153 -22.080 -16.266  0.00  0.00    -0.368 OA
BRANCH  11  12
ATOM     12  P   UNL     1      36.557 -22.685 -14.821  0.00  0.00    +0.530 P 
ATOM     13  O   UNL     1      37.935 -22.320 -14.348  0.00  0.00    -0.216 OA
BRANCH  12  14
ATOM     14  O   UNL     1      36.276 -24.268 -14.979  0.00  0.00    -0.293 OA
ATOM     15  H   UNL     1      37.103 -24.759 -14.850  0.00  0.00    +0.223 HD
ENDBRANCH  12  14
BRANCH  12  16
ATOM     16  O   UNL     1      35.352 -22.183 -13.868  0.00  0.00    -0.293 OA
ATOM     17  H   UNL     1      35.714 -21.644 -13.147  0.00  0.00    +0.223 HD
ENDBRANCH  12  16
ENDBRANCH  11  12
ENDBRANCH  10  11
ENDBRANCH   6  10
ENDBRANCH   1   3
BRANCH   1  18
ATOM     18  C   UNL     1      35.598 -18.222 -22.043  0.00  0.00    +0.145 C 
BRANCH  18  25
ATOM     19  O   UNL     1      34.029 -15.289 -25.689  0.00  0.00    -0.206 OA
ATOM     20  N   UNL     1      34.865 -16.335 -23.378  0.00  0.00    -0.391 NA
ATOM     21  N   UNL     1      34.391 -12.803 -22.580  0.00  0.00    -0.259 N 
ATOM     22  N   UNL     1      35.126 -14.611 -21.178  0.00  0.00    -0.246 NA
ATOM     23  N   UNL     1      33.835 -13.150 -24.870  0.00  0.00    -0.300 NA
ATOM     24  N   UNL     1      33.695 -11.035 -23.867  0.00  0.00    -0.320 N 
ATOM     25  C   UNL     1      35.278 -16.775 -22.175  0.00  0.00    +0.132 C 
ATOM     26  C   UNL     1      34.587 -15.017 -23.449  0.00  0.00    +0.255 C 
ATOM     27  C   UNL     1      34.710 -14.149 -22.377  0.00  0.00    +0.173 C 
ATOM     28  C   UNL     1      35.407 -15.928 -21.096  0.00  0.00    +0.183 C 
ATOM     29  C   UNL     1      34.130 -14.498 -24.758  0.00  0.00    +0.240 C 
ATOM     30  C   UNL     1      33.971 -12.379 -23.821  0.00  0.00    +0.249 C 
ATOM     31  H   UNL     1      34.467 -12.161 -21.837  0.00  0.00    +0.157 HD
ATOM     32  H   UNL     1      33.808 -10.481 -23.061  0.00  0.00    +0.146 HD
ATOM     33  H   UNL     1      33.386 -10.624 -24.707  0.00  0.00    +0.146 HD
ENDBRANCH  18  25
ENDBRANCH   1  18
TORSDOF 8
ENDMDL
MODEL 3
REMARK VINA RESULT:     -10.6      4.330     10.214
REMARK  Name = 656948
REMARK  8 active torsions:
REMARK  status: ('A' for Active; 'I' for Inactive)
REMARK    1  A    between atoms: N_1  and  C_3
REMARK    2  A    between atoms: N_1  and  C_18
REMARK    3  A    between atoms: C_6  and  C_10
REMARK    4  A    between atoms: C_10  and  O_11
REMARK    5  A    between atoms: O_11  and  P_12
REMARK    6  A    between atoms: P_12  and  O_14
REMARK    7  A    between atoms: P_12  and  O_16
REMARK    8  A    between atoms: C_18  and  C_25
REMARK                            x       y       z     vdW  Elec       q    Type
REMARK                         _______ _______ _______ _____ _____    ______ ____
ROOT
ATOM      1  N   UNL     1      35.892 -19.090 -19.695  0.00  0.00    -0.327 N 
ATOM      2  H   UNL     1      36.104 -18.653 -18.838  0.00  0.00    +0.147 HD
ENDROOT
BRANCH   1   3
ATOM      3  C   UNL     1      35.630 -18.288 -20.791  0.00  0.00    +0.045 C 
ATOM      4  C   UNL     1      35.732 -16.885 -20.703  0.00  0.00    +0.015 C 
ATOM      5  C   UNL     1      35.253 -18.849 -22.026  0.00  0.00    +0.015 C 
ATOM      6  C   UNL     1      35.096 -16.653 -23.022  0.00  0.00    +0.076 C 
ATOM      7  C   UNL     1      35.468 -16.076 -21.807  0.00  0.00    +0.008 C 
ATOM      8  C   UNL     1      34.988 -18.039 -23.131  0.00  0.00    +0.008 C 
BRANCH   6  10
ATOM      9  O   UNL     1      34.595 -16.221 -25.318  0.00  0.00    -0.245 OA
ATOM     10  C   UNL     1      34.821 -15.810 -24.174  0.00  0.00    +0.348 C 
BRANCH  10  11
ATOM     11  O   UNL     1      34.842 -14.485 -23.852  0.00  0.00    -0.368 OA
BRANCH  11  12
ATOM     12  P   UNL     1      33.576 -13.480 -23.907  0.00  0.00    +0.530 P 
ATOM     13  O   UNL     1      32.845 -13.314 -22.606  0.00  0.00    -0.216 OA
BRANCH  12  14
ATOM     14  O   UNL     1      32.689 -14.051 -25.132  0.00  0.00    -0.293 OA
ATOM     15  H   UNL     1      32.626 -15.017 -25.064  0.00  0.00    +0.223 HD
ENDBRANCH  12  14
BRANCH  12  16
ATOM     16  O   UNL     1      34.216 -12.123 -24.510  0.00  0.00    -0.293 OA
ATOM     17  H   UNL     1      34.060 -12.090 -25.466  0.00  0.00    +0.223 HD
ENDBRANCH  12  16
ENDBRANCH  11  12
ENDBRANCH  10  11
ENDBRANCH   6  10
ENDBRANCH   1   3
BRANCH   1  18
ATOM     18  C   UNL     1      35.870 -20.538 -19.739  0.00  0.00    +0.145 C 
BRANCH  18  25
ATOM     19  O   UNL     1      36.161 -22.962 -15.449  0.00  0.00    -0.206 OA
ATOM     20  N   UNL     1      35.375 -21.706 -17.671  0.00  0.00    -0.391 NA
ATOM     21  N   UNL     1      32.225 -22.610 -16.060  0.00  0.00    -0.259 N 
ATOM     22  N   UNL     1      32.617 -21.444 -18.123  0.00  0.00    -0.246 NA
ATOM     23  N   UNL     1      34.026 -23.381 -14.704  0.00  0.00    -0.300 NA
ATOM     24  N   UNL     1      31.786 -23.719 -14.099  0.00  0.00    -0.320 N 
ATOM     25  C   UNL     1      34.889 -21.086 -18.763  0.00  0.00    +0.132 C 
ATOM     26  C   UNL     1      34.449 -22.186 -16.817  0.00  0.00    +0.255 C 
ATOM     27  C   UNL     1      33.084 -22.068 -17.021  0.00  0.00    +0.173 C 
ATOM     28  C   UNL     1      33.535 -20.959 -18.985  0.00  0.00    +0.183 C 
ATOM     29  C   UNL     1      34.947 -22.874 -15.605  0.00  0.00    +0.240 C 
ATOM     30  C   UNL     1      32.749 -23.239 -14.952  0.00  0.00    +0.249 C 
ATOM     31  H   UNL     1      31.250 -22.543 -16.176  0.00  0.00    +0.157 HD
ATOM     32  H   UNL     1      30.833 -23.598 -14.314  0.00  0.00    +0.146 HD
ATOM     33  H   UNL     1      32.049 -24.187 -13.274  0.00  0.00    +0.146 HD
ENDBRANCH  18  25
ENDBRANCH   1  18
TORSDOF 8
ENDMDL
MODEL 4
REMARK VINA RESULT:     -10.6      4.924     10.340
REMARK  Name = 656948
REMARK  8 active torsions:
REMARK  status: ('A' for Active; 'I' for Inactive)
REMARK    1  A    between atoms: N_1  and  C_3
REMARK    2  A    between atoms: N_1  and  C_18
REMARK    3  A    between atoms: C_6  and  C_10
REMARK    4  A    between atoms: C_10  and  O_11
REMARK    5  A    between atoms: O_11  and  P_12
REMARK    6  A    between atoms: P_12  and  O_14
REMARK    7  A    between atoms: P_12  and  O_16
REMARK    8  A    between atoms: C_18  and  C_25
REMARK                            x       y       z     vdW  Elec       q    Type
REMARK                         _______ _______ _______ _____ _____    ______ ____
ROOT
ATOM      1  N   UNL     1      34.922 -19.651 -19.955  0.00  0.00    -0.327 N 
ATOM      2  H   UNL     1      35.716 -19.843 -19.405  0.00  0.00    +0.147 HD
ENDROOT
BRANCH   1   3
ATOM      3  C   UNL     1      34.997 -18.618 -20.872  0.00  0.00    +0.045 C 
ATOM      4  C   UNL     1      34.646 -18.820 -22.221  0.00  0.00    +0.015 C 
ATOM      5  C   UNL     1      35.426 -17.334 -20.484  0.00  0.00    +0.015 C 
ATOM      6  C   UNL     1      35.149 -16.515 -22.740  0.00  0.00    +0.076 C 
ATOM      7  C   UNL     1      34.721 -17.779 -23.145  0.00  0.00    +0.008 C 
ATOM      8  C   UNL     1      35.502 -16.292 -21.409  0.00  0.00    +0.008 C 
BRANCH   6  10
ATOM      9  O   UNL     1      35.278 -15.572 -24.931  0.00  0.00    -0.245 OA
ATOM     10  C   UNL     1      35.227 -15.429 -23.704  0.00  0.00    +0.348 C 
BRANCH  10  11
ATOM     11  O   UNL     1      35.240 -14.209 -23.097  0.00  0.00    -0.368 OA
BRANCH  11  12
ATOM     12  P   UNL     1      33.971 -13.219 -22.938  0.00  0.00    +0.530 P 
ATOM     13  O   UNL     1      33.295 -13.270 -21.598  0.00  0.00    -0.216 OA
BRANCH  12  14
ATOM     14  O   UNL     1      33.034 -13.596 -24.200  0.00  0.00    -0.293 OA
ATOM     15  H   UNL     1      33.564 -14.049 -24.874  0.00  0.00    +0.223 HD
ENDBRANCH  12  14
BRANCH  12  16
ATOM     16  O   UNL     1      34.581 -11.778 -23.342  0.00  0.00    -0.293 OA
ATOM     17  H   UNL     1      35.424 -11.644 -22.880  0.00  0.00    +0.223 HD
ENDBRANCH  12  16
ENDBRANCH  11  12
ENDBRANCH  10  11
ENDBRANCH   6  10
ENDBRANCH   1   3
BRANCH   1  18
ATOM     18  C   UNL     1      33.740 -20.464 -19.759  0.00  0.00    +0.145 C 
BRANCH  18  25
ATOM     19  O   UNL     1      30.466 -22.163 -16.480  0.00  0.00    -0.206 OA
ATOM     20  N   UNL     1      32.660 -21.505 -17.853  0.00  0.00    -0.391 NA
ATOM     21  N   UNL     1      33.986 -23.288 -14.955  0.00  0.00    -0.259 N 
ATOM     22  N   UNL     1      35.145 -22.286 -16.806  0.00  0.00    -0.246 NA
ATOM     23  N   UNL     1      31.611 -23.225 -14.792  0.00  0.00    -0.300 NA
ATOM     24  N   UNL     1      32.938 -24.265 -13.162  0.00  0.00    -0.320 N 
ATOM     25  C   UNL     1      33.817 -21.219 -18.479  0.00  0.00    +0.132 C 
ATOM     26  C   UNL     1      32.780 -22.190 -16.697  0.00  0.00    +0.255 C 
ATOM     27  C   UNL     1      33.995 -22.583 -16.163  0.00  0.00    +0.173 C 
ATOM     28  C   UNL     1      35.036 -21.601 -17.963  0.00  0.00    +0.183 C 
ATOM     29  C   UNL     1      31.528 -22.523 -15.982  0.00  0.00    +0.240 C 
ATOM     30  C   UNL     1      32.788 -23.569 -14.336  0.00  0.00    +0.249 C 
ATOM     31  H   UNL     1      34.834 -23.582 -14.549  0.00  0.00    +0.157 HD
ATOM     32  H   UNL     1      33.838 -24.508 -12.846  0.00  0.00    +0.146 HD
ATOM     33  H   UNL     1      32.145 -24.519 -12.636  0.00  0.00    +0.146 HD
ENDBRANCH  18  25
ENDBRANCH   1  18
TORSDOF 8
ENDMDL
MODEL 5
REMARK VINA RESULT:     -10.6      4.594     10.455
REMARK  Name = 656948
REMARK  8 active torsions:
REMARK  status: ('A' for Active; 'I' for Inactive)
REMARK    1  A    between atoms: N_1  and  C_3
REMARK    2  A    between atoms: N_1  and  C_18
REMARK    3  A    between atoms: C_6  and  C_10
REMARK    4  A    between atoms: C_10  and  O_11
REMARK    5  A    between atoms: O_11  and  P_12
REMARK    6  A    between atoms: P_12  and  O_14
REMARK    7  A    between atoms: P_12  and  O_16
REMARK    8  A    between atoms: C_18  and  C_25
REMARK                            x       y       z     vdW  Elec       q    Type
REMARK                         _______ _______ _______ _____ _____    ______ ____
ROOT
ATOM      1  N   UNL     1      35.332 -20.135 -20.286  0.00  0.00    -0.327 N 
ATOM      2  H   UNL     1      34.613 -20.777 -20.487  0.00  0.00    +0.147 HD
ENDROOT
BRANCH   1   3
ATOM      3  C   UNL     1      35.310 -18.908 -20.925  0.00  0.00    +0.045 C 
ATOM      4  C   UNL     1      35.002 -18.811 -22.296  0.00  0.00    +0.015 C 
ATOM      5  C   UNL     1      35.594 -17.721 -20.223  0.00  0.00    +0.015 C 
ATOM      6  C   UNL     1      35.264 -16.410 -22.226  0.00  0.00    +0.076 C 
ATOM      7  C   UNL     1      34.979 -17.575 -22.940  0.00  0.00    +0.008 C 
ATOM      8  C   UNL     1      35.572 -16.483 -20.869  0.00  0.00    +0.008 C 
BRANCH   6  10
ATOM      9  O   UNL     1      35.301 -14.023 -22.331  0.00  0.00    -0.245 OA
ATOM     10  C   UNL     1      35.240 -15.121 -22.898  0.00  0.00    +0.348 C 
BRANCH  10  11
ATOM     11  O   UNL     1      35.139 -15.253 -24.251  0.00  0.00    -0.368 OA
BRANCH  11  12
ATOM     12  P   UNL     1      33.824 -14.931 -25.136  0.00  0.00    +0.530 P 
ATOM     13  O   UNL     1      33.064 -16.141 -25.599  0.00  0.00    -0.216 OA
BRANCH  12  14
ATOM     14  O   UNL     1      34.381 -13.971 -26.311  0.00  0.00    -0.293 OA
ATOM     15  H   UNL     1      33.870 -13.146 -26.324  0.00  0.00    +0.223 HD
ENDBRANCH  12  14
BRANCH  12  16
ATOM     16  O   UNL     1      32.989 -13.920 -24.190  0.00  0.00    -0.293 OA
ATOM     17  H   UNL     1      32.781 -14.360 -23.351  0.00  0.00    +0.223 HD
ENDBRANCH  12  16
ENDBRANCH  11  12
ENDBRANCH  10  11
ENDBRANCH   6  10
ENDBRANCH   1   3
BRANCH   1  18
ATOM     18  C   UNL     1      36.355 -20.526 -19.338  0.00  0.00    +0.145 C 
BRANCH  18  25
ATOM     19  O   UNL     1      37.899 -21.790 -14.823  0.00  0.00    -0.206 OA
ATOM     20  N   UNL     1      36.527 -21.399 -17.082  0.00  0.00    -0.391 NA
ATOM     21  N   UNL     1      34.170 -23.224 -14.973  0.00  0.00    -0.259 N 
ATOM     22  N   UNL     1      33.906 -22.394 -17.212  0.00  0.00    -0.246 NA
ATOM     23  N   UNL     1      36.198 -22.916 -13.763  0.00  0.00    -0.300 NA
ATOM     24  N   UNL     1      34.360 -24.040 -12.837  0.00  0.00    -0.320 N 
ATOM     25  C   UNL     1      35.763 -21.246 -18.179  0.00  0.00    +0.132 C 
ATOM     26  C   UNL     1      35.947 -22.058 -16.058  0.00  0.00    +0.255 C 
ATOM     27  C   UNL     1      34.656 -22.558 -16.102  0.00  0.00    +0.173 C 
ATOM     28  C   UNL     1      34.476 -21.736 -18.243  0.00  0.00    +0.183 C 
ATOM     29  C   UNL     1      36.759 -22.245 -14.835  0.00  0.00    +0.240 C 
ATOM     30  C   UNL     1      34.973 -23.366 -13.864  0.00  0.00    +0.249 C 
ATOM     31  H   UNL     1      33.256 -23.591 -14.972  0.00  0.00    +0.157 HD
ATOM     32  H   UNL     1      33.437 -24.367 -12.944  0.00  0.00    +0.146 HD
ATOM     33  H   UNL     1      34.844 -24.199 -11.994  0.00  0.00    +0.146 HD
ENDBRANCH  18  25
ENDBRANCH   1  18
TORSDOF 8
ENDMDL
MODEL 6
REMARK VINA RESULT:     -10.5      2.340      3.401
REMARK  Name = 656948
REMARK  8 active torsions:
REMARK  status: ('A' for Active; 'I' for Inactive)
REMARK    1  A    between atoms: N_1  and  C_3
REMARK    2  A    between atoms: N_1  and  C_18
REMARK    3  A    between atoms: C_6  and  C_10
REMARK    4  A    between atoms: C_10  and  O_11
REMARK    5  A    between atoms: O_11  and  P_12
REMARK    6  A    between atoms: P_12  and  O_14
REMARK    7  A    between atoms: P_12  and  O_16
REMARK    8  A    between atoms: C_18  and  C_25
REMARK                            x       y       z     vdW  Elec       q    Type
REMARK                         _______ _______ _______ _____ _____    ______ ____
ROOT
ATOM      1  N   UNL     1      35.302 -19.091 -20.834  0.00  0.00    -0.327 N 
ATOM      2  H   UNL     1      35.200 -19.366 -21.774  0.00  0.00    +0.147 HD
ENDROOT
BRANCH   1   3
ATOM      3  C   UNL     1      34.749 -19.898 -19.854  0.00  0.00    +0.045 C 
ATOM      4  C   UNL     1      35.566 -20.686 -19.019  0.00  0.00    +0.015 C 
ATOM      5  C   UNL     1      33.355 -19.954 -19.664  0.00  0.00    +0.015 C 
ATOM      6  C   UNL     1      33.625 -21.540 -17.861  0.00  0.00    +0.076 C 
ATOM      7  C   UNL     1      35.009 -21.498 -18.032  0.00  0.00    +0.008 C 
ATOM      8  C   UNL     1      32.799 -20.768 -18.677  0.00  0.00    +0.008 C 
BRANCH   6  10
ATOM      9  O   UNL     1      33.677 -23.184 -16.129  0.00  0.00    -0.245 OA
ATOM     10  C   UNL     1      33.045 -22.386 -16.831  0.00  0.00    +0.348 C 
BRANCH  10  11
ATOM     11  O   UNL     1      31.698 -22.204 -16.721  0.00  0.00    -0.368 OA
BRANCH  11  12
ATOM     12  P   UNL     1      30.801 -22.555 -15.422  0.00  0.00    +0.530 P 
ATOM     13  O   UNL     1      29.394 -22.032 -15.467  0.00  0.00    -0.216 OA
BRANCH  12  14
ATOM     14  O   UNL     1      31.697 -22.026 -14.185  0.00  0.00    -0.293 OA
ATOM     15  H   UNL     1      32.099 -21.174 -14.417  0.00  0.00    +0.223 HD
ENDBRANCH  12  14
BRANCH  12  16
ATOM     16  O   UNL     1      30.930 -24.163 -15.316  0.00  0.00    -0.293 OA
ATOM     17  H   UNL     1      31.100 -24.414 -14.394  0.00  0.00    +0.223 HD
ENDBRANCH  12  16
ENDBRANCH  11  12
ENDBRANCH  10  11
ENDBRANCH   6  10
ENDBRANCH   1   3
BRANCH   1  18
ATOM     18  C   UNL     1      36.020 -17.866 -20.551  0.00  0.00    +0.145 C 
BRANCH  18  25
ATOM     19  O   UNL     1      34.647 -17.311 -25.260  0.00  0.00    -0.206 OA
ATOM     20  N   UNL     1      35.236 -16.993 -22.674  0.00  0.00    -0.391 NA
ATOM     21  N   UNL     1      34.089 -13.677 -23.688  0.00  0.00    -0.259 N 
ATOM     22  N   UNL     1      34.851 -14.451 -21.545  0.00  0.00    -0.246 NA
ATOM     23  N   UNL     1      33.987 -15.131 -25.572  0.00  0.00    -0.300 NA
ATOM     24  N   UNL     1      33.352 -12.878 -25.709  0.00  0.00    -0.320 N 
ATOM     25  C   UNL     1      35.505 -16.742 -21.379  0.00  0.00    +0.132 C 
ATOM     26  C   UNL     1      34.771 -15.944 -23.384  0.00  0.00    +0.255 C 
ATOM     27  C   UNL     1      34.576 -14.683 -22.847  0.00  0.00    +0.173 C 
ATOM     28  C   UNL     1      35.317 -15.494 -20.826  0.00  0.00    +0.183 C 
ATOM     29  C   UNL     1      34.465 -16.183 -24.812  0.00  0.00    +0.240 C 
ATOM     30  C   UNL     1      33.822 -13.961 -25.009  0.00  0.00    +0.249 C 
ATOM     31  H   UNL     1      33.939 -12.770 -23.337  0.00  0.00    +0.157 HD
ATOM     32  H   UNL     1      33.240 -12.010 -25.257  0.00  0.00    +0.146 HD
ATOM     33  H   UNL     1      33.128 -12.968 -26.664  0.00  0.00    +0.146 HD
ENDBRANCH  18  25
ENDBRANCH   1  18
TORSDOF 8
ENDMDL
MODEL 7
REMARK VINA RESULT:     -10.5      6.450     10.904
REMARK  Name = 656948
REMARK  8 active torsions:
REMARK  status: ('A' for Active; 'I' for Inactive)
REMARK    1  A    between atoms: N_1  and  C_3
REMARK    2  A    between atoms: N_1  and  C_18
REMARK    3  A    between atoms: C_6  and  C_10
REMARK    4  A    between atoms: C_10  and  O_11
REMARK    5  A    between atoms: O_11  and  P_12
REMARK    6  A    between atoms: P_12  and  O_14
REMARK    7  A    between atoms: P_12  and  O_16
REMARK    8  A    between atoms: C_18  and  C_25
REMARK                            x       y       z     vdW  Elec       q    Type
REMARK                         _______ _______ _______ _____ _____    ______ ____
ROOT
ATOM      1  N   UNL     1      33.427 -22.859 -16.864  0.00  0.00    -0.327 N 
ATOM      2  H   UNL     1      32.924 -23.597 -17.278  0.00  0.00    +0.147 HD
ENDROOT
BRANCH   1   3
ATOM      3  C   UNL     1      34.053 -21.947 -17.696  0.00  0.00    +0.045 C 
ATOM      4  C   UNL     1      35.448 -21.762 -17.648  0.00  0.00    +0.015 C 
ATOM      5  C   UNL     1      33.312 -21.177 -18.613  0.00  0.00    +0.015 C 
ATOM      6  C   UNL     1      35.326 -20.090 -19.388  0.00  0.00    +0.076 C 
ATOM      7  C   UNL     1      36.079 -20.844 -18.486  0.00  0.00    +0.008 C 
ATOM      8  C   UNL     1      33.944 -20.257 -19.452  0.00  0.00    +0.008 C 
BRANCH   6  10
ATOM      9  O   UNL     1      37.145 -18.729 -20.128  0.00  0.00    -0.245 OA
ATOM     10  C   UNL     1      35.984 -19.133 -20.262  0.00  0.00    +0.348 C 
BRANCH  10  11
ATOM     11  O   UNL     1      35.165 -18.716 -21.269  0.00  0.00    -0.368 OA
BRANCH  11  12
ATOM     12  P   UNL     1      35.437 -17.457 -22.248  0.00  0.00    +0.530 P 
ATOM     13  O   UNL     1      34.553 -17.399 -23.460  0.00  0.00    -0.216 OA
BRANCH  12  14
ATOM     14  O   UNL     1      37.022 -17.545 -22.550  0.00  0.00    -0.293 OA
ATOM     15  H   UNL     1      37.174 -18.116 -23.319  0.00  0.00    +0.223 HD
ENDBRANCH  12  14
BRANCH  12  16
ATOM     16  O   UNL     1      35.315 -16.190 -21.252  0.00  0.00    -0.293 OA
ATOM     17  H   UNL     1      34.574 -15.630 -21.531  0.00  0.00    +0.223 HD
ENDBRANCH  12  16
ENDBRANCH  11  12
ENDBRANCH  10  11
ENDBRANCH   6  10
ENDBRANCH   1   3
BRANCH   1  18
ATOM     18  C   UNL     1      33.473 -22.787 -15.419  0.00  0.00    +0.145 C 
BRANCH  18  25
ATOM     19  O   UNL     1      36.507 -26.672 -15.677  0.00  0.00    -0.206 OA
ATOM     20  N   UNL     1      35.343 -24.316 -15.199  0.00  0.00    -0.391 NA
ATOM     21  N   UNL     1      38.578 -24.008 -13.533  0.00  0.00    -0.259 N 
ATOM     22  N   UNL     1      36.778 -22.427 -13.697  0.00  0.00    -0.246 NA
ATOM     23  N   UNL     1      38.439 -26.163 -14.538  0.00  0.00    -0.300 NA
ATOM     24  N   UNL     1      40.333 -25.475 -13.340  0.00  0.00    -0.320 N 
ATOM     25  C   UNL     1      34.836 -23.103 -14.911  0.00  0.00    +0.132 C 
ATOM     26  C   UNL     1      36.581 -24.556 -14.718  0.00  0.00    +0.255 C 
ATOM     27  C   UNL     1      37.304 -23.638 -13.975  0.00  0.00    +0.173 C 
ATOM     28  C   UNL     1      35.540 -22.176 -14.173  0.00  0.00    +0.183 C 
ATOM     29  C   UNL     1      37.171 -25.880 -15.015  0.00  0.00    +0.240 C 
ATOM     30  C   UNL     1      39.074 -25.256 -13.841  0.00  0.00    +0.249 C 
ATOM     31  H   UNL     1      39.119 -23.379 -13.002  0.00  0.00    +0.157 HD
ATOM     32  H   UNL     1      40.784 -24.772 -12.818  0.00  0.00    +0.146 HD
ATOM     33  H   UNL     1      40.784 -26.335 -13.501  0.00  0.00    +0.146 HD
ENDBRANCH  18  25
ENDBRANCH   1  18
TORSDOF 8
ENDMDL
MODEL 8
REMARK VINA RESULT:     -10.4      1.747      2.635
REMARK  Name = 656948
REMARK  8 active torsions:
REMARK  status: ('A' for Active; 'I' for Inactive)
REMARK    1  A    between atoms: N_1  and  C_3
REMARK    2  A    between atoms: N_1  and  C_18
REMARK    3  A    between atoms: C_6  and  C_10
REMARK    4  A    between atoms: C_10  and  O_11
REMARK    5  A    between atoms: O_11  and  P_12
REMARK    6  A    between atoms: P_12  and  O_14
REMARK    7  A    between atoms: P_12  and  O_16
REMARK    8  A    between atoms: C_18  and  C_25
REMARK                            x       y       z     vdW  Elec       q    Type
REMARK                         _______ _______ _______ _____ _____    ______ ____
ROOT
ATOM      1  N   UNL     1      35.302 -19.710 -20.381  0.00  0.00    -0.327 N 
ATOM      2  H   UNL     1      34.550 -19.847 -21.001  0.00  0.00    +0.147 HD
ENDROOT
BRANCH   1   3
ATOM      3  C   UNL     1      35.316 -20.435 -19.203  0.00  0.00    +0.045 C 
ATOM      4  C   UNL     1      36.491 -20.542 -18.432  0.00  0.00    +0.015 C 
ATOM      5  C   UNL     1      34.157 -21.087 -18.739  0.00  0.00    +0.015 C 
ATOM      6  C   UNL     1      35.346 -21.911 -16.803  0.00  0.00    +0.076 C 
ATOM      7  C   UNL     1      36.505 -21.273 -17.244  0.00  0.00    +0.008 C 
ATOM      8  C   UNL     1      34.172 -21.818 -17.551  0.00  0.00    +0.008 C 
BRANCH   6  10
ATOM      9  O   UNL     1      34.453 -22.681 -14.725  0.00  0.00    -0.245 OA
ATOM     10  C   UNL     1      35.361 -22.672 -15.565  0.00  0.00    +0.348 C 
BRANCH  10  11
ATOM     11  O   UNL     1      36.510 -23.392 -15.423  0.00  0.00    -0.368 OA
BRANCH  11  12
ATOM     12  P   UNL     1      36.738 -24.613 -14.387  0.00  0.00    +0.530 P 
ATOM     13  O   UNL     1      37.146 -24.198 -13.003  0.00  0.00    -0.216 OA
BRANCH  12  14
ATOM     14  O   UNL     1      37.782 -25.576 -15.158  0.00  0.00    -0.293 OA
ATOM     15  H   UNL     1      38.690 -25.302 -14.950  0.00  0.00    +0.223 HD
ENDBRANCH  12  14
BRANCH  12  16
ATOM     16  O   UNL     1      35.344 -25.427 -14.474  0.00  0.00    -0.293 OA
ATOM     17  H   UNL     1      35.293 -26.058 -13.739  0.00  0.00    +0.223 HD
ENDBRANCH  12  16
ENDBRANCH  11  12
ENDBRANCH  10  11
ENDBRANCH   6  10
ENDBRANCH   1   3
BRANCH   1  18
ATOM     18  C   UNL     1      36.332 -18.762 -20.750  0.00  0.00    +0.145 C 
BRANCH  18  25
ATOM     19  O   UNL     1      34.104 -18.199 -25.119  0.00  0.00    -0.206 OA
ATOM     20  N   UNL     1      35.218 -17.873 -22.713  0.00  0.00    -0.391 NA
ATOM     21  N   UNL     1      34.169 -14.494 -23.617  0.00  0.00    -0.259 N 
ATOM     22  N   UNL     1      35.274 -15.282 -21.635  0.00  0.00    -0.246 NA
ATOM     23  N   UNL     1      33.576 -15.977 -25.385  0.00  0.00    -0.300 NA
ATOM     24  N   UNL     1      33.114 -13.681 -25.486  0.00  0.00    -0.320 N 
ATOM     25  C   UNL     1      35.757 -17.617 -21.507  0.00  0.00    +0.132 C 
ATOM     26  C   UNL     1      34.709 -16.805 -23.360  0.00  0.00    +0.255 C 
ATOM     27  C   UNL     1      34.728 -15.519 -22.847  0.00  0.00    +0.173 C 
ATOM     28  C   UNL     1      35.785 -16.344 -20.979  0.00  0.00    +0.183 C 
ATOM     29  C   UNL     1      34.108 -17.050 -24.690  0.00  0.00    +0.240 C 
ATOM     30  C   UNL     1      33.623 -14.785 -24.848  0.00  0.00    +0.249 C 
ATOM     31  H   UNL     1      34.166 -13.569 -23.281  0.00  0.00    +0.157 HD
ATOM     32  H   UNL     1      33.165 -12.796 -25.057  0.00  0.00    +0.146 HD
ATOM     33  H   UNL     1      32.699 -13.773 -26.375  0.00  0.00    +0.146 HD
ENDBRANCH  18  25
ENDBRANCH   1  18
TORSDOF 8
ENDMDL
MODEL 9
REMARK VINA RESULT:     -10.4      4.324     10.222
REMARK  Name = 656948
REMARK  8 active torsions:
REMARK  status: ('A' for Active; 'I' for Inactive)
REMARK    1  A    between atoms: N_1  and  C_3
REMARK    2  A    between atoms: N_1  and  C_18
REMARK    3  A    between atoms: C_6  and  C_10
REMARK    4  A    between atoms: C_10  and  O_11
REMARK    5  A    between atoms: O_11  and  P_12
REMARK    6  A    between atoms: P_12  and  O_14
REMARK    7  A    between atoms: P_12  and  O_16
REMARK    8  A    between atoms: C_18  and  C_25
REMARK                            x       y       z     vdW  Elec       q    Type
REMARK                         _______ _______ _______ _____ _____    ______ ____
ROOT
ATOM      1  N   UNL     1      36.038 -17.373 -20.458  0.00  0.00    -0.327 N 
ATOM      2  H   UNL     1      36.667 -17.338 -19.702  0.00  0.00    +0.147 HD
ENDROOT
BRANCH   1   3
ATOM      3  C   UNL     1      35.467 -16.188 -20.888  0.00  0.00    +0.045 C 
ATOM      4  C   UNL     1      35.380 -15.882 -22.260  0.00  0.00    +0.015 C 
ATOM      5  C   UNL     1      34.957 -15.253 -19.966  0.00  0.00    +0.015 C 
ATOM      6  C   UNL     1      34.306 -13.776 -21.763  0.00  0.00    +0.076 C 
ATOM      7  C   UNL     1      34.805 -14.688 -22.693  0.00  0.00    +0.008 C 
ATOM      8  C   UNL     1      34.382 -14.059 -20.400  0.00  0.00    +0.008 C 
BRANCH   6  10
ATOM      9  O   UNL     1      32.525 -12.206 -22.039  0.00  0.00    -0.245 OA
ATOM     10  C   UNL     1      33.706 -12.531 -22.215  0.00  0.00    +0.348 C 
BRANCH  10  11
ATOM     11  O   UNL     1      34.603 -11.741 -22.871  0.00  0.00    -0.368 OA
BRANCH  11  12
ATOM     12  P   UNL     1      34.237 -10.495 -23.835  0.00  0.00    +0.530 P 
ATOM     13  O   UNL     1      33.804 -10.877 -25.222  0.00  0.00    -0.216 OA
BRANCH  12  14
ATOM     14  O   UNL     1      35.547  -9.552 -23.753  0.00  0.00    -0.293 OA
ATOM     15  H   UNL     1      35.282  -8.650 -23.513  0.00  0.00    +0.223 HD
ENDBRANCH  12  14
BRANCH  12  16
ATOM     16  O   UNL     1      33.135  -9.682 -22.975  0.00  0.00    -0.293 OA
ATOM     17  H   UNL     1      32.674 -10.295 -22.381  0.00  0.00    +0.223 HD
ENDBRANCH  12  16
ENDBRANCH  11  12
ENDBRANCH  10  11
ENDBRANCH   6  10
ENDBRANCH   1   3
BRANCH   1  18
ATOM     18  C   UNL     1      35.759 -18.661 -21.059  0.00  0.00    +0.145 C 
BRANCH  18  25
ATOM     19  O   UNL     1      36.603 -21.598 -17.183  0.00  0.00    -0.206 OA
ATOM     20  N   UNL     1      35.539 -20.180 -19.181  0.00  0.00    -0.391 NA
ATOM     21  N   UNL     1      32.641 -21.812 -17.674  0.00  0.00    -0.259 N 
ATOM     22  N   UNL     1      32.759 -20.312 -19.546  0.00  0.00    -0.246 NA
ATOM     23  N   UNL     1      34.594 -22.464 -16.476  0.00  0.00    -0.300 NA
ATOM     24  N   UNL     1      32.463 -23.250 -15.893  0.00  0.00    -0.320 N 
ATOM     25  C   UNL     1      34.918 -19.498 -20.161  0.00  0.00    +0.132 C 
ATOM     26  C   UNL     1      34.736 -20.924 -18.394  0.00  0.00    +0.255 C 
ATOM     27  C   UNL     1      33.363 -21.004 -18.557  0.00  0.00    +0.173 C 
ATOM     28  C   UNL     1      33.553 -19.564 -20.340  0.00  0.00    +0.183 C 
ATOM     29  C   UNL     1      35.385 -21.688 -17.305  0.00  0.00    +0.240 C 
ATOM     30  C   UNL     1      33.302 -22.500 -16.680  0.00  0.00    +0.249 C 
ATOM     31  H   UNL     1      31.663 -21.890 -17.763  0.00  0.00    +0.157 HD
ATOM     32  H   UNL     1      31.494 -23.256 -16.073  0.00  0.00    +0.146 HD
ATOM     33  H   UNL     1      32.829 -23.782 -15.151  0.00  0.00    +0.146 HD
ENDBRANCH  18  25
ENDBRANCH   1  18
TORSDOF 8
ENDMDL
