MODEL 1
REMARK VINA RESULT:     -12.1      0.000      0.000
REMARK  Name = 97226
REMARK  3 active torsions:
REMARK  status: ('A' for Active; 'I' for Inactive)
REMARK    1  A    between atoms: C_6  and  O_24
REMARK    2  A    between atoms: C_6  and  C_28
REMARK    3  A    between atoms: C_22  and  O_26
REMARK                            x       y       z     vdW  Elec       q    Type
REMARK                         _______ _______ _______ _____ _____    ______ ____
ROOT
ATOM      1  O   UNL     1      36.097 -24.803 -13.243  0.00  0.00    -0.442 OA
ATOM      2  O   UNL     1      32.859 -23.462 -15.615  0.00  0.00    -0.270 OA
ATOM      3  O   UNL     1      38.328 -25.045 -13.184  0.00  0.00    -0.247 OA
ATOM      4  N   UNL     1      34.268 -22.145 -16.890  0.00  0.00    -0.249 N 
ATOM      5  N   UNL     1      36.463 -20.061 -18.835  0.00  0.00    -0.405 NA
ATOM      6  C   UNL     1      37.490 -23.037 -14.233  0.00  0.00    +0.196 C 
ATOM      7  C   UNL     1      36.347 -22.758 -15.170  0.00  0.00    +0.017 C 
ATOM      8  C   UNL     1      35.523 -21.602 -17.110  0.00  0.00    +0.084 C 
ATOM      9  C   UNL     1      35.134 -23.286 -14.925  0.00  0.00    +0.074 C 
ATOM     10  C   UNL     1      33.307 -21.693 -17.917  0.00  0.00    +0.128 C 
ATOM     11  C   UNL     1      36.553 -21.867 -16.302  0.00  0.00    +0.016 C 
ATOM     12  C   UNL     1      34.153 -20.811 -18.775  0.00  0.00    +0.029 C 
ATOM     13  C   UNL     1      35.454 -20.760 -18.296  0.00  0.00    +0.142 C 
ATOM     14  C   UNL     1      33.970 -22.985 -15.832  0.00  0.00    +0.252 C 
ATOM     15  C   UNL     1      34.901 -24.169 -13.747  0.00  0.00    +0.239 C 
ATOM     16  C   UNL     1      37.351 -24.381 -13.528  0.00  0.00    +0.346 C 
ATOM     17  C   UNL     1      33.841 -20.088 -19.901  0.00  0.00    +0.002 C 
ATOM     18  C   UNL     1      34.858 -19.335 -20.509  0.00  0.00    +0.029 C 
ATOM     19  C   UNL     1      36.162 -19.349 -19.939  0.00  0.00    +0.114 C 
ATOM     20  C   UNL     1      34.602 -18.575 -21.662  0.00  0.00    +0.038 C 
ATOM     21  C   UNL     1      37.154 -18.595 -20.560  0.00  0.00    +0.088 C 
ATOM     22  C   UNL     1      35.617 -17.831 -22.258  0.00  0.00    +0.130 C 
ATOM     23  C   UNL     1      36.892 -17.841 -21.707  0.00  0.00    +0.018 C 
ENDROOT
BRANCH   6  24
ATOM     24  O   UNL     1      38.706 -23.148 -14.977  0.00  0.00    -0.373 OA
ATOM     25  H   UNL     1      38.553 -23.691 -15.767  0.00  0.00    +0.211 HD
ENDBRANCH   6  24
BRANCH  22  26
ATOM     26  O   UNL     1      35.362 -17.099 -23.375  0.00  0.00    -0.506 OA
ATOM     27  H   UNL     1      35.447 -17.491 -24.222  0.00  0.00    +0.292 HD
ENDBRANCH  22  26
BRANCH   6  28
ATOM     28  C   UNL     1      37.647 -21.932 -13.187  0.00  0.00    +0.042 C 
ATOM     29  C   UNL     1      37.590 -22.494 -11.781  0.00  0.00    +0.003 C 
ENDBRANCH   6  28
TORSDOF 3
ENDMDL
MODEL 2
REMARK VINA RESULT:     -10.1      3.861      6.083
REMARK  Name = 97226
REMARK  3 active torsions:
REMARK  status: ('A' for Active; 'I' for Inactive)
REMARK    1  A    between atoms: C_6  and  O_24
REMARK    2  A    between atoms: C_6  and  C_28
REMARK    3  A    between atoms: C_22  and  O_26
REMARK                            x       y       z     vdW  Elec       q    Type
REMARK                         _______ _______ _______ _____ _____    ______ ____
ROOT
ATOM      1  O   UNL     1      39.145 -23.581 -12.639  0.00  0.00    -0.442 OA
ATOM      2  O   UNL     1      37.400 -22.052 -16.178  0.00  0.00    -0.270 OA
ATOM      3  O   UNL     1      38.733 -24.132 -10.501  0.00  0.00    -0.247 OA
ATOM      4  N   UNL     1      35.283 -22.625 -15.446  0.00  0.00    -0.249 N 
ATOM      5  N   UNL     1      31.999 -23.567 -14.319  0.00  0.00    -0.405 NA
ATOM      6  C   UNL     1      36.998 -24.648 -12.100  0.00  0.00    +0.196 C 
ATOM      7  C   UNL     1      36.415 -23.908 -13.272  0.00  0.00    +0.017 C 
ATOM      8  C   UNL     1      34.469 -23.261 -14.524  0.00  0.00    +0.084 C 
ATOM      9  C   UNL     1      37.230 -23.311 -14.161  0.00  0.00    +0.074 C 
ATOM     10  C   UNL     1      34.484 -22.007 -16.524  0.00  0.00    +0.128 C 
ATOM     11  C   UNL     1      34.973 -23.896 -13.463  0.00  0.00    +0.016 C 
ATOM     12  C   UNL     1      33.089 -22.358 -16.123  0.00  0.00    +0.029 C 
ATOM     13  C   UNL     1      33.085 -23.096 -14.948  0.00  0.00    +0.142 C 
ATOM     14  C   UNL     1      36.663 -22.598 -15.361  0.00  0.00    +0.252 C 
ATOM     15  C   UNL     1      38.711 -23.349 -13.996  0.00  0.00    +0.239 C 
ATOM     16  C   UNL     1      38.349 -24.089 -11.669  0.00  0.00    +0.346 C 
ATOM     17  C   UNL     1      31.884 -22.071 -16.720  0.00  0.00    +0.002 C 
ATOM     18  C   UNL     1      30.711 -22.540 -16.107  0.00  0.00    +0.029 C 
ATOM     19  C   UNL     1      30.815 -23.289 -14.900  0.00  0.00    +0.114 C 
ATOM     20  C   UNL     1      29.451 -22.279 -16.667  0.00  0.00    +0.038 C 
ATOM     21  C   UNL     1      29.638 -23.743 -14.311  0.00  0.00    +0.088 C 
ATOM     22  C   UNL     1      28.293 -22.749 -16.051  0.00  0.00    +0.130 C 
ATOM     23  C   UNL     1      28.387 -23.479 -14.874  0.00  0.00    +0.018 C 
ENDROOT
BRANCH   6  24
ATOM     24  O   UNL     1      36.158 -24.476 -10.955  0.00  0.00    -0.373 OA
ATOM     25  H   UNL     1      35.238 -24.370 -11.243  0.00  0.00    +0.211 HD
ENDBRANCH   6  24
BRANCH  22  26
ATOM     26  O   UNL     1      27.076 -22.491 -16.600  0.00  0.00    -0.506 OA
ATOM     27  H   UNL     1      26.558 -21.778 -16.279  0.00  0.00    +0.292 HD
ENDBRANCH  22  26
BRANCH   6  28
ATOM     28  C   UNL     1      37.141 -26.144 -12.389  0.00  0.00    +0.042 C 
ATOM     29  C   UNL     1      37.567 -26.388 -13.823  0.00  0.00    +0.003 C 
ENDBRANCH   6  28
TORSDOF 3
ENDMDL
MODEL 3
REMARK VINA RESULT:     -10.0      2.227      4.361
REMARK  Name = 97226
REMARK  3 active torsions:
REMARK  status: ('A' for Active; 'I' for Inactive)
REMARK    1  A    between atoms: C_6  and  O_24
REMARK    2  A    between atoms: C_6  and  C_28
REMARK    3  A    between atoms: C_22  and  O_26
REMARK                            x       y       z     vdW  Elec       q    Type
REMARK                         _______ _______ _______ _____ _____    ______ ____
ROOT
ATOM      1  O   UNL     1      32.190 -24.213 -12.334  0.00  0.00    -0.442 OA
ATOM      2  O   UNL     1      36.001 -23.643 -14.084  0.00  0.00    -0.270 OA
ATOM      3  O   UNL     1      30.083 -23.437 -12.275  0.00  0.00    -0.247 OA
ATOM      4  N   UNL     1      35.074 -22.477 -15.852  0.00  0.00    -0.249 N 
ATOM      5  N   UNL     1      33.616 -20.706 -18.624  0.00  0.00    -0.405 NA
ATOM      6  C   UNL     1      31.166 -23.449 -14.434  0.00  0.00    +0.196 C 
ATOM      7  C   UNL     1      32.552 -23.097 -14.900  0.00  0.00    +0.017 C 
ATOM      8  C   UNL     1      33.954 -22.039 -16.540  0.00  0.00    +0.084 C 
ATOM      9  C   UNL     1      33.622 -23.547 -14.222  0.00  0.00    +0.074 C 
ATOM     10  C   UNL     1      36.315 -22.040 -16.525  0.00  0.00    +0.128 C 
ATOM     11  C   UNL     1      32.719 -22.320 -16.119  0.00  0.00    +0.016 C 
ATOM     12  C   UNL     1      35.788 -21.287 -17.702  0.00  0.00    +0.029 C 
ATOM     13  C   UNL     1      34.400 -21.291 -17.707  0.00  0.00    +0.142 C 
ATOM     14  C   UNL     1      35.017 -23.235 -14.697  0.00  0.00    +0.252 C 
ATOM     15  C   UNL     1      33.464 -24.376 -12.993  0.00  0.00    +0.239 C 
ATOM     16  C   UNL     1      31.097 -23.678 -12.929  0.00  0.00    +0.346 C 
ATOM     17  C   UNL     1      36.445 -20.634 -18.718  0.00  0.00    +0.002 C 
ATOM     18  C   UNL     1      35.675 -20.003 -19.708  0.00  0.00    +0.029 C 
ATOM     19  C   UNL     1      34.255 -20.064 -19.622  0.00  0.00    +0.114 C 
ATOM     20  C   UNL     1      36.287 -19.320 -20.771  0.00  0.00    +0.038 C 
ATOM     21  C   UNL     1      33.514 -19.431 -20.616  0.00  0.00    +0.088 C 
ATOM     22  C   UNL     1      35.515 -18.697 -21.748  0.00  0.00    +0.130 C 
ATOM     23  C   UNL     1      34.130 -18.752 -21.670  0.00  0.00    +0.018 C 
ENDROOT
BRANCH   6  24
ATOM     24  O   UNL     1      30.285 -22.348 -14.669  0.00  0.00    -0.373 OA
ATOM     25  H   UNL     1      30.802 -21.530 -14.745  0.00  0.00    +0.211 HD
ENDBRANCH   6  24
BRANCH  22  26
ATOM     26  O   UNL     1      36.116 -18.036 -22.774  0.00  0.00    -0.506 OA
ATOM     27  H   UNL     1      36.882 -17.521 -22.615  0.00  0.00    +0.292 HD
ENDBRANCH  22  26
BRANCH   6  28
ATOM     28  C   UNL     1      30.621 -24.683 -15.157  0.00  0.00    +0.042 C 
ATOM     29  C   UNL     1      29.205 -24.454 -15.644  0.00  0.00    +0.003 C 
ENDBRANCH   6  28
TORSDOF 3
ENDMDL
