MODEL 1
REMARK VINA RESULT:     -11.1      0.000      0.000
REMARK  Name = 1150567
REMARK  6 active torsions:
REMARK  status: ('A' for Active; 'I' for Inactive)
REMARK    1  A    between atoms: C_1  and  C_3
REMARK    2  A    between atoms: C_1  and  C_17
REMARK    3  A    between atoms: C_10  and  O_12
REMARK    4  A    between atoms: C_11  and  O_14
REMARK    5  A    between atoms: N_16  and  C_23
REMARK    6  A    between atoms: C_23  and  C_24
REMARK                            x       y       z     vdW  Elec       q    Type
REMARK                         _______ _______ _______ _____ _____    ______ ____
ROOT
ATOM      1  C   UNL     1      35.192 -19.038 -22.269  0.00  0.00    +0.008 C 
ENDROOT
BRANCH   1   3
ATOM      2  O   UNL     1      32.688 -19.656 -20.696  0.00  0.00    -0.291 OA
ATOM      3  C   UNL     1      35.000 -18.855 -20.775  0.00  0.00    +0.066 C 
ATOM      4  C   UNL     1      36.215 -19.349 -19.955  0.00  0.00    +0.034 C 
ATOM      5  C   UNL     1      33.828 -19.675 -20.266  0.00  0.00    +0.173 C 
ATOM      6  C   UNL     1      35.626 -20.308 -18.971  0.00  0.00    -0.016 C 
ATOM      7  C   UNL     1      34.263 -20.504 -19.154  0.00  0.00    +0.034 C 
ATOM      8  C   UNL     1      36.288 -20.990 -17.962  0.00  0.00    +0.036 C 
ATOM      9  C   UNL     1      33.513 -21.359 -18.370  0.00  0.00    +0.043 C 
ATOM     10  C   UNL     1      35.555 -21.862 -17.150  0.00  0.00    +0.172 C 
ATOM     11  C   UNL     1      34.178 -22.046 -17.353  0.00  0.00    +0.172 C 
BRANCH  10  12
ATOM     12  O   UNL     1      36.198 -22.538 -16.155  0.00  0.00    -0.468 OA
ATOM     13  C   UNL     1      37.266 -21.861 -15.498  0.00  0.00    +0.253 C 
ENDBRANCH  10  12
BRANCH  11  14
ATOM     14  O   UNL     1      33.475 -22.900 -16.556  0.00  0.00    -0.468 OA
ATOM     15  C   UNL     1      32.171 -22.486 -16.154  0.00  0.00    +0.253 C 
ENDBRANCH  11  14
ENDBRANCH   1   3
BRANCH   1  17
ATOM     16  N   UNL     1      34.272 -15.059 -23.673  0.00  0.00    +0.390 N 
ATOM     17  C   UNL     1      35.346 -17.697 -22.979  0.00  0.00    -0.004 C 
ATOM     18  C   UNL     1      34.255 -17.505 -24.038  0.00  0.00    -0.023 C 
ATOM     19  C   UNL     1      35.306 -16.536 -21.980  0.00  0.00    -0.023 C 
ATOM     20  C   UNL     1      34.343 -16.121 -24.684  0.00  0.00    -0.077 C 
ATOM     21  C   UNL     1      35.360 -15.184 -22.694  0.00  0.00    -0.077 C 
ATOM     22  H   UNL     1      33.387 -15.157 -23.175  0.00  0.00    -0.079 HD
BRANCH  16  23
ATOM     23  C   UNL     1      34.305 -13.742 -24.310  0.00  0.00    -0.050 C 
BRANCH  23  24
ATOM     24  C   UNL     1      33.729 -12.674 -23.420  0.00  0.00    -0.043 C 
ATOM     25  C   UNL     1      34.030 -11.341 -23.670  0.00  0.00    -0.006 C 
ATOM     26  C   UNL     1      32.907 -13.034 -22.362  0.00  0.00    -0.006 C 
ATOM     27  C   UNL     1      33.497 -10.350 -22.845  0.00  0.00    -0.000 C 
ATOM     28  C   UNL     1      32.373 -12.042 -21.537  0.00  0.00    -0.000 C 
ATOM     29  C   UNL     1      32.669 -10.700 -21.780  0.00  0.00    -0.000 C 
ENDBRANCH  23  24
ENDBRANCH  16  23
ENDBRANCH   1  17
TORSDOF 6
ENDMDL
MODEL 2
REMARK VINA RESULT:     -10.9      2.540      4.482
REMARK  Name = 1150567
REMARK  6 active torsions:
REMARK  status: ('A' for Active; 'I' for Inactive)
REMARK    1  A    between atoms: C_1  and  C_3
REMARK    2  A    between atoms: C_1  and  C_17
REMARK    3  A    between atoms: C_10  and  O_12
REMARK    4  A    between atoms: C_11  and  O_14
REMARK    5  A    between atoms: N_16  and  C_23
REMARK    6  A    between atoms: C_23  and  C_24
REMARK                            x       y       z     vdW  Elec       q    Type
REMARK                         _______ _______ _______ _____ _____    ______ ____
ROOT
ATOM      1  C   UNL     1      34.565 -22.177 -18.779  0.00  0.00    +0.008 C 
ENDROOT
BRANCH   1   3
ATOM      2  O   UNL     1      31.904 -21.998 -17.360  0.00  0.00    -0.291 OA
ATOM      3  C   UNL     1      34.314 -21.568 -17.413  0.00  0.00    +0.066 C 
ATOM      4  C   UNL     1      35.384 -21.976 -16.375  0.00  0.00    +0.034 C 
ATOM      5  C   UNL     1      32.999 -22.051 -16.828  0.00  0.00    +0.173 C 
ATOM      6  C   UNL     1      34.594 -22.540 -15.238  0.00  0.00    -0.016 C 
ATOM      7  C   UNL     1      33.231 -22.594 -15.499  0.00  0.00    +0.034 C 
ATOM      8  C   UNL     1      35.079 -23.003 -14.025  0.00  0.00    +0.036 C 
ATOM      9  C   UNL     1      32.310 -23.093 -14.598  0.00  0.00    +0.043 C 
ATOM     10  C   UNL     1      34.171 -23.512 -13.090  0.00  0.00    +0.172 C 
ATOM     11  C   UNL     1      32.797 -23.558 -13.375  0.00  0.00    +0.172 C 
BRANCH  10  12
ATOM     12  O   UNL     1      34.638 -23.970 -11.894  0.00  0.00    -0.468 OA
ATOM     13  C   UNL     1      35.933 -23.529 -11.493  0.00  0.00    +0.253 C 
ENDBRANCH  10  12
BRANCH  11  14
ATOM     14  O   UNL     1      31.922 -24.059 -12.457  0.00  0.00    -0.468 OA
ATOM     15  C   UNL     1      30.570 -24.227 -12.876  0.00  0.00    +0.253 C 
ENDBRANCH  11  14
ENDBRANCH   1   3
BRANCH   1  17
ATOM     16  N   UNL     1      35.856 -18.379 -20.380  0.00  0.00    +0.390 N 
ATOM     17  C   UNL     1      35.149 -21.153 -19.748  0.00  0.00    -0.004 C 
ATOM     18  C   UNL     1      34.102 -20.107 -20.142  0.00  0.00    -0.023 C 
ATOM     19  C   UNL     1      36.373 -20.457 -19.142  0.00  0.00    -0.023 C 
ATOM     20  C   UNL     1      34.708 -19.020 -21.033  0.00  0.00    -0.077 C 
ATOM     21  C   UNL     1      36.904 -19.360 -20.065  0.00  0.00    -0.077 C 
ATOM     22  H   UNL     1      35.532 -17.972 -19.502  0.00  0.00    -0.079 HD
BRANCH  16  23
ATOM     23  C   UNL     1      36.392 -17.309 -21.221  0.00  0.00    -0.050 C 
BRANCH  23  24
ATOM     24  C   UNL     1      35.551 -16.063 -21.148  0.00  0.00    -0.043 C 
ATOM     25  C   UNL     1      35.315 -15.330 -22.304  0.00  0.00    -0.006 C 
ATOM     26  C   UNL     1      35.025 -15.662 -19.929  0.00  0.00    -0.006 C 
ATOM     27  C   UNL     1      34.536 -14.175 -22.239  0.00  0.00    -0.000 C 
ATOM     28  C   UNL     1      34.245 -14.506 -19.863  0.00  0.00    -0.000 C 
ATOM     29  C   UNL     1      34.001 -13.764 -21.019  0.00  0.00    -0.000 C 
ENDBRANCH  23  24
ENDBRANCH  16  23
ENDBRANCH   1  17
TORSDOF 6
ENDMDL
MODEL 3
REMARK VINA RESULT:     -10.9      2.603      4.989
REMARK  Name = 1150567
REMARK  6 active torsions:
REMARK  status: ('A' for Active; 'I' for Inactive)
REMARK    1  A    between atoms: C_1  and  C_3
REMARK    2  A    between atoms: C_1  and  C_17
REMARK    3  A    between atoms: C_10  and  O_12
REMARK    4  A    between atoms: C_11  and  O_14
REMARK    5  A    between atoms: N_16  and  C_23
REMARK    6  A    between atoms: C_23  and  C_24
REMARK                            x       y       z     vdW  Elec       q    Type
REMARK                         _______ _______ _______ _____ _____    ______ ____
ROOT
ATOM      1  C   UNL     1      34.551 -22.100 -18.115  0.00  0.00    +0.008 C 
ENDROOT
BRANCH   1   3
ATOM      2  O   UNL     1      33.217 -22.667 -15.465  0.00  0.00    -0.291 OA
ATOM      3  C   UNL     1      34.994 -21.588 -16.758  0.00  0.00    +0.066 C 
ATOM      4  C   UNL     1      36.524 -21.688 -16.555  0.00  0.00    +0.034 C 
ATOM      5  C   UNL     1      34.397 -22.417 -15.635  0.00  0.00    +0.173 C 
ATOM      6  C   UNL     1      36.674 -22.453 -15.278  0.00  0.00    -0.016 C 
ATOM      7  C   UNL     1      35.460 -22.880 -14.756  0.00  0.00    +0.034 C 
ATOM      8  C   UNL     1      37.853 -22.767 -14.621  0.00  0.00    +0.036 C 
ATOM      9  C   UNL     1      35.358 -23.617 -13.591  0.00  0.00    +0.043 C 
ATOM     10  C   UNL     1      37.782 -23.511 -13.438  0.00  0.00    +0.172 C 
ATOM     11  C   UNL     1      36.543 -23.933 -12.927  0.00  0.00    +0.172 C 
BRANCH  10  12
ATOM     12  O   UNL     1      38.936 -23.826 -12.783  0.00  0.00    -0.468 OA
ATOM     13  C   UNL     1      39.669 -24.948 -13.268  0.00  0.00    +0.253 C 
ENDBRANCH  10  12
BRANCH  11  14
ATOM     14  O   UNL     1      36.488 -24.659 -11.775  0.00  0.00    -0.468 OA
ATOM     15  C   UNL     1      36.094 -23.966 -10.592  0.00  0.00    +0.253 C 
ENDBRANCH  11  14
ENDBRANCH   1   3
BRANCH   1  17
ATOM     16  N   UNL     1      35.807 -18.568 -20.260  0.00  0.00    +0.390 N 
ATOM     17  C   UNL     1      35.081 -21.220 -19.243  0.00  0.00    -0.004 C 
ATOM     18  C   UNL     1      34.033 -20.191 -19.679  0.00  0.00    -0.023 C 
ATOM     19  C   UNL     1      36.368 -20.502 -18.823  0.00  0.00    -0.023 C 
ATOM     20  C   UNL     1      34.594 -19.241 -20.739  0.00  0.00    -0.077 C 
ATOM     21  C   UNL     1      36.852 -19.542 -19.911  0.00  0.00    -0.077 C 
ATOM     22  H   UNL     1      35.567 -18.049 -19.416  0.00  0.00    -0.079 HD
BRANCH  16  23
ATOM     23  C   UNL     1      36.301 -17.626 -21.264  0.00  0.00    -0.050 C 
BRANCH  23  24
ATOM     24  C   UNL     1      35.576 -16.308 -21.202  0.00  0.00    -0.043 C 
ATOM     25  C   UNL     1      35.320 -15.614 -22.378  0.00  0.00    -0.006 C 
ATOM     26  C   UNL     1      35.176 -15.804 -19.973  0.00  0.00    -0.006 C 
ATOM     27  C   UNL     1      34.648 -14.393 -22.322  0.00  0.00    -0.000 C 
ATOM     28  C   UNL     1      34.503 -14.582 -19.918  0.00  0.00    -0.000 C 
ATOM     29  C   UNL     1      34.240 -13.877 -21.092  0.00  0.00    -0.000 C 
ENDBRANCH  23  24
ENDBRANCH  16  23
ENDBRANCH   1  17
TORSDOF 6
ENDMDL
MODEL 4
REMARK VINA RESULT:     -10.7      2.895      5.398
REMARK  Name = 1150567
REMARK  6 active torsions:
REMARK  status: ('A' for Active; 'I' for Inactive)
REMARK    1  A    between atoms: C_1  and  C_3
REMARK    2  A    between atoms: C_1  and  C_17
REMARK    3  A    between atoms: C_10  and  O_12
REMARK    4  A    between atoms: C_11  and  O_14
REMARK    5  A    between atoms: N_16  and  C_23
REMARK    6  A    between atoms: C_23  and  C_24
REMARK                            x       y       z     vdW  Elec       q    Type
REMARK                         _______ _______ _______ _____ _____    ______ ____
ROOT
ATOM      1  C   UNL     1      35.063 -21.651 -18.115  0.00  0.00    +0.008 C 
ENDROOT
BRANCH   1   3
ATOM      2  O   UNL     1      33.805 -23.472 -16.059  0.00  0.00    -0.291 OA
ATOM      3  C   UNL     1      35.294 -21.610 -16.617  0.00  0.00    +0.066 C 
ATOM      4  C   UNL     1      36.786 -21.432 -16.250  0.00  0.00    +0.034 C 
ATOM      5  C   UNL     1      34.885 -22.917 -15.961  0.00  0.00    +0.173 C 
ATOM      6  C   UNL     1      37.073 -22.570 -15.324  0.00  0.00    -0.016 C 
ATOM      7  C   UNL     1      35.991 -23.426 -15.166  0.00  0.00    +0.034 C 
ATOM      8  C   UNL     1      38.262 -22.837 -14.663  0.00  0.00    +0.036 C 
ATOM      9  C   UNL     1      36.033 -24.554 -14.368  0.00  0.00    +0.043 C 
ATOM     10  C   UNL     1      38.335 -23.970 -13.847  0.00  0.00    +0.172 C 
ATOM     11  C   UNL     1      37.228 -24.823 -13.701  0.00  0.00    +0.172 C 
BRANCH  10  12
ATOM     12  O   UNL     1      39.500 -24.242 -13.192  0.00  0.00    -0.468 OA
ATOM     13  C   UNL     1      40.494 -24.965 -13.914  0.00  0.00    +0.253 C 
ENDBRANCH  10  12
BRANCH  11  14
ATOM     14  O   UNL     1      37.313 -25.926 -12.904  0.00  0.00    -0.468 OA
ATOM     15  C   UNL     1      37.436 -25.702 -11.501  0.00  0.00    +0.253 C 
ENDBRANCH  11  14
ENDBRANCH   1   3
BRANCH   1  17
ATOM     16  N   UNL     1      35.936 -18.738 -21.182  0.00  0.00    +0.390 N 
ATOM     17  C   UNL     1      35.402 -20.315 -18.769  0.00  0.00    -0.004 C 
ATOM     18  C   UNL     1      36.732 -20.392 -19.524  0.00  0.00    -0.023 C 
ATOM     19  C   UNL     1      34.289 -19.871 -19.725  0.00  0.00    -0.023 C 
ATOM     20  C   UNL     1      37.029 -19.087 -20.266  0.00  0.00    -0.077 C 
ATOM     21  C   UNL     1      34.666 -18.583 -20.459  0.00  0.00    -0.077 C 
ATOM     22  H   UNL     1      35.828 -19.502 -21.848  0.00  0.00    -0.079 HD
BRANCH  16  23
ATOM     23  C   UNL     1      36.257 -17.516 -21.920  0.00  0.00    -0.050 C 
BRANCH  23  24
ATOM     24  C   UNL     1      35.298 -17.279 -23.056  0.00  0.00    -0.043 C 
ATOM     25  C   UNL     1      35.060 -15.981 -23.489  0.00  0.00    -0.006 C 
ATOM     26  C   UNL     1      34.664 -18.359 -23.654  0.00  0.00    -0.006 C 
ATOM     27  C   UNL     1      34.171 -15.760 -24.541  0.00  0.00    -0.000 C 
ATOM     28  C   UNL     1      33.775 -18.137 -24.707  0.00  0.00    -0.000 C 
ATOM     29  C   UNL     1      33.530 -16.837 -25.150  0.00  0.00    -0.000 C 
ENDBRANCH  23  24
ENDBRANCH  16  23
ENDBRANCH   1  17
TORSDOF 6
ENDMDL
MODEL 5
REMARK VINA RESULT:     -10.5      1.989      3.855
REMARK  Name = 1150567
REMARK  6 active torsions:
REMARK  status: ('A' for Active; 'I' for Inactive)
REMARK    1  A    between atoms: C_1  and  C_3
REMARK    2  A    between atoms: C_1  and  C_17
REMARK    3  A    between atoms: C_10  and  O_12
REMARK    4  A    between atoms: C_11  and  O_14
REMARK    5  A    between atoms: N_16  and  C_23
REMARK    6  A    between atoms: C_23  and  C_24
REMARK                            x       y       z     vdW  Elec       q    Type
REMARK                         _______ _______ _______ _____ _____    ______ ____
ROOT
ATOM      1  C   UNL     1      36.449 -19.770 -18.740  0.00  0.00    +0.008 C 
ENDROOT
BRANCH   1   3
ATOM      2  O   UNL     1      37.474 -21.472 -16.465  0.00  0.00    -0.291 OA
ATOM      3  C   UNL     1      36.038 -21.196 -18.429  0.00  0.00    +0.066 C 
ATOM      4  C   UNL     1      34.510 -21.411 -18.537  0.00  0.00    +0.034 C 
ATOM      5  C   UNL     1      36.382 -21.568 -16.997  0.00  0.00    +0.173 C 
ATOM      6  C   UNL     1      34.129 -22.000 -17.217  0.00  0.00    -0.016 C 
ATOM      7  C   UNL     1      35.196 -22.080 -16.331  0.00  0.00    +0.034 C 
ATOM      8  C   UNL     1      32.873 -22.430 -16.819  0.00  0.00    +0.036 C 
ATOM      9  C   UNL     1      35.073 -22.577 -15.047  0.00  0.00    +0.043 C 
ATOM     10  C   UNL     1      32.717 -22.940 -15.526  0.00  0.00    +0.172 C 
ATOM     11  C   UNL     1      33.810 -23.012 -14.646  0.00  0.00    +0.172 C 
BRANCH  10  12
ATOM     12  O   UNL     1      31.485 -23.365 -15.125  0.00  0.00    -0.468 OA
ATOM     13  C   UNL     1      30.553 -22.363 -14.726  0.00  0.00    +0.253 C 
ENDBRANCH  10  12
BRANCH  11  14
ATOM     14  O   UNL     1      33.644 -23.508 -13.387  0.00  0.00    -0.468 OA
ATOM     15  C   UNL     1      34.790 -23.514 -12.538  0.00  0.00    +0.253 C 
ENDBRANCH  11  14
ENDBRANCH   1   3
BRANCH   1  17
ATOM     16  N   UNL     1      35.335 -17.479 -22.228  0.00  0.00    +0.390 N 
ATOM     17  C   UNL     1      36.184 -19.420 -20.201  0.00  0.00    -0.004 C 
ATOM     18  C   UNL     1      34.714 -19.051 -20.422  0.00  0.00    -0.023 C 
ATOM     19  C   UNL     1      37.082 -18.266 -20.662  0.00  0.00    -0.023 C 
ATOM     20  C   UNL     1      34.463 -18.601 -21.863  0.00  0.00    -0.077 C 
ATOM     21  C   UNL     1      36.753 -17.843 -22.096  0.00  0.00    -0.077 C 
ATOM     22  H   UNL     1      35.147 -16.711 -21.583  0.00  0.00    -0.079 HD
BRANCH  16  23
ATOM     23  C   UNL     1      35.048 -17.027 -23.589  0.00  0.00    -0.050 C 
BRANCH  23  24
ATOM     24  C   UNL     1      34.626 -15.582 -23.624  0.00  0.00    -0.043 C 
ATOM     25  C   UNL     1      33.903 -15.109 -24.711  0.00  0.00    -0.006 C 
ATOM     26  C   UNL     1      34.966 -14.744 -22.572  0.00  0.00    -0.006 C 
ATOM     27  C   UNL     1      33.512 -13.770 -24.745  0.00  0.00    -0.000 C 
ATOM     28  C   UNL     1      34.574 -13.405 -22.605  0.00  0.00    -0.000 C 
ATOM     29  C   UNL     1      33.847 -12.919 -23.693  0.00  0.00    -0.000 C 
ENDBRANCH  23  24
ENDBRANCH  16  23
ENDBRANCH   1  17
TORSDOF 6
ENDMDL
MODEL 6
REMARK VINA RESULT:     -10.4      1.638      2.945
REMARK  Name = 1150567
REMARK  6 active torsions:
REMARK  status: ('A' for Active; 'I' for Inactive)
REMARK    1  A    between atoms: C_1  and  C_3
REMARK    2  A    between atoms: C_1  and  C_17
REMARK    3  A    between atoms: C_10  and  O_12
REMARK    4  A    between atoms: C_11  and  O_14
REMARK    5  A    between atoms: N_16  and  C_23
REMARK    6  A    between atoms: C_23  and  C_24
REMARK                            x       y       z     vdW  Elec       q    Type
REMARK                         _______ _______ _______ _____ _____    ______ ____
ROOT
ATOM      1  C   UNL     1      36.074 -16.909 -21.057  0.00  0.00    +0.008 C 
ENDROOT
BRANCH   1   3
ATOM      2  O   UNL     1      37.703 -19.210 -19.974  0.00  0.00    -0.291 OA
ATOM      3  C   UNL     1      35.754 -18.384 -21.204  0.00  0.00    +0.066 C 
ATOM      4  C   UNL     1      34.260 -18.696 -20.954  0.00  0.00    +0.034 C 
ATOM      5  C   UNL     1      36.502 -19.214 -20.176  0.00  0.00    +0.173 C 
ATOM      6  C   UNL     1      34.279 -19.759 -19.903  0.00  0.00    -0.016 C 
ATOM      7  C   UNL     1      35.559 -20.049 -19.448  0.00  0.00    +0.034 C 
ATOM      8  C   UNL     1      33.191 -20.427 -19.363  0.00  0.00    +0.036 C 
ATOM      9  C   UNL     1      35.816 -20.987 -18.467  0.00  0.00    +0.043 C 
ATOM     10  C   UNL     1      33.419 -21.384 -18.369  0.00  0.00    +0.172 C 
ATOM     11  C   UNL     1      34.722 -21.662 -17.924  0.00  0.00    +0.172 C 
BRANCH  10  12
ATOM     12  O   UNL     1      32.355 -22.047 -17.831  0.00  0.00    -0.468 OA
ATOM     13  C   UNL     1      32.225 -22.017 -16.412  0.00  0.00    +0.253 C 
ENDBRANCH  10  12
BRANCH  11  14
ATOM     14  O   UNL     1      34.930 -22.596 -16.952  0.00  0.00    -0.468 OA
ATOM     15  C   UNL     1      35.718 -22.199 -15.832  0.00  0.00    +0.253 C 
ENDBRANCH  11  14
ENDBRANCH   1   3
BRANCH   1  17
ATOM     16  N   UNL     1      34.349 -13.596 -23.225  0.00  0.00    +0.390 N 
ATOM     17  C   UNL     1      35.035 -16.040 -21.759  0.00  0.00    -0.004 C 
ATOM     18  C   UNL     1      34.898 -14.679 -21.070  0.00  0.00    -0.023 C 
ATOM     19  C   UNL     1      35.392 -15.839 -23.236  0.00  0.00    -0.023 C 
ATOM     20  C   UNL     1      33.932 -13.766 -21.828  0.00  0.00    -0.077 C 
ATOM     21  C   UNL     1      34.410 -14.888 -23.923  0.00  0.00    -0.077 C 
ATOM     22  H   UNL     1      35.286 -13.193 -23.227  0.00  0.00    -0.079 HD
BRANCH  16  23
ATOM     23  C   UNL     1      33.446 -12.680 -23.922  0.00  0.00    -0.050 C 
BRANCH  23  24
ATOM     24  C   UNL     1      34.100 -11.354 -24.207  0.00  0.00    -0.043 C 
ATOM     25  C   UNL     1      34.581 -11.090 -25.482  0.00  0.00    -0.006 C 
ATOM     26  C   UNL     1      34.215 -10.416 -23.192  0.00  0.00    -0.006 C 
ATOM     27  C   UNL     1      35.188  -9.862 -25.747  0.00  0.00    -0.000 C 
ATOM     28  C   UNL     1      34.821  -9.187 -23.457  0.00  0.00    -0.000 C 
ATOM     29  C   UNL     1      35.308  -8.911 -24.735  0.00  0.00    -0.000 C 
ENDBRANCH  23  24
ENDBRANCH  16  23
ENDBRANCH   1  17
TORSDOF 6
ENDMDL
MODEL 7
REMARK VINA RESULT:     -10.3      4.147      9.525
REMARK  Name = 1150567
REMARK  6 active torsions:
REMARK  status: ('A' for Active; 'I' for Inactive)
REMARK    1  A    between atoms: C_1  and  C_3
REMARK    2  A    between atoms: C_1  and  C_17
REMARK    3  A    between atoms: C_10  and  O_12
REMARK    4  A    between atoms: C_11  and  O_14
REMARK    5  A    between atoms: N_16  and  C_23
REMARK    6  A    between atoms: C_23  and  C_24
REMARK                            x       y       z     vdW  Elec       q    Type
REMARK                         _______ _______ _______ _____ _____    ______ ____
ROOT
ATOM      1  C   UNL     1      34.546 -14.911 -23.223  0.00  0.00    +0.008 C 
ENDROOT
BRANCH   1   3
ATOM      2  O   UNL     1      34.659 -12.026 -24.110  0.00  0.00    -0.291 OA
ATOM      3  C   UNL     1      34.734 -13.702 -22.327  0.00  0.00    +0.066 C 
ATOM      4  C   UNL     1      33.877 -13.775 -21.043  0.00  0.00    +0.034 C 
ATOM      5  C   UNL     1      34.288 -12.428 -23.022  0.00  0.00    +0.173 C 
ATOM      6  C   UNL     1      33.109 -12.492 -21.042  0.00  0.00    -0.016 C 
ATOM      7  C   UNL     1      33.335 -11.725 -22.178  0.00  0.00    +0.034 C 
ATOM      8  C   UNL     1      32.231 -12.038 -20.071  0.00  0.00    +0.036 C 
ATOM      9  C   UNL     1      32.720 -10.507 -22.399  0.00  0.00    +0.043 C 
ATOM     10  C   UNL     1      31.594 -10.808 -20.265  0.00  0.00    +0.172 C 
ATOM     11  C   UNL     1      31.837 -10.048 -21.421  0.00  0.00    +0.172 C 
BRANCH  10  12
ATOM     12  O   UNL     1      30.728 -10.352 -19.315  0.00  0.00    -0.468 OA
ATOM     13  C   UNL     1      31.199 -10.325 -17.970  0.00  0.00    +0.253 C 
ENDBRANCH  10  12
BRANCH  11  14
ATOM     14  O   UNL     1      31.208  -8.851 -21.600  0.00  0.00    -0.468 OA
ATOM     15  C   UNL     1      31.997  -7.675 -21.433  0.00  0.00    +0.253 C 
ENDBRANCH  11  14
ENDBRANCH   1   3
BRANCH   1  17
ATOM     16  N   UNL     1      35.291 -18.577 -21.064  0.00  0.00    +0.390 N 
ATOM     17  C   UNL     1      35.285 -16.130 -22.679  0.00  0.00    -0.004 C 
ATOM     18  C   UNL     1      35.335 -16.105 -21.148  0.00  0.00    -0.023 C 
ATOM     19  C   UNL     1      34.628 -17.430 -23.153  0.00  0.00    -0.023 C 
ATOM     20  C   UNL     1      35.986 -17.373 -20.591  0.00  0.00    -0.077 C 
ATOM     21  C   UNL     1      35.302 -18.655 -22.531  0.00  0.00    -0.077 C 
ATOM     22  H   UNL     1      34.319 -18.519 -20.760  0.00  0.00    -0.079 HD
BRANCH  16  23
ATOM     23  C   UNL     1      35.891 -19.777 -20.483  0.00  0.00    -0.050 C 
BRANCH  23  24
ATOM     24  C   UNL     1      34.971 -20.444 -19.495  0.00  0.00    -0.043 C 
ATOM     25  C   UNL     1      35.505 -21.269 -18.514  0.00  0.00    -0.006 C 
ATOM     26  C   UNL     1      33.604 -20.225 -19.578  0.00  0.00    -0.006 C 
ATOM     27  C   UNL     1      34.654 -21.888 -17.599  0.00  0.00    -0.000 C 
ATOM     28  C   UNL     1      32.752 -20.844 -18.662  0.00  0.00    -0.000 C 
ATOM     29  C   UNL     1      33.278 -21.675 -17.672  0.00  0.00    -0.000 C 
ENDBRANCH  23  24
ENDBRANCH  16  23
ENDBRANCH   1  17
TORSDOF 6
ENDMDL
MODEL 8
REMARK VINA RESULT:     -10.3      2.003      3.331
REMARK  Name = 1150567
REMARK  6 active torsions:
REMARK  status: ('A' for Active; 'I' for Inactive)
REMARK    1  A    between atoms: C_1  and  C_3
REMARK    2  A    between atoms: C_1  and  C_17
REMARK    3  A    between atoms: C_10  and  O_12
REMARK    4  A    between atoms: C_11  and  O_14
REMARK    5  A    between atoms: N_16  and  C_23
REMARK    6  A    between atoms: C_23  and  C_24
REMARK                            x       y       z     vdW  Elec       q    Type
REMARK                         _______ _______ _______ _____ _____    ______ ____
ROOT
ATOM      1  C   UNL     1      35.829 -21.321 -19.713  0.00  0.00    +0.008 C 
ENDROOT
BRANCH   1   3
ATOM      2  O   UNL     1      33.039 -21.660 -18.606  0.00  0.00    -0.291 OA
ATOM      3  C   UNL     1      35.339 -20.859 -18.355  0.00  0.00    +0.066 C 
ATOM      4  C   UNL     1      36.344 -21.171 -17.222  0.00  0.00    +0.034 C 
ATOM      5  C   UNL     1      34.065 -21.581 -17.954  0.00  0.00    +0.173 C 
ATOM      6  C   UNL     1      35.539 -21.932 -16.218  0.00  0.00    -0.016 C 
ATOM      7  C   UNL     1      34.239 -22.177 -16.639  0.00  0.00    +0.034 C 
ATOM      8  C   UNL     1      35.961 -22.400 -14.983  0.00  0.00    +0.036 C 
ATOM      9  C   UNL     1      33.320 -22.877 -15.880  0.00  0.00    +0.043 C 
ATOM     10  C   UNL     1      35.053 -23.111 -14.191  0.00  0.00    +0.172 C 
ATOM     11  C   UNL     1      33.743 -23.348 -14.636  0.00  0.00    +0.172 C 
BRANCH  10  12
ATOM     12  O   UNL     1      35.458 -23.576 -12.975  0.00  0.00    -0.468 OA
ATOM     13  C   UNL     1      36.605 -24.423 -12.955  0.00  0.00    +0.253 C 
ENDBRANCH  10  12
BRANCH  11  14
ATOM     14  O   UNL     1      32.868 -24.044 -13.855  0.00  0.00    -0.468 OA
ATOM     15  C   UNL     1      31.821 -23.300 -13.236  0.00  0.00    +0.253 C 
ENDBRANCH  11  14
ENDBRANCH   1   3
BRANCH   1  17
ATOM     16  N   UNL     1      35.748 -17.282 -21.241  0.00  0.00    +0.390 N 
ATOM     17  C   UNL     1      35.984 -20.150 -20.678  0.00  0.00    -0.004 C 
ATOM     18  C   UNL     1      34.636 -19.471 -20.944  0.00  0.00    -0.023 C 
ATOM     19  C   UNL     1      36.983 -19.120 -20.139  0.00  0.00    -0.023 C 
ATOM     20  C   UNL     1      34.799 -18.235 -21.830  0.00  0.00    -0.077 C 
ATOM     21  C   UNL     1      37.070 -17.896 -21.052  0.00  0.00    -0.077 C 
ATOM     22  H   UNL     1      35.393 -17.011 -20.324  0.00  0.00    -0.079 HD
BRANCH  16  23
ATOM     23  C   UNL     1      35.855 -16.083 -22.072  0.00  0.00    -0.050 C 
BRANCH  23  24
ATOM     24  C   UNL     1      34.895 -15.009 -21.635  0.00  0.00    -0.043 C 
ATOM     25  C   UNL     1      34.608 -14.859 -20.285  0.00  0.00    -0.006 C 
ATOM     26  C   UNL     1      34.310 -14.186 -22.587  0.00  0.00    -0.006 C 
ATOM     27  C   UNL     1      33.718 -13.864 -19.879  0.00  0.00    -0.000 C 
ATOM     28  C   UNL     1      33.420 -13.190 -22.180  0.00  0.00    -0.000 C 
ATOM     29  C   UNL     1      33.125 -13.030 -20.826  0.00  0.00    -0.000 C 
ENDBRANCH  23  24
ENDBRANCH  16  23
ENDBRANCH   1  17
TORSDOF 6
ENDMDL
MODEL 9
REMARK VINA RESULT:     -10.3      4.706     11.100
REMARK  Name = 1150567
REMARK  6 active torsions:
REMARK  status: ('A' for Active; 'I' for Inactive)
REMARK    1  A    between atoms: C_1  and  C_3
REMARK    2  A    between atoms: C_1  and  C_17
REMARK    3  A    between atoms: C_10  and  O_12
REMARK    4  A    between atoms: C_11  and  O_14
REMARK    5  A    between atoms: N_16  and  C_23
REMARK    6  A    between atoms: C_23  and  C_24
REMARK                            x       y       z     vdW  Elec       q    Type
REMARK                         _______ _______ _______ _____ _____    ______ ____
ROOT
ATOM      1  C   UNL     1      33.433 -12.771 -23.442  0.00  0.00    +0.008 C 
ENDROOT
BRANCH   1   3
ATOM      2  O   UNL     1      35.028 -10.461 -24.556  0.00  0.00    -0.291 OA
ATOM      3  C   UNL     1      33.908 -11.553 -22.673  0.00  0.00    +0.066 C 
ATOM      4  C   UNL     1      32.818 -10.976 -21.740  0.00  0.00    +0.034 C 
ATOM      5  C   UNL     1      34.261 -10.413 -23.612  0.00  0.00    +0.173 C 
ATOM      6  C   UNL     1      32.726  -9.537 -22.132  0.00  0.00    -0.016 C 
ATOM      7  C   UNL     1      33.541  -9.215 -23.209  0.00  0.00    +0.034 C 
ATOM      8  C   UNL     1      31.929  -8.558 -21.559  0.00  0.00    +0.036 C 
ATOM      9  C   UNL     1      33.606  -7.946 -23.753  0.00  0.00    +0.043 C 
ATOM     10  C   UNL     1      31.974  -7.263 -22.085  0.00  0.00    +0.172 C 
ATOM     11  C   UNL     1      32.807  -6.959 -23.175  0.00  0.00    +0.172 C 
BRANCH  10  12
ATOM     12  O   UNL     1      31.194  -6.293 -21.528  0.00  0.00    -0.468 OA
ATOM     13  C   UNL     1      31.741  -5.581 -20.420  0.00  0.00    +0.253 C 
ENDBRANCH  10  12
BRANCH  11  14
ATOM     14  O   UNL     1      32.840  -5.694 -23.681  0.00  0.00    -0.468 OA
ATOM     15  C   UNL     1      31.944  -5.401 -24.750  0.00  0.00    +0.253 C 
ENDBRANCH  11  14
ENDBRANCH   1   3
BRANCH   1  17
ATOM     16  N   UNL     1      34.954 -16.721 -22.582  0.00  0.00    +0.390 N 
ATOM     17  C   UNL     1      34.413 -13.932 -23.309  0.00  0.00    -0.004 C 
ATOM     18  C   UNL     1      34.523 -14.397 -21.853  0.00  0.00    -0.023 C 
ATOM     19  C   UNL     1      33.996 -15.110 -24.197  0.00  0.00    -0.023 C 
ATOM     20  C   UNL     1      35.427 -15.625 -21.727  0.00  0.00    -0.077 C 
ATOM     21  C   UNL     1      34.917 -16.314 -23.994  0.00  0.00    -0.077 C 
ATOM     22  H   UNL     1      34.004 -16.955 -22.297  0.00  0.00    -0.079 HD
BRANCH  16  23
ATOM     23  C   UNL     1      35.797 -17.904 -22.412  0.00  0.00    -0.050 C 
BRANCH  23  24
ATOM     24  C   UNL     1      35.318 -18.778 -21.284  0.00  0.00    -0.043 C 
ATOM     25  C   UNL     1      36.245 -19.350 -20.423  0.00  0.00    -0.006 C 
ATOM     26  C   UNL     1      33.958 -19.001 -21.121  0.00  0.00    -0.006 C 
ATOM     27  C   UNL     1      35.802 -20.160 -19.377  0.00  0.00    -0.000 C 
ATOM     28  C   UNL     1      33.515 -19.811 -20.075  0.00  0.00    -0.000 C 
ATOM     29  C   UNL     1      34.438 -20.390 -19.203  0.00  0.00    -0.000 C 
ENDBRANCH  23  24
ENDBRANCH  16  23
ENDBRANCH   1  17
TORSDOF 6
ENDMDL
