MODEL 1
REMARK VINA RESULT:     -13.2      0.000      0.000
REMARK  Name = 4369496
REMARK  6 active torsions:
REMARK  status: ('A' for Active; 'I' for Inactive)
REMARK    1  A    between atoms: N_2  and  C_21
REMARK    2  A    between atoms: C_3  and  C_10
REMARK    3  A    between atoms: C_5  and  C_11
REMARK    4  A    between atoms: C_11  and  N_12
REMARK    5  A    between atoms: C_23  and  N_27
REMARK    6  A    between atoms: C_31  and  C_36
REMARK                            x       y       z     vdW  Elec       q    Type
REMARK                         _______ _______ _______ _____ _____    ______ ____
ROOT
ATOM      1  O   UNL     1      34.116 -23.173 -18.622  0.00  0.00    -0.270 OA
ATOM      2  N   UNL     1      33.789 -21.693 -16.832  0.00  0.00    -0.280 N 
ATOM      3  C   UNL     1      34.174 -22.032 -18.136  0.00  0.00    +0.249 C 
ATOM      4  H   UNL     1      33.893 -20.746 -16.588  0.00  0.00    +0.155 HD
ENDROOT
BRANCH   3  10
ATOM      5  C   UNL     1      35.708 -18.867 -20.486  0.00  0.00    -0.043 C 
ATOM      6  C   UNL     1      36.578 -19.642 -19.733  0.00  0.00    -0.006 C 
ATOM      7  C   UNL     1      34.342 -19.114 -20.481  0.00  0.00    -0.006 C 
ATOM      8  C   UNL     1      36.072 -20.687 -18.958  0.00  0.00    +0.004 C 
ATOM      9  C   UNL     1      33.837 -20.159 -19.707  0.00  0.00    +0.004 C 
ATOM     10  C   UNL     1      34.701 -20.945 -18.945  0.00  0.00    +0.054 C 
BRANCH   5  11
ATOM     11  C   UNL     1      36.254 -17.741 -21.323  0.00  0.00    -0.050 C 
BRANCH  11  12
ATOM     12  N   UNL     1      35.314 -16.625 -21.412  0.00  0.00    +0.387 N 
ATOM     13  N   UNL     1      34.655 -13.810 -21.468  0.00  0.00    +0.383 N 
ATOM     14  C   UNL     1      35.595 -15.800 -22.593  0.00  0.00    -0.100 C 
ATOM     15  C   UNL     1      35.359 -15.807 -20.194  0.00  0.00    -0.100 C 
ATOM     16  C   UNL     1      34.612 -14.628 -22.687  0.00  0.00    -0.101 C 
ATOM     17  C   UNL     1      34.375 -14.636 -20.286  0.00  0.00    -0.101 C 
ATOM     18  C   UNL     1      33.714 -12.696 -21.557  0.00  0.00    -0.101 C 
ATOM     19  H   UNL     1      34.375 -17.010 -21.507  0.00  0.00    -0.079 HD
ATOM     20  H   UNL     1      35.594 -13.422 -21.375  0.00  0.00    -0.080 HD
ENDBRANCH  11  12
ENDBRANCH   5  11
ENDBRANCH   3  10
BRANCH   2  21
ATOM     21  C   UNL     1      33.269 -22.536 -15.818  0.00  0.00    +0.052 C 
ATOM     22  C   UNL     1      33.816 -22.481 -14.547  0.00  0.00    +0.030 C 
ATOM     23  C   UNL     1      33.305 -23.313 -13.550  0.00  0.00    +0.059 C 
ATOM     24  C   UNL     1      32.227 -23.394 -16.122  0.00  0.00    +0.015 C 
ATOM     25  C   UNL     1      32.255 -24.184 -13.839  0.00  0.00    +0.015 C 
ATOM     26  C   UNL     1      31.716 -24.225 -15.125  0.00  0.00    +0.003 C 
BRANCH  23  27
ATOM     27  N   UNL     1      33.849 -23.270 -12.249  0.00  0.00    -0.247 N 
ATOM     28  N   UNL     1      36.119 -23.691 -12.668  0.00  0.00    -0.337 NA
ATOM     29  N   UNL     1      35.320 -23.331 -10.423  0.00  0.00    -0.170 NA
ATOM     30  C   UNL     1      35.158 -23.439 -11.757  0.00  0.00    +0.149 C 
ATOM     31  C   UNL     1      37.360 -23.847 -12.161  0.00  0.00    +0.147 C 
ATOM     32  C   UNL     1      37.655 -23.759 -10.816  0.00  0.00    +0.055 C 
ATOM     33  C   UNL     1      36.586 -23.497  -9.985  0.00  0.00    +0.114 C 
ATOM     34  H   UNL     1      33.182 -23.087 -11.548  0.00  0.00    +0.165 HD
BRANCH  31  36
ATOM     35  N   UNL     1      39.450 -23.545 -15.232  0.00  0.00    -0.242 NA
ATOM     36  C   UNL     1      38.390 -24.116 -13.135  0.00  0.00    +0.050 C 
ATOM     37  C   UNL     1      39.296 -25.156 -12.953  0.00  0.00    +0.006 C 
ATOM     38  C   UNL     1      38.509 -23.347 -14.282  0.00  0.00    +0.101 C 
ATOM     39  C   UNL     1      40.278 -25.391 -13.910  0.00  0.00    +0.021 C 
ATOM     40  C   UNL     1      40.312 -24.564 -15.021  0.00  0.00    +0.099 C 
ENDBRANCH  31  36
ENDBRANCH  23  27
ENDBRANCH   2  21
TORSDOF 6
ENDMDL
MODEL 2
REMARK VINA RESULT:     -12.7      2.632      6.123
REMARK  Name = 4369496
REMARK  6 active torsions:
REMARK  status: ('A' for Active; 'I' for Inactive)
REMARK    1  A    between atoms: N_2  and  C_21
REMARK    2  A    between atoms: C_3  and  C_10
REMARK    3  A    between atoms: C_5  and  C_11
REMARK    4  A    between atoms: C_11  and  N_12
REMARK    5  A    between atoms: C_23  and  N_27
REMARK    6  A    between atoms: C_31  and  C_36
REMARK                            x       y       z     vdW  Elec       q    Type
REMARK                         _______ _______ _______ _____ _____    ______ ____
ROOT
ATOM      1  O   UNL     1      35.697 -16.170 -19.336  0.00  0.00    -0.270 OA
ATOM      2  N   UNL     1      34.927 -17.665 -20.972  0.00  0.00    -0.280 N 
ATOM      3  C   UNL     1      35.235 -16.394 -20.466  0.00  0.00    +0.249 C 
ATOM      4  H   UNL     1      34.567 -17.684 -21.888  0.00  0.00    +0.155 HD
ENDROOT
BRANCH   3  10
ATOM      5  C   UNL     1      34.425 -13.135 -23.038  0.00  0.00    -0.043 C 
ATOM      6  C   UNL     1      34.709 -14.379 -23.581  0.00  0.00    -0.006 C 
ATOM      7  C   UNL     1      34.402 -12.942 -21.664  0.00  0.00    -0.006 C 
ATOM      8  C   UNL     1      34.975 -15.454 -22.733  0.00  0.00    +0.004 C 
ATOM      9  C   UNL     1      34.668 -14.018 -20.816  0.00  0.00    +0.004 C 
ATOM     10  C   UNL     1      34.955 -15.274 -21.350  0.00  0.00    +0.054 C 
BRANCH   5  11
ATOM     11  C   UNL     1      34.136 -11.974 -23.953  0.00  0.00    -0.050 C 
BRANCH  11  12
ATOM     12  N   UNL     1      34.159 -10.699 -23.238  0.00  0.00    +0.387 N 
ATOM     13  N   UNL     1      33.453  -7.914 -22.914  0.00  0.00    +0.383 N 
ATOM     14  C   UNL     1      32.804 -10.298 -22.844  0.00  0.00    -0.100 C 
ATOM     15  C   UNL     1      34.785  -9.654 -24.057  0.00  0.00    -0.100 C 
ATOM     16  C   UNL     1      32.826  -8.961 -22.096  0.00  0.00    -0.101 C 
ATOM     17  C   UNL     1      34.809  -8.316 -23.310  0.00  0.00    -0.101 C 
ATOM     18  C   UNL     1      33.477  -6.641 -22.198  0.00  0.00    -0.101 C 
ATOM     19  H   UNL     1      34.716 -10.822 -22.393  0.00  0.00    -0.079 HD
ATOM     20  H   UNL     1      32.895  -7.790 -23.759  0.00  0.00    -0.080 HD
ENDBRANCH  11  12
ENDBRANCH   5  11
ENDBRANCH   3  10
BRANCH   2  21
ATOM     21  C   UNL     1      35.067 -18.924 -20.339  0.00  0.00    +0.052 C 
ATOM     22  C   UNL     1      33.973 -19.487 -19.706  0.00  0.00    +0.030 C 
ATOM     23  C   UNL     1      34.111 -20.727 -19.081  0.00  0.00    +0.059 C 
ATOM     24  C   UNL     1      36.295 -19.562 -20.369  0.00  0.00    +0.015 C 
ATOM     25  C   UNL     1      35.342 -21.384 -19.100  0.00  0.00    +0.015 C 
ATOM     26  C   UNL     1      36.433 -20.802 -19.744  0.00  0.00    +0.003 C 
BRANCH  23  27
ATOM     27  N   UNL     1      33.006 -21.317 -18.431  0.00  0.00    -0.247 N 
ATOM     28  N   UNL     1      33.984 -22.110 -16.451  0.00  0.00    -0.337 NA
ATOM     29  N   UNL     1      31.637 -22.432 -16.887  0.00  0.00    -0.170 NA
ATOM     30  C   UNL     1      32.870 -21.984 -17.199  0.00  0.00    +0.149 C 
ATOM     31  C   UNL     1      33.816 -22.754 -15.277  0.00  0.00    +0.147 C 
ATOM     32  C   UNL     1      32.607 -23.257 -14.846  0.00  0.00    +0.055 C 
ATOM     33  C   UNL     1      31.541 -23.066 -15.700  0.00  0.00    +0.114 C 
ATOM     34  H   UNL     1      32.167 -21.249 -18.941  0.00  0.00    +0.165 HD
BRANCH  31  36
ATOM     35  N   UNL     1      36.033 -23.566 -12.393  0.00  0.00    -0.242 NA
ATOM     36  C   UNL     1      35.009 -22.888 -14.476  0.00  0.00    +0.050 C 
ATOM     37  C   UNL     1      36.250 -22.493 -14.965  0.00  0.00    +0.006 C 
ATOM     38  C   UNL     1      34.955 -23.413 -13.195  0.00  0.00    +0.101 C 
ATOM     39  C   UNL     1      37.382 -22.634 -14.169  0.00  0.00    +0.021 C 
ATOM     40  C   UNL     1      37.221 -23.172 -12.902  0.00  0.00    +0.099 C 
ENDBRANCH  31  36
ENDBRANCH  23  27
ENDBRANCH   2  21
TORSDOF 6
ENDMDL
MODEL 3
REMARK VINA RESULT:     -12.7      2.689      5.925
REMARK  Name = 4369496
REMARK  6 active torsions:
REMARK  status: ('A' for Active; 'I' for Inactive)
REMARK    1  A    between atoms: N_2  and  C_21
REMARK    2  A    between atoms: C_3  and  C_10
REMARK    3  A    between atoms: C_5  and  C_11
REMARK    4  A    between atoms: C_11  and  N_12
REMARK    5  A    between atoms: C_23  and  N_27
REMARK    6  A    between atoms: C_31  and  C_36
REMARK                            x       y       z     vdW  Elec       q    Type
REMARK                         _______ _______ _______ _____ _____    ______ ____
ROOT
ATOM      1  O   UNL     1      36.843 -17.548 -22.005  0.00  0.00    -0.270 OA
ATOM      2  N   UNL     1      34.708 -18.014 -21.153  0.00  0.00    -0.280 N 
ATOM      3  C   UNL     1      35.634 -17.282 -21.909  0.00  0.00    +0.249 C 
ATOM      4  H   UNL     1      33.782 -17.680 -21.173  0.00  0.00    +0.155 HD
ENDROOT
BRANCH   3  10
ATOM      5  C   UNL     1      34.107 -13.884 -23.912  0.00  0.00    -0.043 C 
ATOM      6  C   UNL     1      34.497 -13.777 -22.584  0.00  0.00    -0.006 C 
ATOM      7  C   UNL     1      34.211 -15.089 -24.593  0.00  0.00    -0.006 C 
ATOM      8  C   UNL     1      35.001 -14.897 -21.924  0.00  0.00    +0.004 C 
ATOM      9  C   UNL     1      34.715 -16.209 -23.932  0.00  0.00    +0.004 C 
ATOM     10  C   UNL     1      35.111 -16.114 -22.598  0.00  0.00    +0.054 C 
BRANCH   5  11
ATOM     11  C   UNL     1      33.564 -12.674 -24.626  0.00  0.00    -0.050 C 
BRANCH  11  12
ATOM     12  N   UNL     1      34.322 -11.467 -24.305  0.00  0.00    +0.387 N 
ATOM     13  N   UNL     1      34.711  -8.602 -24.269  0.00  0.00    +0.383 N 
ATOM     14  C   UNL     1      33.569 -10.608 -23.384  0.00  0.00    -0.100 C 
ATOM     15  C   UNL     1      34.668 -10.729 -25.526  0.00  0.00    -0.100 C 
ATOM     16  C   UNL     1      34.363  -9.340 -23.049  0.00  0.00    -0.101 C 
ATOM     17  C   UNL     1      35.463  -9.462 -25.192  0.00  0.00    -0.101 C 
ATOM     18  C   UNL     1      35.470  -7.396 -23.948  0.00  0.00    -0.101 C 
ATOM     19  H   UNL     1      35.187 -11.751 -23.845  0.00  0.00    -0.079 HD
ATOM     20  H   UNL     1      33.846  -8.316 -24.729  0.00  0.00    -0.080 HD
ENDBRANCH  11  12
ENDBRANCH   5  11
ENDBRANCH   3  10
BRANCH   2  21
ATOM     21  C   UNL     1      34.928 -19.170 -20.365  0.00  0.00    +0.052 C 
ATOM     22  C   UNL     1      33.863 -19.744 -19.693  0.00  0.00    +0.030 C 
ATOM     23  C   UNL     1      34.081 -20.882 -18.915  0.00  0.00    +0.059 C 
ATOM     24  C   UNL     1      36.205 -19.698 -20.284  0.00  0.00    +0.015 C 
ATOM     25  C   UNL     1      35.361 -21.428 -18.823  0.00  0.00    +0.015 C 
ATOM     26  C   UNL     1      36.423 -20.836 -19.507  0.00  0.00    +0.003 C 
BRANCH  23  27
ATOM     27  N   UNL     1      33.007 -21.481 -18.225  0.00  0.00    -0.247 N 
ATOM     28  N   UNL     1      34.041 -22.165 -16.233  0.00  0.00    -0.337 NA
ATOM     29  N   UNL     1      31.699 -22.579 -16.617  0.00  0.00    -0.170 NA
ATOM     30  C   UNL     1      32.912 -22.104 -16.966  0.00  0.00    +0.149 C 
ATOM     31  C   UNL     1      33.913 -22.769 -15.033  0.00  0.00    +0.147 C 
ATOM     32  C   UNL     1      32.727 -23.294 -14.562  0.00  0.00    +0.055 C 
ATOM     33  C   UNL     1      31.642 -23.169 -15.405  0.00  0.00    +0.114 C 
ATOM     34  H   UNL     1      32.157 -21.460 -18.722  0.00  0.00    +0.165 HD
BRANCH  31  36
ATOM     35  N   UNL     1      37.497 -22.412 -14.073  0.00  0.00    -0.242 NA
ATOM     36  C   UNL     1      35.122 -22.834 -14.248  0.00  0.00    +0.050 C 
ATOM     37  C   UNL     1      35.113 -23.353 -12.958  0.00  0.00    +0.006 C 
ATOM     38  C   UNL     1      36.330 -22.381 -14.755  0.00  0.00    +0.101 C 
ATOM     39  C   UNL     1      36.294 -23.403 -12.225  0.00  0.00    +0.021 C 
ATOM     40  C   UNL     1      37.448 -22.924 -12.823  0.00  0.00    +0.099 C 
ENDBRANCH  31  36
ENDBRANCH  23  27
ENDBRANCH   2  21
TORSDOF 6
ENDMDL
MODEL 4
REMARK VINA RESULT:     -11.6      6.058     16.016
REMARK  Name = 4369496
REMARK  6 active torsions:
REMARK  status: ('A' for Active; 'I' for Inactive)
REMARK    1  A    between atoms: N_2  and  C_21
REMARK    2  A    between atoms: C_3  and  C_10
REMARK    3  A    between atoms: C_5  and  C_11
REMARK    4  A    between atoms: C_11  and  N_12
REMARK    5  A    between atoms: C_23  and  N_27
REMARK    6  A    between atoms: C_31  and  C_36
REMARK                            x       y       z     vdW  Elec       q    Type
REMARK                         _______ _______ _______ _____ _____    ______ ____
ROOT
ATOM      1  O   UNL     1      32.675 -13.018 -21.465  0.00  0.00    -0.270 OA
ATOM      2  N   UNL     1      34.507 -12.291 -22.737  0.00  0.00    -0.280 N 
ATOM      3  C   UNL     1      33.800 -13.212 -21.950  0.00  0.00    +0.249 C 
ATOM      4  H   UNL     1      35.391 -12.588 -23.051  0.00  0.00    +0.155 HD
ENDROOT
BRANCH   3  10
ATOM      5  C   UNL     1      35.770 -16.873 -21.169  0.00  0.00    -0.043 C 
ATOM      6  C   UNL     1      35.568 -16.472 -22.482  0.00  0.00    -0.006 C 
ATOM      7  C   UNL     1      35.336 -16.090 -20.108  0.00  0.00    -0.006 C 
ATOM      8  C   UNL     1      34.919 -15.265 -22.740  0.00  0.00    +0.004 C 
ATOM      9  C   UNL     1      34.688 -14.883 -20.365  0.00  0.00    +0.004 C 
ATOM     10  C   UNL     1      34.478 -14.470 -21.681  0.00  0.00    +0.054 C 
BRANCH   5  11
ATOM     11  C   UNL     1      36.472 -18.176 -20.890  0.00  0.00    -0.050 C 
BRANCH  11  12
ATOM     12  N   UNL     1      35.758 -18.976 -19.897  0.00  0.00    +0.387 N 
ATOM     13  N   UNL     1      34.543 -21.423 -18.950  0.00  0.00    +0.383 N 
ATOM     14  C   UNL     1      36.576 -20.112 -19.458  0.00  0.00    -0.100 C 
ATOM     15  C   UNL     1      34.474 -19.445 -20.430  0.00  0.00    -0.100 C 
ATOM     16  C   UNL     1      35.829 -20.954 -18.418  0.00  0.00    -0.101 C 
ATOM     17  C   UNL     1      33.725 -20.286 -19.391  0.00  0.00    -0.101 C 
ATOM     18  C   UNL     1      33.830 -22.221 -17.956  0.00  0.00    -0.101 C 
ATOM     19  H   UNL     1      35.573 -18.383 -19.088  0.00  0.00    -0.079 HD
ATOM     20  H   UNL     1      34.728 -22.018 -19.758  0.00  0.00    -0.080 HD
ENDBRANCH  11  12
ENDBRANCH   5  11
ENDBRANCH   3  10
BRANCH   2  21
ATOM     21  C   UNL     1      34.115 -10.991 -23.139  0.00  0.00    +0.052 C 
ATOM     22  C   UNL     1      33.663 -10.096 -22.184  0.00  0.00    +0.030 C 
ATOM     23  C   UNL     1      33.276  -8.815 -22.581  0.00  0.00    +0.059 C 
ATOM     24  C   UNL     1      34.193 -10.645 -24.477  0.00  0.00    +0.015 C 
ATOM     25  C   UNL     1      33.348  -8.450 -23.925  0.00  0.00    +0.015 C 
ATOM     26  C   UNL     1      33.806  -9.364 -24.873  0.00  0.00    +0.003 C 
BRANCH  23  27
ATOM     27  N   UNL     1      32.814  -7.889 -21.622  0.00  0.00    -0.247 N 
ATOM     28  N   UNL     1      32.544  -5.953 -22.919  0.00  0.00    -0.337 NA
ATOM     29  N   UNL     1      32.048  -5.942 -20.561  0.00  0.00    -0.170 NA
ATOM     30  C   UNL     1      32.452  -6.531 -21.705  0.00  0.00    +0.149 C 
ATOM     31  C   UNL     1      32.189  -4.652 -22.961  0.00  0.00    +0.147 C 
ATOM     32  C   UNL     1      31.758  -3.939 -21.862  0.00  0.00    +0.055 C 
ATOM     33  C   UNL     1      31.708  -4.642 -20.676  0.00  0.00    +0.114 C 
ATOM     34  H   UNL     1      32.730  -8.267 -20.716  0.00  0.00    +0.165 HD
BRANCH  31  36
ATOM     35  N   UNL     1      31.646  -2.234 -25.746  0.00  0.00    -0.242 NA
ATOM     36  C   UNL     1      32.286  -4.033 -24.261  0.00  0.00    +0.050 C 
ATOM     37  C   UNL     1      33.073  -4.589 -25.264  0.00  0.00    +0.006 C 
ATOM     38  C   UNL     1      31.598  -2.865 -24.551  0.00  0.00    +0.101 C 
ATOM     39  C   UNL     1      33.147  -3.969 -26.507  0.00  0.00    +0.021 C 
ATOM     40  C   UNL     1      32.421  -2.804 -26.695  0.00  0.00    +0.099 C 
ENDBRANCH  31  36
ENDBRANCH  23  27
ENDBRANCH   2  21
TORSDOF 6
ENDMDL
MODEL 5
REMARK VINA RESULT:     -11.4      4.211     14.187
REMARK  Name = 4369496
REMARK  6 active torsions:
REMARK  status: ('A' for Active; 'I' for Inactive)
REMARK    1  A    between atoms: N_2  and  C_21
REMARK    2  A    between atoms: C_3  and  C_10
REMARK    3  A    between atoms: C_5  and  C_11
REMARK    4  A    between atoms: C_11  and  N_12
REMARK    5  A    between atoms: C_23  and  N_27
REMARK    6  A    between atoms: C_31  and  C_36
REMARK                            x       y       z     vdW  Elec       q    Type
REMARK                         _______ _______ _______ _____ _____    ______ ____
ROOT
ATOM      1  O   UNL     1      35.021 -16.060 -23.060  0.00  0.00    -0.270 OA
ATOM      2  N   UNL     1      34.492 -15.096 -20.988  0.00  0.00    -0.280 N 
ATOM      3  C   UNL     1      34.971 -16.117 -21.821  0.00  0.00    +0.249 C 
ATOM      4  H   UNL     1      34.514 -15.286 -20.023  0.00  0.00    +0.155 HD
ENDROOT
BRANCH   3  10
ATOM      5  C   UNL     1      36.249 -19.643 -19.866  0.00  0.00    -0.043 C 
ATOM      6  C   UNL     1      34.892 -19.390 -19.999  0.00  0.00    -0.006 C 
ATOM      7  C   UNL     1      37.194 -18.758 -20.364  0.00  0.00    -0.006 C 
ATOM      8  C   UNL     1      34.470 -18.227 -20.645  0.00  0.00    +0.004 C 
ATOM      9  C   UNL     1      36.773 -17.595 -21.010  0.00  0.00    +0.004 C 
ATOM     10  C   UNL     1      35.410 -17.330 -21.150  0.00  0.00    +0.054 C 
BRANCH   5  11
ATOM     11  C   UNL     1      36.705 -20.899 -19.170  0.00  0.00    -0.050 C 
BRANCH  11  12
ATOM     12  N   UNL     1      36.049 -21.073 -17.876  0.00  0.00    +0.387 N 
ATOM     13  N   UNL     1      35.248 -22.642 -15.584  0.00  0.00    +0.383 N 
ATOM     14  C   UNL     1      37.019 -21.471 -16.849  0.00  0.00    -0.100 C 
ATOM     15  C   UNL     1      34.967 -22.060 -17.969  0.00  0.00    -0.100 C 
ATOM     16  C   UNL     1      36.331 -21.656 -15.492  0.00  0.00    -0.101 C 
ATOM     17  C   UNL     1      34.278 -22.245 -16.612  0.00  0.00    -0.101 C 
ATOM     18  C   UNL     1      34.591 -22.814 -14.290  0.00  0.00    -0.101 C 
ATOM     19  H   UNL     1      35.644 -20.177 -17.605  0.00  0.00    -0.079 HD
ATOM     20  H   UNL     1      35.653 -23.540 -15.853  0.00  0.00    -0.080 HD
ENDBRANCH  11  12
ENDBRANCH   5  11
ENDBRANCH   3  10
BRANCH   2  21
ATOM     21  C   UNL     1      33.980 -13.826 -21.353  0.00  0.00    +0.052 C 
ATOM     22  C   UNL     1      34.673 -13.057 -22.272  0.00  0.00    +0.030 C 
ATOM     23  C   UNL     1      34.170 -11.806 -22.630  0.00  0.00    +0.059 C 
ATOM     24  C   UNL     1      32.799 -13.385 -20.782  0.00  0.00    +0.015 C 
ATOM     25  C   UNL     1      32.981 -11.345 -22.065  0.00  0.00    +0.015 C 
ATOM     26  C   UNL     1      32.296 -12.134 -21.141  0.00  0.00    +0.003 C 
BRANCH  23  27
ATOM     27  N   UNL     1      34.862 -11.009 -23.566  0.00  0.00    -0.247 N 
ATOM     28  N   UNL     1      34.080  -8.861 -23.035  0.00  0.00    -0.337 NA
ATOM     29  N   UNL     1      35.669  -9.195 -24.815  0.00  0.00    -0.170 NA
ATOM     30  C   UNL     1      34.870  -9.623 -23.817  0.00  0.00    +0.149 C 
ATOM     31  C   UNL     1      34.113  -7.539 -23.303  0.00  0.00    +0.147 C 
ATOM     32  C   UNL     1      34.889  -6.978 -24.296  0.00  0.00    +0.055 C 
ATOM     33  C   UNL     1      35.653  -7.862 -25.028  0.00  0.00    +0.114 C 
ATOM     34  H   UNL     1      35.454 -11.523 -24.161  0.00  0.00    +0.165 HD
BRANCH  31  36
ATOM     35  N   UNL     1      31.496  -5.087 -22.288  0.00  0.00    -0.242 NA
ATOM     36  C   UNL     1      33.268  -6.723 -22.465  0.00  0.00    +0.050 C 
ATOM     37  C   UNL     1      33.381  -6.760 -21.079  0.00  0.00    +0.006 C 
ATOM     38  C   UNL     1      32.319  -5.877 -23.014  0.00  0.00    +0.101 C 
ATOM     39  C   UNL     1      32.552  -5.962 -20.298  0.00  0.00    +0.021 C 
ATOM     40  C   UNL     1      31.635  -5.151 -20.945  0.00  0.00    +0.099 C 
ENDBRANCH  31  36
ENDBRANCH  23  27
ENDBRANCH   2  21
TORSDOF 6
ENDMDL
MODEL 6
REMARK VINA RESULT:     -11.0      2.438      5.935
REMARK  Name = 4369496
REMARK  6 active torsions:
REMARK  status: ('A' for Active; 'I' for Inactive)
REMARK    1  A    between atoms: N_2  and  C_21
REMARK    2  A    between atoms: C_3  and  C_10
REMARK    3  A    between atoms: C_5  and  C_11
REMARK    4  A    between atoms: C_11  and  N_12
REMARK    5  A    between atoms: C_23  and  N_27
REMARK    6  A    between atoms: C_31  and  C_36
REMARK                            x       y       z     vdW  Elec       q    Type
REMARK                         _______ _______ _______ _____ _____    ______ ____
ROOT
ATOM      1  O   UNL     1      36.721 -17.530 -21.320  0.00  0.00    -0.270 OA
ATOM      2  N   UNL     1      34.452 -17.913 -20.862  0.00  0.00    -0.280 N 
ATOM      3  C   UNL     1      35.530 -17.185 -21.385  0.00  0.00    +0.249 C 
ATOM      4  H   UNL     1      33.563 -17.511 -20.991  0.00  0.00    +0.155 HD
ENDROOT
BRANCH   3  10
ATOM      5  C   UNL     1      34.549 -13.512 -23.240  0.00  0.00    -0.043 C 
ATOM      6  C   UNL     1      34.721 -13.558 -21.864  0.00  0.00    -0.006 C 
ATOM      7  C   UNL     1      34.694 -14.653 -24.017  0.00  0.00    -0.006 C 
ATOM      8  C   UNL     1      35.045 -14.769 -21.252  0.00  0.00    +0.004 C 
ATOM      9  C   UNL     1      35.019 -15.863 -23.406  0.00  0.00    +0.004 C 
ATOM     10  C   UNL     1      35.194 -15.922 -22.023  0.00  0.00    +0.054 C 
BRANCH   5  11
ATOM     11  C   UNL     1      34.200 -12.205 -23.901  0.00  0.00    -0.050 C 
BRANCH  11  12
ATOM     12  N   UNL     1      33.899 -11.163 -22.921  0.00  0.00    +0.387 N 
ATOM     13  N   UNL     1      32.345  -8.941 -21.918  0.00  0.00    +0.383 N 
ATOM     14  C   UNL     1      32.569 -11.367 -22.336  0.00  0.00    -0.100 C 
ATOM     15  C   UNL     1      33.991  -9.832 -23.532  0.00  0.00    -0.100 C 
ATOM     16  C   UNL     1      32.251 -10.274 -21.309  0.00  0.00    -0.101 C 
ATOM     17  C   UNL     1      33.675  -8.737 -22.506  0.00  0.00    -0.101 C 
ATOM     18  C   UNL     1      32.045  -7.900 -20.938  0.00  0.00    -0.101 C 
ATOM     19  H   UNL     1      34.591 -11.223 -22.175  0.00  0.00    -0.079 HD
ATOM     20  H   UNL     1      31.651  -8.880 -22.665  0.00  0.00    -0.080 HD
ENDBRANCH  11  12
ENDBRANCH   5  11
ENDBRANCH   3  10
BRANCH   2  21
ATOM     21  C   UNL     1      34.475 -19.150 -20.173  0.00  0.00    +0.052 C 
ATOM     22  C   UNL     1      35.563 -19.459 -19.375  0.00  0.00    +0.030 C 
ATOM     23  C   UNL     1      35.585 -20.679 -18.697  0.00  0.00    +0.059 C 
ATOM     24  C   UNL     1      33.408 -20.021 -20.314  0.00  0.00    +0.015 C 
ATOM     25  C   UNL     1      34.519 -21.569 -18.828  0.00  0.00    +0.015 C 
ATOM     26  C   UNL     1      33.431 -21.240 -19.636  0.00  0.00    +0.003 C 
BRANCH  23  27
ATOM     27  N   UNL     1      36.685 -21.011 -17.878  0.00  0.00    -0.247 N 
ATOM     28  N   UNL     1      35.627 -22.024 -16.046  0.00  0.00    -0.337 NA
ATOM     29  N   UNL     1      38.025 -21.798 -16.121  0.00  0.00    -0.170 NA
ATOM     30  C   UNL     1      36.783 -21.640 -16.623  0.00  0.00    +0.149 C 
ATOM     31  C   UNL     1      35.759 -22.624 -14.844  0.00  0.00    +0.147 C 
ATOM     32  C   UNL     1      36.972 -22.843 -14.226  0.00  0.00    +0.055 C 
ATOM     33  C   UNL     1      38.083 -22.404 -14.917  0.00  0.00    +0.114 C 
ATOM     34  H   UNL     1      37.554 -20.750 -18.260  0.00  0.00    +0.165 HD
BRANCH  31  36
ATOM     35  N   UNL     1      33.391 -24.085 -12.364  0.00  0.00    -0.242 NA
ATOM     36  C   UNL     1      34.521 -23.036 -14.226  0.00  0.00    +0.050 C 
ATOM     37  C   UNL     1      33.297 -22.805 -14.846  0.00  0.00    +0.006 C 
ATOM     38  C   UNL     1      34.513 -23.675 -12.997  0.00  0.00    +0.101 C 
ATOM     39  C   UNL     1      32.122 -23.214 -14.226  0.00  0.00    +0.021 C 
ATOM     40  C   UNL     1      32.222 -23.844 -12.997  0.00  0.00    +0.099 C 
ENDBRANCH  31  36
ENDBRANCH  23  27
ENDBRANCH   2  21
TORSDOF 6
ENDMDL
MODEL 7
REMARK VINA RESULT:     -10.8      4.729     13.554
REMARK  Name = 4369496
REMARK  6 active torsions:
REMARK  status: ('A' for Active; 'I' for Inactive)
REMARK    1  A    between atoms: N_2  and  C_21
REMARK    2  A    between atoms: C_3  and  C_10
REMARK    3  A    between atoms: C_5  and  C_11
REMARK    4  A    between atoms: C_11  and  N_12
REMARK    5  A    between atoms: C_23  and  N_27
REMARK    6  A    between atoms: C_31  and  C_36
REMARK                            x       y       z     vdW  Elec       q    Type
REMARK                         _______ _______ _______ _____ _____    ______ ____
ROOT
ATOM      1  O   UNL     1      33.385 -13.382 -21.749  0.00  0.00    -0.270 OA
ATOM      2  N   UNL     1      34.585 -13.642 -23.747  0.00  0.00    -0.280 N 
ATOM      3  C   UNL     1      34.199 -14.005 -22.450  0.00  0.00    +0.249 C 
ATOM      4  H   UNL     1      35.241 -14.235 -24.179  0.00  0.00    +0.155 HD
ENDROOT
BRANCH   3  10
ATOM      5  C   UNL     1      36.059 -17.458 -20.867  0.00  0.00    -0.043 C 
ATOM      6  C   UNL     1      35.570 -16.489 -20.003  0.00  0.00    -0.006 C 
ATOM      7  C   UNL     1      35.947 -17.313 -22.242  0.00  0.00    -0.006 C 
ATOM      8  C   UNL     1      34.956 -15.351 -20.525  0.00  0.00    +0.004 C 
ATOM      9  C   UNL     1      35.333 -16.174 -22.764  0.00  0.00    +0.004 C 
ATOM     10  C   UNL     1      34.837 -15.193 -21.906  0.00  0.00    +0.054 C 
BRANCH   5  11
ATOM     11  C   UNL     1      36.722 -18.688 -20.304  0.00  0.00    -0.050 C 
BRANCH  11  12
ATOM     12  N   UNL     1      35.847 -19.400 -19.374  0.00  0.00    +0.387 N 
ATOM     13  N   UNL     1      34.392 -21.733 -18.479  0.00  0.00    +0.383 N 
ATOM     14  C   UNL     1      36.541 -20.549 -18.781  0.00  0.00    -0.100 C 
ATOM     15  C   UNL     1      34.617 -19.835 -20.046  0.00  0.00    -0.100 C 
ATOM     16  C   UNL     1      35.624 -21.297 -17.808  0.00  0.00    -0.101 C 
ATOM     17  C   UNL     1      33.698 -20.584 -19.074  0.00  0.00    -0.101 C 
ATOM     18  C   UNL     1      33.518 -22.443 -17.549  0.00  0.00    -0.101 C 
ATOM     19  H   UNL     1      35.593 -18.757 -18.625  0.00  0.00    -0.079 HD
ATOM     20  H   UNL     1      34.646 -22.378 -19.228  0.00  0.00    -0.080 HD
ENDBRANCH  11  12
ENDBRANCH   5  11
ENDBRANCH   3  10
BRANCH   2  21
ATOM     21  C   UNL     1      34.156 -12.534 -24.518  0.00  0.00    +0.052 C 
ATOM     22  C   UNL     1      34.281 -11.258 -23.995  0.00  0.00    +0.030 C 
ATOM     23  C   UNL     1      33.857 -10.166 -24.754  0.00  0.00    +0.059 C 
ATOM     24  C   UNL     1      33.622 -12.752 -25.776  0.00  0.00    +0.015 C 
ATOM     25  C   UNL     1      33.316 -10.368 -26.024  0.00  0.00    +0.015 C 
ATOM     26  C   UNL     1      33.199 -11.661 -26.535  0.00  0.00    +0.003 C 
BRANCH  23  27
ATOM     27  N   UNL     1      33.978  -8.859 -24.238  0.00  0.00    -0.247 N 
ATOM     28  N   UNL     1      33.145  -9.128 -22.060  0.00  0.00    -0.337 NA
ATOM     29  N   UNL     1      33.914  -6.980 -22.836  0.00  0.00    -0.170 NA
ATOM     30  C   UNL     1      33.664  -8.296 -22.986  0.00  0.00    +0.149 C 
ATOM     31  C   UNL     1      32.857  -8.554 -20.873  0.00  0.00    +0.147 C 
ATOM     32  C   UNL     1      33.068  -7.219 -20.596  0.00  0.00    +0.055 C 
ATOM     33  C   UNL     1      33.603  -6.472 -21.625  0.00  0.00    +0.114 C 
ATOM     34  H   UNL     1      34.354  -8.214 -24.880  0.00  0.00    +0.165 HD
BRANCH  31  36
ATOM     35  N   UNL     1      31.809  -9.898 -17.559  0.00  0.00    -0.242 NA
ATOM     36  C   UNL     1      32.303  -9.444 -19.882  0.00  0.00    +0.050 C 
ATOM     37  C   UNL     1      31.742 -10.664 -20.246  0.00  0.00    +0.006 C 
ATOM     38  C   UNL     1      32.312  -9.112 -18.537  0.00  0.00    +0.101 C 
ATOM     39  C   UNL     1      31.215 -11.500 -19.267  0.00  0.00    +0.021 C 
ATOM     40  C   UNL     1      31.273 -11.074 -17.951  0.00  0.00    +0.099 C 
ENDBRANCH  31  36
ENDBRANCH  23  27
ENDBRANCH   2  21
TORSDOF 6
ENDMDL
MODEL 8
REMARK VINA RESULT:     -10.6      5.630     14.911
REMARK  Name = 4369496
REMARK  6 active torsions:
REMARK  status: ('A' for Active; 'I' for Inactive)
REMARK    1  A    between atoms: N_2  and  C_21
REMARK    2  A    between atoms: C_3  and  C_10
REMARK    3  A    between atoms: C_5  and  C_11
REMARK    4  A    between atoms: C_11  and  N_12
REMARK    5  A    between atoms: C_23  and  N_27
REMARK    6  A    between atoms: C_31  and  C_36
REMARK                            x       y       z     vdW  Elec       q    Type
REMARK                         _______ _______ _______ _____ _____    ______ ____
ROOT
ATOM      1  O   UNL     1      34.151 -13.077 -23.092  0.00  0.00    -0.270 OA
ATOM      2  N   UNL     1      33.309 -12.882 -20.911  0.00  0.00    -0.280 N 
ATOM      3  C   UNL     1      34.046 -13.501 -21.930  0.00  0.00    +0.249 C 
ATOM      4  H   UNL     1      33.320 -13.337 -20.039  0.00  0.00    +0.155 HD
ENDROOT
BRANCH   3  10
ATOM      5  C   UNL     1      35.958 -17.126 -20.885  0.00  0.00    -0.043 C 
ATOM      6  C   UNL     1      35.822 -16.787 -22.224  0.00  0.00    -0.006 C 
ATOM      7  C   UNL     1      35.477 -16.295 -19.884  0.00  0.00    -0.006 C 
ATOM      8  C   UNL     1      35.192 -15.591 -22.568  0.00  0.00    +0.004 C 
ATOM      9  C   UNL     1      34.847 -15.099 -20.229  0.00  0.00    +0.004 C 
ATOM     10  C   UNL     1      34.704 -14.747 -21.571  0.00  0.00    +0.054 C 
BRANCH   5  11
ATOM     11  C   UNL     1      36.639 -18.417 -20.513  0.00  0.00    -0.050 C 
BRANCH  11  12
ATOM     12  N   UNL     1      35.841 -19.201 -19.572  0.00  0.00    +0.387 N 
ATOM     13  N   UNL     1      34.488 -21.613 -18.727  0.00  0.00    +0.383 N 
ATOM     14  C   UNL     1      36.592 -20.370 -19.100  0.00  0.00    -0.100 C 
ATOM     15  C   UNL     1      34.575 -19.620 -20.185  0.00  0.00    -0.100 C 
ATOM     16  C   UNL     1      35.756 -21.194 -18.115  0.00  0.00    -0.101 C 
ATOM     17  C   UNL     1      33.737 -20.444 -19.201  0.00  0.00    -0.101 C 
ATOM     18  C   UNL     1      33.691 -22.395 -17.785  0.00  0.00    -0.101 C 
ATOM     19  H   UNL     1      35.629 -18.610 -18.769  0.00  0.00    -0.079 HD
ATOM     20  H   UNL     1      34.700 -22.206 -19.530  0.00  0.00    -0.080 HD
ENDBRANCH  11  12
ENDBRANCH   5  11
ENDBRANCH   3  10
BRANCH   2  21
ATOM     21  C   UNL     1      32.552 -11.686 -20.972  0.00  0.00    +0.052 C 
ATOM     22  C   UNL     1      32.795 -10.684 -20.048  0.00  0.00    +0.030 C 
ATOM     23  C   UNL     1      32.047  -9.507 -20.107  0.00  0.00    +0.059 C 
ATOM     24  C   UNL     1      31.585 -11.549 -21.953  0.00  0.00    +0.015 C 
ATOM     25  C   UNL     1      31.069  -9.352 -21.089  0.00  0.00    +0.015 C 
ATOM     26  C   UNL     1      30.838 -10.372 -22.012  0.00  0.00    +0.003 C 
BRANCH  23  27
ATOM     27  N   UNL     1      32.282  -8.475 -19.175  0.00  0.00    -0.247 N 
ATOM     28  N   UNL     1      32.153  -6.567 -20.535  0.00  0.00    -0.337 NA
ATOM     29  N   UNL     1      32.600  -6.377 -18.174  0.00  0.00    -0.170 NA
ATOM     30  C   UNL     1      32.348  -7.074 -19.301  0.00  0.00    +0.149 C 
ATOM     31  C   UNL     1      32.224  -5.222 -20.618  0.00  0.00    +0.147 C 
ATOM     32  C   UNL     1      32.474  -4.399 -19.539  0.00  0.00    +0.055 C 
ATOM     33  C   UNL     1      32.656  -5.038 -18.330  0.00  0.00    +0.114 C 
ATOM     34  H   UNL     1      32.430  -8.798 -18.257  0.00  0.00    +0.165 HD
BRANCH  31  36
ATOM     35  N   UNL     1      31.590  -2.750 -23.335  0.00  0.00    -0.242 NA
ATOM     36  C   UNL     1      32.014  -4.678 -21.938  0.00  0.00    +0.050 C 
ATOM     37  C   UNL     1      32.028  -5.497 -23.062  0.00  0.00    +0.006 C 
ATOM     38  C   UNL     1      31.792  -3.323 -22.127  0.00  0.00    +0.101 C 
ATOM     39  C   UNL     1      31.822  -4.944 -24.322  0.00  0.00    +0.021 C 
ATOM     40  C   UNL     1      31.610  -3.578 -24.403  0.00  0.00    +0.099 C 
ENDBRANCH  31  36
ENDBRANCH  23  27
ENDBRANCH   2  21
TORSDOF 6
ENDMDL
MODEL 9
REMARK VINA RESULT:     -10.5      3.048     13.099
REMARK  Name = 4369496
REMARK  6 active torsions:
REMARK  status: ('A' for Active; 'I' for Inactive)
REMARK    1  A    between atoms: N_2  and  C_21
REMARK    2  A    between atoms: C_3  and  C_10
REMARK    3  A    between atoms: C_5  and  C_11
REMARK    4  A    between atoms: C_11  and  N_12
REMARK    5  A    between atoms: C_23  and  N_27
REMARK    6  A    between atoms: C_31  and  C_36
REMARK                            x       y       z     vdW  Elec       q    Type
REMARK                         _______ _______ _______ _____ _____    ______ ____
ROOT
ATOM      1  O   UNL     1      34.894 -18.810 -22.183  0.00  0.00    -0.270 OA
ATOM      2  N   UNL     1      34.961 -17.124 -20.554  0.00  0.00    -0.280 N 
ATOM      3  C   UNL     1      34.982 -18.453 -20.997  0.00  0.00    +0.249 C 
ATOM      4  H   UNL     1      35.040 -16.997 -19.581  0.00  0.00    +0.155 HD
ENDROOT
BRANCH   3  10
ATOM      5  C   UNL     1      35.296 -21.400 -17.980  0.00  0.00    -0.043 C 
ATOM      6  C   UNL     1      34.052 -21.100 -18.514  0.00  0.00    -0.006 C 
ATOM      7  C   UNL     1      36.440 -20.749 -18.420  0.00  0.00    -0.006 C 
ATOM      8  C   UNL     1      33.948 -20.129 -19.510  0.00  0.00    +0.004 C 
ATOM      9  C   UNL     1      36.336 -19.778 -19.416  0.00  0.00    +0.004 C 
ATOM     10  C   UNL     1      35.090 -19.467 -19.961  0.00  0.00    +0.054 C 
BRANCH   5  11
ATOM     11  C   UNL     1      35.409 -22.449 -16.905  0.00  0.00    -0.050 C 
BRANCH  11  12
ATOM     12  N   UNL     1      34.310 -22.365 -15.945  0.00  0.00    +0.387 N 
ATOM     13  N   UNL     1      32.228 -23.520 -14.305  0.00  0.00    +0.383 N 
ATOM     14  C   UNL     1      34.630 -23.110 -14.721  0.00  0.00    -0.100 C 
ATOM     15  C   UNL     1      33.062 -22.862 -16.536  0.00  0.00    -0.100 C 
ATOM     16  C   UNL     1      33.478 -23.024 -13.714  0.00  0.00    -0.101 C 
ATOM     17  C   UNL     1      31.909 -22.776 -15.530  0.00  0.00    -0.101 C 
ATOM     18  C   UNL     1      31.130 -23.434 -13.344  0.00  0.00    -0.101 C 
ATOM     19  H   UNL     1      34.182 -21.384 -15.699  0.00  0.00    -0.079 HD
ATOM     20  H   UNL     1      32.356 -24.502 -14.549  0.00  0.00    -0.080 HD
ENDBRANCH  11  12
ENDBRANCH   5  11
ENDBRANCH   3  10
BRANCH   2  21
ATOM     21  C   UNL     1      34.840 -15.939 -21.321  0.00  0.00    +0.052 C 
ATOM     22  C   UNL     1      33.989 -14.937 -20.888  0.00  0.00    +0.030 C 
ATOM     23  C   UNL     1      33.870 -13.771 -21.646  0.00  0.00    +0.059 C 
ATOM     24  C   UNL     1      35.576 -15.812 -22.487  0.00  0.00    +0.015 C 
ATOM     25  C   UNL     1      34.604 -13.626 -22.823  0.00  0.00    +0.015 C 
ATOM     26  C   UNL     1      35.457 -14.646 -23.243  0.00  0.00    +0.003 C 
BRANCH  23  27
ATOM     27  N   UNL     1      33.008 -12.739 -21.219  0.00  0.00    -0.247 N 
ATOM     28  N   UNL     1      33.677 -10.960 -22.596  0.00  0.00    -0.337 NA
ATOM     29  N   UNL     1      31.914 -10.677 -20.977  0.00  0.00    -0.170 NA
ATOM     30  C   UNL     1      32.860 -11.396 -21.616  0.00  0.00    +0.149 C 
ATOM     31  C   UNL     1      33.508  -9.669 -22.950  0.00  0.00    +0.147 C 
ATOM     32  C   UNL     1      32.575  -8.832 -22.373  0.00  0.00    +0.055 C 
ATOM     33  C   UNL     1      31.799  -9.395 -21.382  0.00  0.00    +0.114 C 
ATOM     34  H   UNL     1      32.390 -13.011 -20.503  0.00  0.00    +0.165 HD
BRANCH  31  36
ATOM     35  N   UNL     1      35.651  -9.688 -25.999  0.00  0.00    -0.242 NA
ATOM     36  C   UNL     1      34.382  -9.202 -23.999  0.00  0.00    +0.050 C 
ATOM     37  C   UNL     1      34.799  -7.876 -24.049  0.00  0.00    +0.006 C 
ATOM     38  C   UNL     1      34.833 -10.060 -24.990  0.00  0.00    +0.101 C 
ATOM     39  C   UNL     1      35.641  -7.456 -25.073  0.00  0.00    +0.021 C 
ATOM     40  C   UNL     1      36.034  -8.392 -26.014  0.00  0.00    +0.099 C 
ENDBRANCH  31  36
ENDBRANCH  23  27
ENDBRANCH   2  21
TORSDOF 6
ENDMDL
