MODEL 1
REMARK VINA RESULT:     -12.4      0.000      0.000
REMARK  Name = 448890
REMARK  6 active torsions:
REMARK  status: ('A' for Active; 'I' for Inactive)
REMARK    1  A    between atoms: C_1  and  C_2
REMARK    2  A    between atoms: C_1  and  C_17
REMARK    3  A    between atoms: C_2  and  C_3
REMARK    4  A    between atoms: C_3  and  N_4
REMARK    5  A    between atoms: C_8  and  C_11
REMARK    6  A    between atoms: C_17  and  N_21
REMARK                            x       y       z     vdW  Elec       q    Type
REMARK                         _______ _______ _______ _____ _____    ______ ____
ROOT
ATOM      1  C   UNL     1      33.432 -13.659 -24.509  0.00  0.00    +0.022 C 
ENDROOT
BRANCH   1   2
ATOM      2  C   UNL     1      33.838 -15.135 -24.588  0.00  0.00    -0.021 C 
BRANCH   2   3
ATOM      3  C   UNL     1      35.324 -15.313 -24.279  0.00  0.00    -0.077 C 
BRANCH   3   4
ATOM      4  N   UNL     1      35.515 -16.396 -23.316  0.00  0.00    +0.390 N 
ATOM      5  C   UNL     1      35.309 -15.924 -21.943  0.00  0.00    -0.072 C 
ATOM      6  C   UNL     1      34.620 -17.524 -23.616  0.00  0.00    -0.051 C 
ATOM      7  C   UNL     1      35.678 -17.036 -20.949  0.00  0.00    +0.003 C 
ATOM      8  C   UNL     1      35.063 -18.371 -21.302  0.00  0.00    -0.031 C 
ATOM      9  C   UNL     1      34.578 -18.577 -22.542  0.00  0.00    -0.053 C 
ATOM     10  H   UNL     1      36.479 -16.720 -23.395  0.00  0.00    -0.079 HD
BRANCH   8  11
ATOM     11  C   UNL     1      35.022 -19.425 -20.260  0.00  0.00    -0.004 C 
ATOM     12  C   UNL     1      33.797 -19.945 -19.837  0.00  0.00    -0.000 C 
ATOM     13  C   UNL     1      36.209 -19.902 -19.698  0.00  0.00    -0.000 C 
ATOM     14  C   UNL     1      33.758 -20.936 -18.856  0.00  0.00    -0.000 C 
ATOM     15  C   UNL     1      36.170 -20.893 -18.718  0.00  0.00    -0.000 C 
ATOM     16  C   UNL     1      34.945 -21.411 -18.296  0.00  0.00    -0.000 C 
ENDBRANCH   8  11
ENDBRANCH   3   4
ENDBRANCH   2   3
ENDBRANCH   1   2
BRANCH   1  17
ATOM     17  C   UNL     1      34.367 -12.840 -23.625  0.00  0.00    +0.110 C 
BRANCH  17  21
ATOM     18  F   UNL     1      31.119  -9.551 -19.581  0.00  0.00    -0.204 F 
ATOM     19  O   UNL     1      34.380 -10.330 -24.900  0.00  0.00    -0.246 OA
ATOM     20  O   UNL     1      31.926  -8.291 -21.622  0.00  0.00    -0.267 OA
ATOM     21  N   UNL     1      33.721 -11.643 -23.091  0.00  0.00    -0.281 N 
ATOM     22  N   UNL     1      33.156  -9.351 -23.246  0.00  0.00    -0.274 N 
ATOM     23  C   UNL     1      33.029 -11.721 -21.843  0.00  0.00    +0.071 A 
ATOM     24  C   UNL     1      33.796 -10.448 -23.819  0.00  0.00    +0.330 A 
ATOM     25  C   UNL     1      32.404 -10.585 -21.315  0.00  0.00    +0.099 A 
ATOM     26  C   UNL     1      32.950 -12.917 -21.108  0.00  0.00    +0.018 C 
ATOM     27  C   UNL     1      32.460  -9.309 -22.051  0.00  0.00    +0.265 A 
ATOM     28  C   UNL     1      31.720 -10.635 -20.093  0.00  0.00    +0.146 C 
ATOM     29  C   UNL     1      32.269 -12.970 -19.889  0.00  0.00    +0.004 C 
ATOM     30  C   UNL     1      31.654 -11.830 -19.382  0.00  0.00    +0.030 C 
ATOM     31  H   UNL     1      33.204  -8.507 -23.751  0.00  0.00    +0.173 HD
ENDBRANCH  17  21
ENDBRANCH   1  17
TORSDOF 6
ENDMDL
MODEL 2
REMARK VINA RESULT:     -12.1      7.921     12.526
REMARK  Name = 448890
REMARK  6 active torsions:
REMARK  status: ('A' for Active; 'I' for Inactive)
REMARK    1  A    between atoms: C_1  and  C_2
REMARK    2  A    between atoms: C_1  and  C_17
REMARK    3  A    between atoms: C_2  and  C_3
REMARK    4  A    between atoms: C_3  and  N_4
REMARK    5  A    between atoms: C_8  and  C_11
REMARK    6  A    between atoms: C_17  and  N_21
REMARK                            x       y       z     vdW  Elec       q    Type
REMARK                         _______ _______ _______ _____ _____    ______ ____
ROOT
ATOM      1  C   UNL     1      33.911 -22.869 -15.693  0.00  0.00    +0.022 C 
ENDROOT
BRANCH   1   2
ATOM      2  C   UNL     1      33.915 -22.204 -17.074  0.00  0.00    -0.021 C 
BRANCH   2   3
ATOM      3  C   UNL     1      35.331 -21.807 -17.489  0.00  0.00    -0.077 C 
BRANCH   3   4
ATOM      4  N   UNL     1      35.292 -20.651 -18.383  0.00  0.00    +0.390 N 
ATOM      5  C   UNL     1      36.424 -20.665 -19.314  0.00  0.00    -0.072 C 
ATOM      6  C   UNL     1      34.018 -20.603 -19.116  0.00  0.00    -0.051 C 
ATOM      7  C   UNL     1      36.449 -19.360 -20.124  0.00  0.00    +0.003 C 
ATOM      8  C   UNL     1      35.101 -19.001 -20.707  0.00  0.00    -0.031 C 
ATOM      9  C   UNL     1      33.988 -19.589 -20.228  0.00  0.00    -0.053 C 
ATOM     10  H   UNL     1      35.366 -19.810 -17.811  0.00  0.00    -0.079 HD
BRANCH   8  11
ATOM     11  C   UNL     1      35.050 -17.997 -21.796  0.00  0.00    -0.004 C 
ATOM     12  C   UNL     1      35.453 -16.682 -21.556  0.00  0.00    -0.000 C 
ATOM     13  C   UNL     1      34.599 -18.363 -23.067  0.00  0.00    -0.000 C 
ATOM     14  C   UNL     1      35.405 -15.737 -22.581  0.00  0.00    -0.000 C 
ATOM     15  C   UNL     1      34.551 -17.418 -24.091  0.00  0.00    -0.000 C 
ATOM     16  C   UNL     1      34.954 -16.104 -23.849  0.00  0.00    -0.000 C 
ENDBRANCH   8  11
ENDBRANCH   3   4
ENDBRANCH   2   3
ENDBRANCH   1   2
BRANCH   1  17
ATOM     17  C   UNL     1      34.779 -22.126 -14.682  0.00  0.00    +0.110 C 
BRANCH  17  21
ATOM     18  F   UNL     1      39.399 -25.423 -12.337  0.00  0.00    -0.204 F 
ATOM     19  O   UNL     1      33.493 -23.268 -12.453  0.00  0.00    -0.246 OA
ATOM     20  O   UNL     1      37.208 -25.554 -11.076  0.00  0.00    -0.267 OA
ATOM     21  N   UNL     1      35.426 -23.030 -13.734  0.00  0.00    -0.281 N 
ATOM     22  N   UNL     1      35.365 -24.391 -11.800  0.00  0.00    -0.274 N 
ATOM     23  C   UNL     1      36.799 -23.377 -13.926  0.00  0.00    +0.071 A 
ATOM     24  C   UNL     1      34.680 -23.536 -12.660  0.00  0.00    +0.330 A 
ATOM     25  C   UNL     1      37.436 -24.241 -13.027  0.00  0.00    +0.099 A 
ATOM     26  C   UNL     1      37.551 -22.873 -15.000  0.00  0.00    +0.018 C 
ATOM     27  C   UNL     1      36.687 -24.794 -11.885  0.00  0.00    +0.265 A 
ATOM     28  C   UNL     1      38.782 -24.595 -13.192  0.00  0.00    +0.146 C 
ATOM     29  C   UNL     1      38.894 -23.225 -15.167  0.00  0.00    +0.004 C 
ATOM     30  C   UNL     1      39.509 -24.085 -14.264  0.00  0.00    +0.030 C 
ATOM     31  H   UNL     1      34.849 -24.751 -11.042  0.00  0.00    +0.173 HD
ENDBRANCH  17  21
ENDBRANCH   1  17
TORSDOF 6
ENDMDL
MODEL 3
REMARK VINA RESULT:     -12.1      7.324     12.183
REMARK  Name = 448890
REMARK  6 active torsions:
REMARK  status: ('A' for Active; 'I' for Inactive)
REMARK    1  A    between atoms: C_1  and  C_2
REMARK    2  A    between atoms: C_1  and  C_17
REMARK    3  A    between atoms: C_2  and  C_3
REMARK    4  A    between atoms: C_3  and  N_4
REMARK    5  A    between atoms: C_8  and  C_11
REMARK    6  A    between atoms: C_17  and  N_21
REMARK                            x       y       z     vdW  Elec       q    Type
REMARK                         _______ _______ _______ _____ _____    ______ ____
ROOT
ATOM      1  C   UNL     1      34.042 -23.082 -15.030  0.00  0.00    +0.022 C 
ENDROOT
BRANCH   1   2
ATOM      2  C   UNL     1      33.249 -22.408 -16.155  0.00  0.00    -0.021 C 
BRANCH   2   3
ATOM      3  C   UNL     1      33.870 -22.703 -17.519  0.00  0.00    -0.077 C 
BRANCH   3   4
ATOM      4  N   UNL     1      34.203 -21.456 -18.205  0.00  0.00    +0.390 N 
ATOM      5  C   UNL     1      35.339 -21.639 -19.114  0.00  0.00    -0.072 C 
ATOM      6  C   UNL     1      33.036 -20.934 -18.932  0.00  0.00    -0.051 C 
ATOM      7  C   UNL     1      35.770 -20.282 -19.691  0.00  0.00    +0.003 C 
ATOM      8  C   UNL     1      34.609 -19.470 -20.218  0.00  0.00    -0.031 C 
ATOM      9  C   UNL     1      33.351 -19.789 -19.856  0.00  0.00    -0.053 C 
ATOM     10  H   UNL     1      34.474 -20.772 -17.498  0.00  0.00    -0.079 HD
BRANCH   8  11
ATOM     11  C   UNL     1      34.899 -18.331 -21.121  0.00  0.00    -0.004 C 
ATOM     12  C   UNL     1      34.754 -18.477 -22.502  0.00  0.00    -0.000 C 
ATOM     13  C   UNL     1      35.319 -17.107 -20.594  0.00  0.00    -0.000 C 
ATOM     14  C   UNL     1      35.027 -17.405 -23.352  0.00  0.00    -0.000 C 
ATOM     15  C   UNL     1      35.592 -16.035 -21.444  0.00  0.00    -0.000 C 
ATOM     16  C   UNL     1      35.447 -16.184 -22.823  0.00  0.00    -0.000 C 
ENDBRANCH   8  11
ENDBRANCH   3   4
ENDBRANCH   2   3
ENDBRANCH   1   2
BRANCH   1  17
ATOM     17  C   UNL     1      35.035 -22.136 -14.363  0.00  0.00    +0.110 C 
BRANCH  17  21
ATOM     18  F   UNL     1      40.032 -25.383 -12.882  0.00  0.00    -0.204 F 
ATOM     19  O   UNL     1      36.813 -21.250 -16.359  0.00  0.00    -0.246 OA
ATOM     20  O   UNL     1      40.271 -23.858 -14.889  0.00  0.00    -0.267 OA
ATOM     21  N   UNL     1      36.416 -22.594 -14.497  0.00  0.00    -0.281 N 
ATOM     22  N   UNL     1      38.510 -22.564 -15.595  0.00  0.00    -0.274 N 
ATOM     23  C   UNL     1      36.925 -23.553 -13.568  0.00  0.00    +0.071 A 
ATOM     24  C   UNL     1      37.206 -22.079 -15.534  0.00  0.00    +0.330 A 
ATOM     25  C   UNL     1      38.246 -24.005 -13.680  0.00  0.00    +0.099 A 
ATOM     26  C   UNL     1      36.137 -24.073 -12.526  0.00  0.00    +0.018 C 
ATOM     27  C   UNL     1      39.109 -23.488 -14.756  0.00  0.00    +0.265 A 
ATOM     28  C   UNL     1      38.769 -24.946 -12.782  0.00  0.00    +0.146 C 
ATOM     29  C   UNL     1      36.657 -25.011 -11.630  0.00  0.00    +0.004 C 
ATOM     30  C   UNL     1      37.971 -25.447 -11.757  0.00  0.00    +0.030 C 
ATOM     31  H   UNL     1      39.073 -22.208 -16.321  0.00  0.00    +0.173 HD
ENDBRANCH  17  21
ENDBRANCH   1  17
TORSDOF 6
ENDMDL
MODEL 4
REMARK VINA RESULT:     -11.9      1.627      2.907
REMARK  Name = 448890
REMARK  6 active torsions:
REMARK  status: ('A' for Active; 'I' for Inactive)
REMARK    1  A    between atoms: C_1  and  C_2
REMARK    2  A    between atoms: C_1  and  C_17
REMARK    3  A    between atoms: C_2  and  C_3
REMARK    4  A    between atoms: C_3  and  N_4
REMARK    5  A    between atoms: C_8  and  C_11
REMARK    6  A    between atoms: C_17  and  N_21
REMARK                            x       y       z     vdW  Elec       q    Type
REMARK                         _______ _______ _______ _____ _____    ______ ____
ROOT
ATOM      1  C   UNL     1      33.552 -13.332 -24.326  0.00  0.00    +0.022 C 
ENDROOT
BRANCH   1   2
ATOM      2  C   UNL     1      33.831 -14.838 -24.363  0.00  0.00    -0.021 C 
BRANCH   2   3
ATOM      3  C   UNL     1      35.322 -15.126 -24.185  0.00  0.00    -0.077 C 
BRANCH   3   4
ATOM      4  N   UNL     1      35.516 -16.233 -23.251  0.00  0.00    +0.390 N 
ATOM      5  C   UNL     1      35.274 -15.807 -21.869  0.00  0.00    -0.072 C 
ATOM      6  C   UNL     1      34.650 -17.369 -23.602  0.00  0.00    -0.051 C 
ATOM      7  C   UNL     1      35.647 -16.940 -20.901  0.00  0.00    +0.003 C 
ATOM      8  C   UNL     1      35.066 -18.277 -21.306  0.00  0.00    -0.031 C 
ATOM      9  C   UNL     1      34.609 -18.454 -22.560  0.00  0.00    -0.053 C 
ATOM     10  H   UNL     1      36.488 -16.536 -23.321  0.00  0.00    -0.079 HD
BRANCH   8  11
ATOM     11  C   UNL     1      35.026 -19.361 -20.296  0.00  0.00    -0.004 C 
ATOM     12  C   UNL     1      36.213 -19.851 -19.747  0.00  0.00    -0.000 C 
ATOM     13  C   UNL     1      33.801 -19.896 -19.890  0.00  0.00    -0.000 C 
ATOM     14  C   UNL     1      36.175 -20.872 -18.796  0.00  0.00    -0.000 C 
ATOM     15  C   UNL     1      33.764 -20.917 -18.940  0.00  0.00    -0.000 C 
ATOM     16  C   UNL     1      34.950 -21.405 -18.393  0.00  0.00    -0.000 C 
ENDBRANCH   8  11
ENDBRANCH   3   4
ENDBRANCH   2   3
ENDBRANCH   1   2
BRANCH   1  17
ATOM     17  C   UNL     1      34.351 -12.614 -23.243  0.00  0.00    +0.110 C 
BRANCH  17  21
ATOM     18  F   UNL     1      33.292  -6.575 -22.903  0.00  0.00    -0.204 F 
ATOM     19  O   UNL     1      32.245 -12.584 -21.375  0.00  0.00    -0.246 OA
ATOM     20  O   UNL     1      31.817  -8.030 -21.449  0.00  0.00    -0.267 OA
ATOM     21  N   UNL     1      33.687 -11.401 -22.773  0.00  0.00    -0.281 N 
ATOM     22  N   UNL     1      32.064 -10.313 -21.440  0.00  0.00    -0.274 N 
ATOM     23  C   UNL     1      34.112 -10.133 -23.276  0.00  0.00    +0.071 A 
ATOM     24  C   UNL     1      32.648 -11.513 -21.839  0.00  0.00    +0.330 A 
ATOM     25  C   UNL     1      33.487  -8.959 -22.838  0.00  0.00    +0.099 A 
ATOM     26  C   UNL     1      35.153 -10.014 -24.213  0.00  0.00    +0.018 C 
ATOM     27  C   UNL     1      32.391  -9.035 -21.857  0.00  0.00    +0.265 A 
ATOM     28  C   UNL     1      33.885  -7.703 -23.317  0.00  0.00    +0.146 C 
ATOM     29  C   UNL     1      35.552  -8.764 -24.692  0.00  0.00    +0.004 C 
ATOM     30  C   UNL     1      34.919  -7.609 -24.244  0.00  0.00    +0.030 C 
ATOM     31  H   UNL     1      31.332 -10.382 -20.784  0.00  0.00    +0.173 HD
ENDBRANCH  17  21
ENDBRANCH   1  17
TORSDOF 6
ENDMDL
MODEL 5
REMARK VINA RESULT:     -11.7      7.956     12.614
REMARK  Name = 448890
REMARK  6 active torsions:
REMARK  status: ('A' for Active; 'I' for Inactive)
REMARK    1  A    between atoms: C_1  and  C_2
REMARK    2  A    between atoms: C_1  and  C_17
REMARK    3  A    between atoms: C_2  and  C_3
REMARK    4  A    between atoms: C_3  and  N_4
REMARK    5  A    between atoms: C_8  and  C_11
REMARK    6  A    between atoms: C_17  and  N_21
REMARK                            x       y       z     vdW  Elec       q    Type
REMARK                         _______ _______ _______ _____ _____    ______ ____
ROOT
ATOM      1  C   UNL     1      33.800 -22.838 -15.279  0.00  0.00    +0.022 C 
ENDROOT
BRANCH   1   2
ATOM      2  C   UNL     1      34.554 -22.365 -16.526  0.00  0.00    -0.021 C 
BRANCH   2   3
ATOM      3  C   UNL     1      33.839 -22.808 -17.802  0.00  0.00    -0.077 C 
BRANCH   3   4
ATOM      4  N   UNL     1      34.053 -21.830 -18.867  0.00  0.00    +0.390 N 
ATOM      5  C   UNL     1      33.087 -20.730 -18.777  0.00  0.00    -0.072 C 
ATOM      6  C   UNL     1      35.430 -21.315 -18.833  0.00  0.00    -0.051 C 
ATOM      7  C   UNL     1      33.228 -19.811 -19.999  0.00  0.00    +0.003 C 
ATOM      8  C   UNL     1      34.662 -19.427 -20.287  0.00  0.00    -0.031 C 
ATOM      9  C   UNL     1      35.667 -20.135 -19.736  0.00  0.00    -0.053 C 
ATOM     10  H   UNL     1      33.909 -22.302 -19.760  0.00  0.00    -0.079 HD
BRANCH   8  11
ATOM     11  C   UNL     1      34.915 -18.274 -21.184  0.00  0.00    -0.004 C 
ATOM     12  C   UNL     1      34.736 -18.404 -22.562  0.00  0.00    -0.000 C 
ATOM     13  C   UNL     1      35.333 -17.051 -20.652  0.00  0.00    -0.000 C 
ATOM     14  C   UNL     1      34.974 -17.318 -23.405  0.00  0.00    -0.000 C 
ATOM     15  C   UNL     1      35.571 -15.966 -21.495  0.00  0.00    -0.000 C 
ATOM     16  C   UNL     1      35.392 -16.099 -22.872  0.00  0.00    -0.000 C 
ENDBRANCH   8  11
ENDBRANCH   3   4
ENDBRANCH   2   3
ENDBRANCH   1   2
BRANCH   1  17
ATOM     17  C   UNL     1      34.409 -24.096 -14.667  0.00  0.00    +0.110 C 
BRANCH  17  21
ATOM     18  F   UNL     1      39.275 -23.654 -10.947  0.00  0.00    -0.204 F 
ATOM     19  O   UNL     1      33.149 -23.234 -12.302  0.00  0.00    -0.246 OA
ATOM     20  O   UNL     1      37.045 -23.052  -9.911  0.00  0.00    -0.267 OA
ATOM     21  N   UNL     1      35.110 -23.822 -13.415  0.00  0.00    -0.281 N 
ATOM     22  N   UNL     1      35.111 -23.156 -11.145  0.00  0.00    -0.274 N 
ATOM     23  C   UNL     1      36.528 -23.996 -13.357  0.00  0.00    +0.071 A 
ATOM     24  C   UNL     1      34.372 -23.397 -12.302  0.00  0.00    +0.330 A 
ATOM     25  C   UNL     1      37.217 -23.738 -12.166  0.00  0.00    +0.099 A 
ATOM     26  C   UNL     1      37.272 -24.421 -14.470  0.00  0.00    +0.018 C 
ATOM     27  C   UNL     1      36.478 -23.289 -10.973  0.00  0.00    +0.265 A 
ATOM     28  C   UNL     1      38.607 -23.899 -12.083  0.00  0.00    +0.146 C 
ATOM     29  C   UNL     1      38.658 -24.583 -14.390  0.00  0.00    +0.004 C 
ATOM     30  C   UNL     1      39.325 -24.322 -13.198  0.00  0.00    +0.030 C 
ATOM     31  H   UNL     1      34.601 -22.857 -10.358  0.00  0.00    +0.173 HD
ENDBRANCH  17  21
ENDBRANCH   1  17
TORSDOF 6
ENDMDL
MODEL 6
REMARK VINA RESULT:     -11.3      1.109      1.627
REMARK  Name = 448890
REMARK  6 active torsions:
REMARK  status: ('A' for Active; 'I' for Inactive)
REMARK    1  A    between atoms: C_1  and  C_2
REMARK    2  A    between atoms: C_1  and  C_17
REMARK    3  A    between atoms: C_2  and  C_3
REMARK    4  A    between atoms: C_3  and  N_4
REMARK    5  A    between atoms: C_8  and  C_11
REMARK    6  A    between atoms: C_17  and  N_21
REMARK                            x       y       z     vdW  Elec       q    Type
REMARK                         _______ _______ _______ _____ _____    ______ ____
ROOT
ATOM      1  C   UNL     1      34.192 -13.009 -22.596  0.00  0.00    +0.022 C 
ENDROOT
BRANCH   1   2
ATOM      2  C   UNL     1      34.217 -14.342 -23.352  0.00  0.00    -0.021 C 
BRANCH   2   3
ATOM      3  C   UNL     1      35.630 -14.922 -23.397  0.00  0.00    -0.077 C 
BRANCH   3   4
ATOM      4  N   UNL     1      35.716 -16.113 -22.555  0.00  0.00    +0.390 N 
ATOM      5  C   UNL     1      35.297 -15.821 -21.181  0.00  0.00    -0.072 C 
ATOM      6  C   UNL     1      34.914 -17.209 -23.121  0.00  0.00    -0.051 C 
ATOM      7  C   UNL     1      35.555 -17.042 -20.286  0.00  0.00    +0.003 C 
ATOM      8  C   UNL     1      35.045 -18.333 -20.887  0.00  0.00    -0.031 C 
ATOM      9  C   UNL     1      34.753 -18.389 -22.200  0.00  0.00    -0.053 C 
ATOM     10  H   UNL     1      36.692 -16.409 -22.529  0.00  0.00    -0.079 HD
BRANCH   8  11
ATOM     11  C   UNL     1      34.889 -19.509 -19.998  0.00  0.00    -0.004 C 
ATOM     12  C   UNL     1      36.014 -20.124 -19.445  0.00  0.00    -0.000 C 
ATOM     13  C   UNL     1      33.615 -20.006 -19.710  0.00  0.00    -0.000 C 
ATOM     14  C   UNL     1      35.867 -21.231 -18.608  0.00  0.00    -0.000 C 
ATOM     15  C   UNL     1      33.468 -21.113 -18.874  0.00  0.00    -0.000 C 
ATOM     16  C   UNL     1      34.594 -21.725 -18.323  0.00  0.00    -0.000 C 
ENDBRANCH   8  11
ENDBRANCH   3   4
ENDBRANCH   2   3
ENDBRANCH   1   2
BRANCH   1  17
ATOM     17  C   UNL     1      32.793 -12.405 -22.519  0.00  0.00    +0.110 C 
BRANCH  17  21
ATOM     18  F   UNL     1      31.987  -7.715 -18.638  0.00  0.00    -0.204 F 
ATOM     19  O   UNL     1      33.635 -10.266 -24.144  0.00  0.00    -0.246 OA
ATOM     20  O   UNL     1      32.878  -7.103 -20.927  0.00  0.00    -0.267 OA
ATOM     21  N   UNL     1      32.813 -11.008 -22.093  0.00  0.00    -0.281 N 
ATOM     22  N   UNL     1      33.244  -8.721 -22.515  0.00  0.00    -0.274 N 
ATOM     23  C   UNL     1      32.382 -10.675 -20.771  0.00  0.00    +0.071 A 
ATOM     24  C   UNL     1      33.254 -10.029 -22.994  0.00  0.00    +0.330 A 
ATOM     25  C   UNL     1      32.395  -9.342 -20.345  0.00  0.00    +0.099 A 
ATOM     26  C   UNL     1      31.939 -11.653 -19.864  0.00  0.00    +0.018 C 
ATOM     27  C   UNL     1      32.852  -8.283 -21.262  0.00  0.00    +0.265 A 
ATOM     28  C   UNL     1      31.978  -8.989 -19.054  0.00  0.00    +0.146 C 
ATOM     29  C   UNL     1      31.523 -11.304 -18.576  0.00  0.00    +0.004 C 
ATOM     30  C   UNL     1      31.542  -9.973 -18.171  0.00  0.00    +0.030 C 
ATOM     31  H   UNL     1      33.553  -8.026 -23.141  0.00  0.00    +0.173 HD
ENDBRANCH  17  21
ENDBRANCH   1  17
TORSDOF 6
ENDMDL
MODEL 7
REMARK VINA RESULT:     -11.3      2.725      4.361
REMARK  Name = 448890
REMARK  6 active torsions:
REMARK  status: ('A' for Active; 'I' for Inactive)
REMARK    1  A    between atoms: C_1  and  C_2
REMARK    2  A    between atoms: C_1  and  C_17
REMARK    3  A    between atoms: C_2  and  C_3
REMARK    4  A    between atoms: C_3  and  N_4
REMARK    5  A    between atoms: C_8  and  C_11
REMARK    6  A    between atoms: C_17  and  N_21
REMARK                            x       y       z     vdW  Elec       q    Type
REMARK                         _______ _______ _______ _____ _____    ______ ____
ROOT
ATOM      1  C   UNL     1      32.944 -10.596 -22.226  0.00  0.00    +0.022 C 
ENDROOT
BRANCH   1   2
ATOM      2  C   UNL     1      33.107 -12.038 -21.733  0.00  0.00    -0.021 C 
BRANCH   2   3
ATOM      3  C   UNL     1      34.204 -12.764 -22.509  0.00  0.00    -0.077 C 
BRANCH   3   4
ATOM      4  N   UNL     1      34.303 -14.153 -22.065  0.00  0.00    +0.390 N 
ATOM      5  C   UNL     1      35.282 -14.895 -22.866  0.00  0.00    -0.072 C 
ATOM      6  C   UNL     1      34.644 -14.221 -20.636  0.00  0.00    -0.051 C 
ATOM      7  C   UNL     1      35.243 -16.384 -22.490  0.00  0.00    +0.003 C 
ATOM      8  C   UNL     1      35.279 -16.617 -20.996  0.00  0.00    -0.031 C 
ATOM      9  C   UNL     1      35.000 -15.602 -20.155  0.00  0.00    -0.053 C 
ATOM     10  H   UNL     1      33.391 -14.591 -22.200  0.00  0.00    -0.079 HD
BRANCH   8  11
ATOM     11  C   UNL     1      35.617 -17.973 -20.503  0.00  0.00    -0.004 C 
ATOM     12  C   UNL     1      36.951 -18.334 -20.305  0.00  0.00    -0.000 C 
ATOM     13  C   UNL     1      34.602 -18.894 -20.234  0.00  0.00    -0.000 C 
ATOM     14  C   UNL     1      37.270 -19.610 -19.841  0.00  0.00    -0.000 C 
ATOM     15  C   UNL     1      34.921 -20.171 -19.770  0.00  0.00    -0.000 C 
ATOM     16  C   UNL     1      36.254 -20.529 -19.573  0.00  0.00    -0.000 C 
ENDBRANCH   8  11
ENDBRANCH   3   4
ENDBRANCH   2   3
ENDBRANCH   1   2
BRANCH   1  17
ATOM     17  C   UNL     1      31.694  -9.923 -21.668  0.00  0.00    +0.110 C 
BRANCH  17  21
ATOM     18  F   UNL     1      32.665  -4.040 -20.196  0.00  0.00    -0.204 F 
ATOM     19  O   UNL     1      32.271 -10.186 -18.925  0.00  0.00    -0.246 OA
ATOM     20  O   UNL     1      32.902  -5.698 -18.298  0.00  0.00    -0.267 OA
ATOM     21  N   UNL     1      32.012  -8.804 -20.784  0.00  0.00    -0.281 N 
ATOM     22  N   UNL     1      32.577  -7.944 -18.654  0.00  0.00    -0.274 N 
ATOM     23  C   UNL     1      32.040  -7.478 -21.318  0.00  0.00    +0.071 A 
ATOM     24  C   UNL     1      32.282  -9.061 -19.433  0.00  0.00    +0.330 A 
ATOM     25  C   UNL     1      32.343  -6.394 -20.486  0.00  0.00    +0.099 A 
ATOM     26  C   UNL     1      31.769  -7.215 -22.672  0.00  0.00    +0.018 C 
ATOM     27  C   UNL     1      32.633  -6.622 -19.060  0.00  0.00    +0.265 A 
ATOM     28  C   UNL     1      32.376  -5.084 -20.986  0.00  0.00    +0.146 C 
ATOM     29  C   UNL     1      31.802  -5.911 -23.172  0.00  0.00    +0.004 C 
ATOM     30  C   UNL     1      32.105  -4.846 -22.330  0.00  0.00    +0.030 C 
ATOM     31  H   UNL     1      32.768  -8.115 -17.703  0.00  0.00    +0.173 HD
ENDBRANCH  17  21
ENDBRANCH   1  17
TORSDOF 6
ENDMDL
MODEL 8
REMARK VINA RESULT:     -11.3      8.061     12.799
REMARK  Name = 448890
REMARK  6 active torsions:
REMARK  status: ('A' for Active; 'I' for Inactive)
REMARK    1  A    between atoms: C_1  and  C_2
REMARK    2  A    between atoms: C_1  and  C_17
REMARK    3  A    between atoms: C_2  and  C_3
REMARK    4  A    between atoms: C_3  and  N_4
REMARK    5  A    between atoms: C_8  and  C_11
REMARK    6  A    between atoms: C_17  and  N_21
REMARK                            x       y       z     vdW  Elec       q    Type
REMARK                         _______ _______ _______ _____ _____    ______ ____
ROOT
ATOM      1  C   UNL     1      34.342 -22.843 -14.541  0.00  0.00    +0.022 C 
ENDROOT
BRANCH   1   2
ATOM      2  C   UNL     1      34.892 -22.504 -15.930  0.00  0.00    -0.021 C 
BRANCH   2   3
ATOM      3  C   UNL     1      33.867 -22.820 -17.019  0.00  0.00    -0.077 C 
BRANCH   3   4
ATOM      4  N   UNL     1      34.102 -21.984 -18.194  0.00  0.00    +0.390 N 
ATOM      5  C   UNL     1      33.075 -20.944 -18.316  0.00  0.00    -0.072 C 
ATOM      6  C   UNL     1      35.444 -21.385 -18.147  0.00  0.00    -0.051 C 
ATOM      7  C   UNL     1      33.251 -20.191 -19.643  0.00  0.00    +0.003 C 
ATOM      8  C   UNL     1      34.679 -19.761 -19.894  0.00  0.00    -0.031 C 
ATOM      9  C   UNL     1      35.680 -20.325 -19.189  0.00  0.00    -0.053 C 
ATOM     10  H   UNL     1      34.044 -22.580 -19.020  0.00  0.00    -0.079 HD
BRANCH   8  11
ATOM     11  C   UNL     1      34.932 -18.726 -20.924  0.00  0.00    -0.004 C 
ATOM     12  C   UNL     1      34.616 -18.974 -22.261  0.00  0.00    -0.000 C 
ATOM     13  C   UNL     1      35.488 -17.497 -20.560  0.00  0.00    -0.000 C 
ATOM     14  C   UNL     1      34.854 -18.000 -23.230  0.00  0.00    -0.000 C 
ATOM     15  C   UNL     1      35.726 -16.522 -21.529  0.00  0.00    -0.000 C 
ATOM     16  C   UNL     1      35.409 -16.773 -22.864  0.00  0.00    -0.000 C 
ENDBRANCH   8  11
ENDBRANCH   3   4
ENDBRANCH   2   3
ENDBRANCH   1   2
BRANCH   1  17
ATOM     17  C   UNL     1      34.620 -24.288 -14.137  0.00  0.00    +0.110 C 
BRANCH  17  21
ATOM     18  F   UNL     1      40.317 -23.730 -11.913  0.00  0.00    -0.204 F 
ATOM     19  O   UNL     1      35.974 -26.139 -15.770  0.00  0.00    -0.246 OA
ATOM     20  O   UNL     1      40.035 -25.391 -13.802  0.00  0.00    -0.267 OA
ATOM     21  N   UNL     1      36.049 -24.575 -14.044  0.00  0.00    -0.281 N 
ATOM     22  N   UNL     1      37.979 -25.738 -14.764  0.00  0.00    -0.274 N 
ATOM     23  C   UNL     1      36.837 -23.886 -13.071  0.00  0.00    +0.071 A 
ATOM     24  C   UNL     1      36.611 -25.519 -14.914  0.00  0.00    +0.330 A 
ATOM     25  C   UNL     1      38.209 -24.147 -12.966  0.00  0.00    +0.099 A 
ATOM     26  C   UNL     1      36.279 -22.938 -12.196  0.00  0.00    +0.018 C 
ATOM     27  C   UNL     1      38.838 -25.133 -13.863  0.00  0.00    +0.265 A 
ATOM     28  C   UNL     1      39.003 -23.486 -12.020  0.00  0.00    +0.146 C 
ATOM     29  C   UNL     1      37.069 -22.277 -11.251  0.00  0.00    +0.004 C 
ATOM     30  C   UNL     1      38.430 -22.550 -11.163  0.00  0.00    +0.030 C 
ATOM     31  H   UNL     1      38.383 -26.400 -15.371  0.00  0.00    +0.173 HD
ENDBRANCH  17  21
ENDBRANCH   1  17
TORSDOF 6
ENDMDL
MODEL 9
REMARK VINA RESULT:     -11.3      1.897      2.768
REMARK  Name = 448890
REMARK  6 active torsions:
REMARK  status: ('A' for Active; 'I' for Inactive)
REMARK    1  A    between atoms: C_1  and  C_2
REMARK    2  A    between atoms: C_1  and  C_17
REMARK    3  A    between atoms: C_2  and  C_3
REMARK    4  A    between atoms: C_3  and  N_4
REMARK    5  A    between atoms: C_8  and  C_11
REMARK    6  A    between atoms: C_17  and  N_21
REMARK                            x       y       z     vdW  Elec       q    Type
REMARK                         _______ _______ _______ _____ _____    ______ ____
ROOT
ATOM      1  C   UNL     1      33.819 -12.695 -22.891  0.00  0.00    +0.022 C 
ENDROOT
BRANCH   1   2
ATOM      2  C   UNL     1      33.914 -14.166 -23.308  0.00  0.00    -0.021 C 
BRANCH   2   3
ATOM      3  C   UNL     1      35.371 -14.618 -23.403  0.00  0.00    -0.077 C 
BRANCH   3   4
ATOM      4  N   UNL     1      35.589 -15.800 -22.572  0.00  0.00    +0.390 N 
ATOM      5  C   UNL     1      35.069 -15.597 -21.216  0.00  0.00    -0.072 C 
ATOM      6  C   UNL     1      34.982 -16.990 -23.187  0.00  0.00    -0.051 C 
ATOM      7  C   UNL     1      35.460 -16.784 -20.323  0.00  0.00    +0.003 C 
ATOM      8  C   UNL     1      35.171 -18.123 -20.962  0.00  0.00    -0.031 C 
ATOM      9  C   UNL     1      34.951 -18.198 -22.289  0.00  0.00    -0.053 C 
ATOM     10  H   UNL     1      36.596 -15.953 -22.502  0.00  0.00    -0.079 HD
BRANCH   8  11
ATOM     11  C   UNL     1      35.147 -19.326 -20.095  0.00  0.00    -0.004 C 
ATOM     12  C   UNL     1      33.931 -19.929 -19.768  0.00  0.00    -0.000 C 
ATOM     13  C   UNL     1      36.340 -19.860 -19.604  0.00  0.00    -0.000 C 
ATOM     14  C   UNL     1      33.908 -21.061 -18.952  0.00  0.00    -0.000 C 
ATOM     15  C   UNL     1      36.318 -20.992 -18.789  0.00  0.00    -0.000 C 
ATOM     16  C   UNL     1      35.102 -21.592 -18.463  0.00  0.00    -0.000 C 
ENDBRANCH   8  11
ENDBRANCH   3   4
ENDBRANCH   2   3
ENDBRANCH   1   2
BRANCH   1  17
ATOM     17  C   UNL     1      32.386 -12.259 -22.601  0.00  0.00    +0.110 C 
BRANCH  17  21
ATOM     18  F   UNL     1      32.063  -7.438 -18.810  0.00  0.00    -0.204 F 
ATOM     19  O   UNL     1      32.107 -13.585 -20.133  0.00  0.00    -0.246 OA
ATOM     20  O   UNL     1      31.911  -9.711 -17.708  0.00  0.00    -0.267 OA
ATOM     21  N   UNL     1      32.262 -11.581 -21.313  0.00  0.00    -0.281 N 
ATOM     22  N   UNL     1      32.014 -11.633 -18.961  0.00  0.00    -0.274 N 
ATOM     23  C   UNL     1      32.280 -10.152 -21.271  0.00  0.00    +0.071 A 
ATOM     24  C   UNL     1      32.127 -12.351 -20.149  0.00  0.00    +0.330 A 
ATOM     25  C   UNL     1      32.162  -9.485 -20.046  0.00  0.00    +0.099 A 
ATOM     26  C   UNL     1      32.414  -9.375 -22.435  0.00  0.00    +0.018 C 
ATOM     27  C   UNL     1      32.019 -10.258 -18.801  0.00  0.00    +0.265 A 
ATOM     28  C   UNL     1      32.176  -8.085 -19.979  0.00  0.00    +0.146 C 
ATOM     29  C   UNL     1      32.429  -7.979 -22.370  0.00  0.00    +0.004 C 
ATOM     30  C   UNL     1      32.310  -7.334 -21.144  0.00  0.00    +0.030 C 
ATOM     31  H   UNL     1      31.919 -12.166 -18.138  0.00  0.00    +0.173 HD
ENDBRANCH  17  21
ENDBRANCH   1  17
TORSDOF 6
ENDMDL
