MODEL 1
REMARK VINA RESULT:     -11.5      0.000      0.000
REMARK  Name = 9896504
REMARK  6 active torsions:
REMARK  status: ('A' for Active; 'I' for Inactive)
REMARK    1  A    between atoms: N_4  and  C_22
REMARK    2  A    between atoms: C_11  and  C_13
REMARK    3  A    between atoms: C_13  and  O_14
REMARK    4  A    between atoms: O_14  and  C_15
REMARK    5  A    between atoms: C_15  and  C_16
REMARK    6  A    between atoms: C_22  and  C_23
REMARK                            x       y       z     vdW  Elec       q    Type
REMARK                         _______ _______ _______ _____ _____    ______ ____
ROOT
ATOM      1  S   UNL     1      32.396 -23.351 -14.046  0.00  0.00    -0.064 S 
ATOM      2  O   UNL     1      37.213 -22.420 -14.332  0.00  0.00    -0.251 OA
ATOM      3  O   UNL     1      35.705 -24.379 -10.353  0.00  0.00    -0.269 OA
ATOM      4  N   UNL     1      36.525 -23.408 -12.321  0.00  0.00    -0.206 N 
ATOM      5  N   UNL     1      34.979 -22.925 -14.031  0.00  0.00    -0.214 N 
ATOM      6  C   UNL     1      33.952 -23.427 -13.264  0.00  0.00    +0.094 C 
ATOM      7  C   UNL     1      36.312 -22.879 -13.625  0.00  0.00    +0.321 C 
ATOM      8  C   UNL     1      35.523 -23.930 -11.484  0.00  0.00    +0.258 C 
ATOM      9  C   UNL     1      34.148 -23.921 -12.041  0.00  0.00    +0.080 C 
ATOM     10  C   UNL     1      34.495 -22.483 -15.240  0.00  0.00    +0.087 C 
ATOM     11  C   UNL     1      33.180 -22.634 -15.399  0.00  0.00    +0.122 C 
ENDROOT
BRANCH  11  13
ATOM     12  O   UNL     1      31.228 -22.027 -16.597  0.00  0.00    -0.244 OA
ATOM     13  C   UNL     1      32.436 -22.245 -16.584  0.00  0.00    +0.349 C 
BRANCH  13  14
ATOM     14  O   UNL     1      33.289 -22.168 -17.642  0.00  0.00    -0.440 OA
BRANCH  14  15
ATOM     15  C   UNL     1      33.034 -21.112 -18.574  0.00  0.00    +0.235 C 
BRANCH  15  16
ATOM     16  C   UNL     1      34.342 -20.553 -19.050  0.00  0.00    +0.021 C 
ATOM     17  C   UNL     1      35.531 -21.019 -18.502  0.00  0.00    -0.001 C 
ATOM     18  C   UNL     1      34.354 -19.573 -20.037  0.00  0.00    -0.001 C 
ATOM     19  C   UNL     1      36.748 -20.500 -18.946  0.00  0.00    -0.000 C 
ATOM     20  C   UNL     1      35.570 -19.053 -20.481  0.00  0.00    -0.000 C 
ATOM     21  C   UNL     1      36.767 -19.518 -19.935  0.00  0.00    -0.000 C 
ENDBRANCH  15  16
ENDBRANCH  14  15
ENDBRANCH  13  14
ENDBRANCH  11  13
BRANCH   4  22
ATOM     22  C   UNL     1      37.884 -23.414 -11.790  0.00  0.00    +0.129 C 
BRANCH  22  23
ATOM     23  C   UNL     1      38.802 -24.275 -12.607  0.00  0.00    -0.002 C 
ATOM     24  C   UNL     1      40.051 -23.790 -12.977  0.00  0.00    -0.003 C 
ATOM     25  C   UNL     1      38.397 -25.550 -12.983  0.00  0.00    -0.003 C 
ATOM     26  C   UNL     1      40.906 -24.590 -13.736  0.00  0.00    -0.000 C 
ATOM     27  C   UNL     1      39.251 -26.351 -13.740  0.00  0.00    -0.000 C 
ATOM     28  C   UNL     1      40.506 -25.871 -14.117  0.00  0.00    -0.000 C 
ENDBRANCH  22  23
ENDBRANCH   4  22
TORSDOF 6
ENDMDL
MODEL 2
REMARK VINA RESULT:     -11.1      8.121     11.596
REMARK  Name = 9896504
REMARK  6 active torsions:
REMARK  status: ('A' for Active; 'I' for Inactive)
REMARK    1  A    between atoms: N_4  and  C_22
REMARK    2  A    between atoms: C_11  and  C_13
REMARK    3  A    between atoms: C_13  and  O_14
REMARK    4  A    between atoms: O_14  and  C_15
REMARK    5  A    between atoms: C_15  and  C_16
REMARK    6  A    between atoms: C_22  and  C_23
REMARK                            x       y       z     vdW  Elec       q    Type
REMARK                         _______ _______ _______ _____ _____    ______ ____
ROOT
ATOM      1  S   UNL     1      33.755 -13.735 -23.508  0.00  0.00    -0.064 S 
ATOM      2  O   UNL     1      35.437 -15.760 -19.359  0.00  0.00    -0.251 OA
ATOM      3  O   UNL     1      36.021 -18.259 -23.278  0.00  0.00    -0.269 OA
ATOM      4  N   UNL     1      35.768 -17.056 -21.283  0.00  0.00    -0.206 N 
ATOM      5  N   UNL     1      34.706 -14.957 -21.397  0.00  0.00    -0.214 N 
ATOM      6  C   UNL     1      34.550 -15.093 -22.758  0.00  0.00    +0.094 C 
ATOM      7  C   UNL     1      35.313 -15.907 -20.577  0.00  0.00    +0.321 C 
ATOM      8  C   UNL     1      35.636 -17.262 -22.668  0.00  0.00    +0.258 C 
ATOM      9  C   UNL     1      34.973 -16.169 -23.422  0.00  0.00    +0.080 C 
ATOM     10  C   UNL     1      34.180 -13.757 -20.977  0.00  0.00    +0.087 C 
ATOM     11  C   UNL     1      33.652 -13.014 -21.950  0.00  0.00    +0.122 C 
ENDROOT
BRANCH  11  13
ATOM     12  O   UNL     1      32.481 -11.358 -20.723  0.00  0.00    -0.244 OA
ATOM     13  C   UNL     1      33.036 -11.712 -21.760  0.00  0.00    +0.349 C 
BRANCH  13  14
ATOM     14  O   UNL     1      33.181 -10.979 -22.898  0.00  0.00    -0.440 OA
BRANCH  14  15
ATOM     15  C   UNL     1      33.370  -9.573 -22.715  0.00  0.00    +0.235 C 
BRANCH  15  16
ATOM     16  C   UNL     1      34.316  -9.066 -23.764  0.00  0.00    +0.021 C 
ATOM     17  C   UNL     1      34.828  -9.944 -24.712  0.00  0.00    -0.001 C 
ATOM     18  C   UNL     1      34.672  -7.722 -23.779  0.00  0.00    -0.001 C 
ATOM     19  C   UNL     1      35.706  -9.472 -25.688  0.00  0.00    -0.000 C 
ATOM     20  C   UNL     1      35.550  -7.250 -24.755  0.00  0.00    -0.000 C 
ATOM     21  C   UNL     1      36.066  -8.126 -25.709  0.00  0.00    -0.000 C 
ENDBRANCH  15  16
ENDBRANCH  14  15
ENDBRANCH  13  14
ENDBRANCH  11  13
BRANCH   4  22
ATOM     22  C   UNL     1      36.423 -18.118 -20.528  0.00  0.00    +0.129 C 
BRANCH  22  23
ATOM     23  C   UNL     1      35.445 -19.152 -20.051  0.00  0.00    -0.002 C 
ATOM     24  C   UNL     1      35.891 -20.212 -19.269  0.00  0.00    -0.003 C 
ATOM     25  C   UNL     1      34.102 -19.039 -20.393  0.00  0.00    -0.003 C 
ATOM     26  C   UNL     1      34.982 -21.173 -18.825  0.00  0.00    -0.000 C 
ATOM     27  C   UNL     1      33.193 -20.000 -19.949  0.00  0.00    -0.000 C 
ATOM     28  C   UNL     1      33.634 -21.066 -19.165  0.00  0.00    -0.000 C 
ENDBRANCH  22  23
ENDBRANCH   4  22
TORSDOF 6
ENDMDL
MODEL 3
REMARK VINA RESULT:     -11.0      7.964     11.379
REMARK  Name = 9896504
REMARK  6 active torsions:
REMARK  status: ('A' for Active; 'I' for Inactive)
REMARK    1  A    between atoms: N_4  and  C_22
REMARK    2  A    between atoms: C_11  and  C_13
REMARK    3  A    between atoms: C_13  and  O_14
REMARK    4  A    between atoms: O_14  and  C_15
REMARK    5  A    between atoms: C_15  and  C_16
REMARK    6  A    between atoms: C_22  and  C_23
REMARK                            x       y       z     vdW  Elec       q    Type
REMARK                         _______ _______ _______ _____ _____    ______ ____
ROOT
ATOM      1  S   UNL     1      33.943 -14.174 -23.831  0.00  0.00    -0.064 S 
ATOM      2  O   UNL     1      35.661 -15.934 -19.577  0.00  0.00    -0.251 OA
ATOM      3  O   UNL     1      35.787 -18.853 -23.238  0.00  0.00    -0.269 OA
ATOM      4  N   UNL     1      35.761 -17.439 -21.369  0.00  0.00    -0.206 N 
ATOM      5  N   UNL     1      34.895 -15.268 -21.651  0.00  0.00    -0.214 N 
ATOM      6  C   UNL     1      34.650 -15.522 -22.982  0.00  0.00    +0.094 C 
ATOM      7  C   UNL     1      35.456 -16.187 -20.766  0.00  0.00    +0.321 C 
ATOM      8  C   UNL     1      35.532 -17.768 -22.718  0.00  0.00    +0.258 C 
ATOM      9  C   UNL     1      34.932 -16.695 -23.549  0.00  0.00    +0.080 C 
ATOM     10  C   UNL     1      34.507 -13.987 -21.334  0.00  0.00    +0.087 C 
ATOM     11  C   UNL     1      33.996 -13.295 -22.353  0.00  0.00    +0.122 C 
ENDROOT
BRANCH  11  13
ATOM     12  O   UNL     1      33.828 -11.039 -23.061  0.00  0.00    -0.244 OA
ATOM     13  C   UNL     1      33.516 -11.926 -22.271  0.00  0.00    +0.349 C 
BRANCH  13  14
ATOM     14  O   UNL     1      32.687 -11.807 -21.198  0.00  0.00    -0.440 OA
BRANCH  14  15
ATOM     15  C   UNL     1      31.596 -10.894 -21.352  0.00  0.00    +0.235 C 
BRANCH  15  16
ATOM     16  C   UNL     1      31.934  -9.606 -20.661  0.00  0.00    +0.021 C 
ATOM     17  C   UNL     1      32.025  -9.570 -19.275  0.00  0.00    -0.001 C 
ATOM     18  C   UNL     1      32.153  -8.457 -21.414  0.00  0.00    -0.001 C 
ATOM     19  C   UNL     1      32.341  -8.373 -18.633  0.00  0.00    -0.000 C 
ATOM     20  C   UNL     1      32.469  -7.260 -20.772  0.00  0.00    -0.000 C 
ATOM     21  C   UNL     1      32.562  -7.218 -19.382  0.00  0.00    -0.000 C 
ENDBRANCH  15  16
ENDBRANCH  14  15
ENDBRANCH  13  14
ENDBRANCH  11  13
BRANCH   4  22
ATOM     22  C   UNL     1      36.355 -18.482 -20.539  0.00  0.00    +0.129 C 
BRANCH  22  23
ATOM     23  C   UNL     1      35.317 -19.397 -19.960  0.00  0.00    -0.002 C 
ATOM     24  C   UNL     1      33.974 -19.185 -20.249  0.00  0.00    -0.003 C 
ATOM     25  C   UNL     1      35.708 -20.450 -19.141  0.00  0.00    -0.003 C 
ATOM     26  C   UNL     1      33.008 -20.036 -19.710  0.00  0.00    -0.000 C 
ATOM     27  C   UNL     1      34.743 -21.302 -18.604  0.00  0.00    -0.000 C 
ATOM     28  C   UNL     1      33.393 -21.094 -18.888  0.00  0.00    -0.000 C 
ENDBRANCH  22  23
ENDBRANCH   4  22
TORSDOF 6
ENDMDL
MODEL 4
REMARK VINA RESULT:     -10.8      3.692      9.297
REMARK  Name = 9896504
REMARK  6 active torsions:
REMARK  status: ('A' for Active; 'I' for Inactive)
REMARK    1  A    between atoms: N_4  and  C_22
REMARK    2  A    between atoms: C_11  and  C_13
REMARK    3  A    between atoms: C_13  and  O_14
REMARK    4  A    between atoms: O_14  and  C_15
REMARK    5  A    between atoms: C_15  and  C_16
REMARK    6  A    between atoms: C_22  and  C_23
REMARK                            x       y       z     vdW  Elec       q    Type
REMARK                         _______ _______ _______ _____ _____    ______ ____
ROOT
ATOM      1  S   UNL     1      35.966 -21.280 -17.836  0.00  0.00    -0.064 S 
ATOM      2  O   UNL     1      33.589 -18.902 -21.421  0.00  0.00    -0.251 OA
ATOM      3  O   UNL     1      38.192 -18.097 -21.085  0.00  0.00    -0.269 OA
ATOM      4  N   UNL     1      35.889 -18.463 -21.313  0.00  0.00    -0.206 N 
ATOM      5  N   UNL     1      34.859 -19.938 -19.793  0.00  0.00    -0.214 N 
ATOM      6  C   UNL     1      36.067 -20.165 -19.172  0.00  0.00    +0.094 C 
ATOM      7  C   UNL     1      34.685 -19.089 -20.885  0.00  0.00    +0.321 C 
ATOM      8  C   UNL     1      37.152 -18.645 -20.722  0.00  0.00    +0.258 C 
ATOM      9  C   UNL     1      37.196 -19.578 -19.569  0.00  0.00    +0.080 C 
ATOM     10  C   UNL     1      33.867 -20.667 -19.180  0.00  0.00    +0.087 C 
ATOM     11  C   UNL     1      34.280 -21.410 -18.153  0.00  0.00    +0.122 C 
ENDROOT
BRANCH  11  13
ATOM     12  O   UNL     1      32.200 -22.168 -17.305  0.00  0.00    -0.244 OA
ATOM     13  C   UNL     1      33.424 -22.264 -17.347  0.00  0.00    +0.349 C 
BRANCH  13  14
ATOM     14  O   UNL     1      34.195 -23.159 -16.671  0.00  0.00    -0.440 OA
BRANCH  14  15
ATOM     15  C   UNL     1      34.072 -23.136 -15.245  0.00  0.00    +0.235 C 
BRANCH  15  16
ATOM     16  C   UNL     1      35.402 -23.469 -14.634  0.00  0.00    +0.021 C 
ATOM     17  C   UNL     1      35.866 -24.779 -14.667  0.00  0.00    -0.001 C 
ATOM     18  C   UNL     1      36.158 -22.465 -14.040  0.00  0.00    -0.001 C 
ATOM     19  C   UNL     1      37.102 -25.089 -14.099  0.00  0.00    -0.000 C 
ATOM     20  C   UNL     1      37.394 -22.775 -13.472  0.00  0.00    -0.000 C 
ATOM     21  C   UNL     1      37.865 -24.087 -13.502  0.00  0.00    -0.000 C 
ENDBRANCH  15  16
ENDBRANCH  14  15
ENDBRANCH  13  14
ENDBRANCH  11  13
BRANCH   4  22
ATOM     22  C   UNL     1      35.829 -17.553 -22.451  0.00  0.00    +0.129 C 
BRANCH  22  23
ATOM     23  C   UNL     1      35.402 -16.172 -22.044  0.00  0.00    -0.002 C 
ATOM     24  C   UNL     1      35.245 -15.871 -20.697  0.00  0.00    -0.003 C 
ATOM     25  C   UNL     1      35.170 -15.209 -23.019  0.00  0.00    -0.003 C 
ATOM     26  C   UNL     1      34.848 -14.588 -20.317  0.00  0.00    -0.000 C 
ATOM     27  C   UNL     1      34.774 -13.926 -22.640  0.00  0.00    -0.000 C 
ATOM     28  C   UNL     1      34.613 -13.616 -21.290  0.00  0.00    -0.000 C 
ENDBRANCH  22  23
ENDBRANCH   4  22
TORSDOF 6
ENDMDL
MODEL 5
REMARK VINA RESULT:     -10.7      8.076     13.276
REMARK  Name = 9896504
REMARK  6 active torsions:
REMARK  status: ('A' for Active; 'I' for Inactive)
REMARK    1  A    between atoms: N_4  and  C_22
REMARK    2  A    between atoms: C_11  and  C_13
REMARK    3  A    between atoms: C_13  and  O_14
REMARK    4  A    between atoms: O_14  and  C_15
REMARK    5  A    between atoms: C_15  and  C_16
REMARK    6  A    between atoms: C_22  and  C_23
REMARK                            x       y       z     vdW  Elec       q    Type
REMARK                         _______ _______ _______ _____ _____    ______ ____
ROOT
ATOM      1  S   UNL     1      34.768 -15.270 -19.923  0.00  0.00    -0.064 S 
ATOM      2  O   UNL     1      34.216 -13.029 -24.262  0.00  0.00    -0.251 OA
ATOM      3  O   UNL     1      32.386 -10.845 -20.544  0.00  0.00    -0.269 OA
ATOM      4  N   UNL     1      33.287 -11.880 -22.443  0.00  0.00    -0.206 N 
ATOM      5  N   UNL     1      34.386 -13.942 -22.148  0.00  0.00    -0.214 N 
ATOM      6  C   UNL     1      34.141 -13.896 -20.793  0.00  0.00    +0.094 C 
ATOM      7  C   UNL     1      33.986 -12.960 -23.052  0.00  0.00    +0.321 C 
ATOM      8  C   UNL     1      32.998 -11.773 -21.071  0.00  0.00    +0.258 C 
ATOM      9  C   UNL     1      33.485 -12.888 -20.220  0.00  0.00    +0.080 C 
ATOM     10  C   UNL     1      35.076 -15.089 -22.465  0.00  0.00    +0.087 C 
ATOM     11  C   UNL     1      35.348 -15.878 -21.425  0.00  0.00    +0.122 C 
ENDROOT
BRANCH  11  13
ATOM     12  O   UNL     1      36.468 -17.638 -22.550  0.00  0.00    -0.244 OA
ATOM     13  C   UNL     1      36.063 -17.140 -21.503  0.00  0.00    +0.349 C 
BRANCH  13  14
ATOM     14  O   UNL     1      36.201 -17.654 -20.250  0.00  0.00    -0.440 OA
BRANCH  14  15
ATOM     15  C   UNL     1      36.622 -19.019 -20.179  0.00  0.00    +0.235 C 
BRANCH  15  16
ATOM     16  C   UNL     1      35.515 -19.842 -19.587  0.00  0.00    +0.021 C 
ATOM     17  C   UNL     1      34.203 -19.624 -19.990  0.00  0.00    -0.001 C 
ATOM     18  C   UNL     1      35.812 -20.817 -18.640  0.00  0.00    -0.001 C 
ATOM     19  C   UNL     1      33.174 -20.389 -19.440  0.00  0.00    -0.000 C 
ATOM     20  C   UNL     1      34.784 -21.582 -18.090  0.00  0.00    -0.000 C 
ATOM     21  C   UNL     1      33.466 -21.368 -18.491  0.00  0.00    -0.000 C 
ENDBRANCH  15  16
ENDBRANCH  14  15
ENDBRANCH  13  14
ENDBRANCH  11  13
BRANCH   4  22
ATOM     22  C   UNL     1      32.820 -10.791 -23.293  0.00  0.00    +0.129 C 
BRANCH  22  23
ATOM     23  C   UNL     1      33.808  -9.662 -23.351  0.00  0.00    -0.002 C 
ATOM     24  C   UNL     1      34.922  -9.765 -24.176  0.00  0.00    -0.003 C 
ATOM     25  C   UNL     1      33.598  -8.523 -22.582  0.00  0.00    -0.003 C 
ATOM     26  C   UNL     1      35.840  -8.716 -24.232  0.00  0.00    -0.000 C 
ATOM     27  C   UNL     1      34.515  -7.474 -22.638  0.00  0.00    -0.000 C 
ATOM     28  C   UNL     1      35.636  -7.571 -23.463  0.00  0.00    -0.000 C 
ENDBRANCH  22  23
ENDBRANCH   4  22
TORSDOF 6
ENDMDL
MODEL 6
REMARK VINA RESULT:     -10.6      3.177      9.077
REMARK  Name = 9896504
REMARK  6 active torsions:
REMARK  status: ('A' for Active; 'I' for Inactive)
REMARK    1  A    between atoms: N_4  and  C_22
REMARK    2  A    between atoms: C_11  and  C_13
REMARK    3  A    between atoms: C_13  and  O_14
REMARK    4  A    between atoms: O_14  and  C_15
REMARK    5  A    between atoms: C_15  and  C_16
REMARK    6  A    between atoms: C_22  and  C_23
REMARK                            x       y       z     vdW  Elec       q    Type
REMARK                         _______ _______ _______ _____ _____    ______ ____
ROOT
ATOM      1  S   UNL     1      33.311 -21.848 -17.711  0.00  0.00    -0.064 S 
ATOM      2  O   UNL     1      37.274 -19.493 -19.413  0.00  0.00    -0.251 OA
ATOM      3  O   UNL     1      33.292 -18.855 -21.796  0.00  0.00    -0.269 OA
ATOM      4  N   UNL     1      35.314 -19.124 -20.643  0.00  0.00    -0.206 N 
ATOM      5  N   UNL     1      35.317 -20.524 -18.750  0.00  0.00    -0.214 N 
ATOM      6  C   UNL     1      33.974 -20.776 -18.915  0.00  0.00    +0.094 C 
ATOM      7  C   UNL     1      36.070 -19.698 -19.583  0.00  0.00    +0.321 C 
ATOM      8  C   UNL     1      33.944 -19.344 -20.874  0.00  0.00    +0.258 C 
ATOM      9  C   UNL     1      33.264 -20.242 -19.909  0.00  0.00    +0.080 C 
ATOM     10  C   UNL     1      35.794 -21.202 -17.652  0.00  0.00    +0.087 C 
ATOM     11  C   UNL     1      34.880 -21.930 -17.010  0.00  0.00    +0.122 C 
ENDROOT
BRANCH  11  13
ATOM     12  O   UNL     1      34.264 -23.300 -15.177  0.00  0.00    -0.244 OA
ATOM     13  C   UNL     1      35.137 -22.733 -15.827  0.00  0.00    +0.349 C 
BRANCH  13  14
ATOM     14  O   UNL     1      36.476 -22.743 -15.577  0.00  0.00    -0.440 OA
BRANCH  14  15
ATOM     15  C   UNL     1      36.852 -22.685 -14.197  0.00  0.00    +0.235 C 
BRANCH  15  16
ATOM     16  C   UNL     1      38.012 -23.609 -13.968  0.00  0.00    +0.021 C 
ATOM     17  C   UNL     1      37.996 -24.478 -12.883  0.00  0.00    -0.001 C 
ATOM     18  C   UNL     1      39.093 -23.588 -14.842  0.00  0.00    -0.001 C 
ATOM     19  C   UNL     1      39.074 -25.338 -12.670  0.00  0.00    -0.000 C 
ATOM     20  C   UNL     1      40.171 -24.448 -14.629  0.00  0.00    -0.000 C 
ATOM     21  C   UNL     1      40.161 -25.322 -13.543  0.00  0.00    -0.000 C 
ENDBRANCH  15  16
ENDBRANCH  14  15
ENDBRANCH  13  14
ENDBRANCH  11  13
BRANCH   4  22
ATOM     22  C   UNL     1      35.997 -18.239 -21.580  0.00  0.00    +0.129 C 
BRANCH  22  23
ATOM     23  C   UNL     1      35.544 -16.815 -21.440  0.00  0.00    -0.002 C 
ATOM     24  C   UNL     1      35.363 -16.037 -22.577  0.00  0.00    -0.003 C 
ATOM     25  C   UNL     1      35.306 -16.291 -20.175  0.00  0.00    -0.003 C 
ATOM     26  C   UNL     1      34.941 -14.713 -22.448  0.00  0.00    -0.000 C 
ATOM     27  C   UNL     1      34.883 -14.968 -20.046  0.00  0.00    -0.000 C 
ATOM     28  C   UNL     1      34.702 -14.179 -21.182  0.00  0.00    -0.000 C 
ENDBRANCH  22  23
ENDBRANCH   4  22
TORSDOF 6
ENDMDL
MODEL 7
REMARK VINA RESULT:     -10.6      2.737      4.074
REMARK  Name = 9896504
REMARK  6 active torsions:
REMARK  status: ('A' for Active; 'I' for Inactive)
REMARK    1  A    between atoms: N_4  and  C_22
REMARK    2  A    between atoms: C_11  and  C_13
REMARK    3  A    between atoms: C_13  and  O_14
REMARK    4  A    between atoms: O_14  and  C_15
REMARK    5  A    between atoms: C_15  and  C_16
REMARK    6  A    between atoms: C_22  and  C_23
REMARK                            x       y       z     vdW  Elec       q    Type
REMARK                         _______ _______ _______ _____ _____    ______ ____
ROOT
ATOM      1  S   UNL     1      34.222 -21.368 -18.743  0.00  0.00    -0.064 S 
ATOM      2  O   UNL     1      37.439 -21.641 -15.038  0.00  0.00    -0.251 OA
ATOM      3  O   UNL     1      33.330 -23.794 -14.388  0.00  0.00    -0.269 OA
ATOM      4  N   UNL     1      35.409 -22.746 -14.653  0.00  0.00    -0.206 N 
ATOM      5  N   UNL     1      35.813 -21.612 -16.678  0.00  0.00    -0.214 N 
ATOM      6  C   UNL     1      34.564 -21.962 -17.140  0.00  0.00    +0.094 C 
ATOM      7  C   UNL     1      36.317 -21.970 -15.428  0.00  0.00    +0.321 C 
ATOM      8  C   UNL     1      34.119 -23.132 -15.061  0.00  0.00    +0.258 C 
ATOM      9  C   UNL     1      33.711 -22.686 -16.416  0.00  0.00    +0.080 C 
ATOM     10  C   UNL     1      36.477 -20.867 -17.624  0.00  0.00    +0.087 C 
ATOM     11  C   UNL     1      35.788 -20.655 -18.746  0.00  0.00    +0.122 C 
ENDROOT
BRANCH  11  13
ATOM     12  O   UNL     1      37.434 -19.920 -20.285  0.00  0.00    -0.244 OA
ATOM     13  C   UNL     1      36.272 -19.900 -19.888  0.00  0.00    +0.349 C 
BRANCH  13  14
ATOM     14  O   UNL     1      35.240 -19.190 -20.424  0.00  0.00    -0.440 OA
BRANCH  14  15
ATOM     15  C   UNL     1      35.500 -18.570 -21.687  0.00  0.00    +0.235 C 
BRANCH  15  16
ATOM     16  C   UNL     1      35.304 -17.088 -21.554  0.00  0.00    +0.021 C 
ATOM     17  C   UNL     1      35.191 -16.519 -20.291  0.00  0.00    -0.001 C 
ATOM     18  C   UNL     1      35.237 -16.298 -22.696  0.00  0.00    -0.001 C 
ATOM     19  C   UNL     1      35.010 -15.141 -20.168  0.00  0.00    -0.000 C 
ATOM     20  C   UNL     1      35.056 -14.920 -22.573  0.00  0.00    -0.000 C 
ATOM     21  C   UNL     1      34.942 -14.343 -21.309  0.00  0.00    -0.000 C 
ENDBRANCH  15  16
ENDBRANCH  14  15
ENDBRANCH  13  14
ENDBRANCH  11  13
BRANCH   4  22
ATOM     22  C   UNL     1      35.828 -23.181 -13.326  0.00  0.00    +0.129 C 
BRANCH  22  23
ATOM     23  C   UNL     1      37.028 -24.081 -13.383  0.00  0.00    -0.002 C 
ATOM     24  C   UNL     1      38.176 -23.742 -12.677  0.00  0.00    -0.003 C 
ATOM     25  C   UNL     1      36.978 -25.247 -14.138  0.00  0.00    -0.003 C 
ATOM     26  C   UNL     1      39.292 -24.578 -12.729  0.00  0.00    -0.000 C 
ATOM     27  C   UNL     1      38.093 -26.084 -14.190  0.00  0.00    -0.000 C 
ATOM     28  C   UNL     1      39.249 -25.749 -13.485  0.00  0.00    -0.000 C 
ENDBRANCH  22  23
ENDBRANCH   4  22
TORSDOF 6
ENDMDL
MODEL 8
REMARK VINA RESULT:     -10.5      5.020      9.602
REMARK  Name = 9896504
REMARK  6 active torsions:
REMARK  status: ('A' for Active; 'I' for Inactive)
REMARK    1  A    between atoms: N_4  and  C_22
REMARK    2  A    between atoms: C_11  and  C_13
REMARK    3  A    between atoms: C_13  and  O_14
REMARK    4  A    between atoms: O_14  and  C_15
REMARK    5  A    between atoms: C_15  and  C_16
REMARK    6  A    between atoms: C_22  and  C_23
REMARK                            x       y       z     vdW  Elec       q    Type
REMARK                         _______ _______ _______ _____ _____    ______ ____
ROOT
ATOM      1  S   UNL     1      36.145 -21.279 -18.046  0.00  0.00    -0.064 S 
ATOM      2  O   UNL     1      33.604 -18.939 -21.542  0.00  0.00    -0.251 OA
ATOM      3  O   UNL     1      38.144 -17.844 -21.186  0.00  0.00    -0.269 OA
ATOM      4  N   UNL     1      35.869 -18.354 -21.423  0.00  0.00    -0.206 N 
ATOM      5  N   UNL     1      34.945 -19.945 -19.954  0.00  0.00    -0.214 N 
ATOM      6  C   UNL     1      36.167 -20.114 -19.343  0.00  0.00    +0.094 C 
ATOM      7  C   UNL     1      34.711 -19.072 -21.015  0.00  0.00    +0.321 C 
ATOM      8  C   UNL     1      37.144 -18.472 -20.840  0.00  0.00    +0.258 C 
ATOM      9  C   UNL     1      37.254 -19.440 -19.720  0.00  0.00    +0.080 C 
ATOM     10  C   UNL     1      34.005 -20.759 -19.365  0.00  0.00    +0.087 C 
ATOM     11  C   UNL     1      34.470 -21.508 -18.365  0.00  0.00    +0.122 C 
ENDROOT
BRANCH  11  13
ATOM     12  O   UNL     1      33.700 -23.662 -17.744  0.00  0.00    -0.244 OA
ATOM     13  C   UNL     1      33.675 -22.444 -17.589  0.00  0.00    +0.349 C 
BRANCH  13  14
ATOM     14  O   UNL     1      32.923 -21.753 -16.689  0.00  0.00    -0.440 OA
BRANCH  14  15
ATOM     15  C   UNL     1      31.555 -22.156 -16.579  0.00  0.00    +0.235 C 
BRANCH  15  16
ATOM     16  C   UNL     1      31.350 -22.837 -15.257  0.00  0.00    +0.021 C 
ATOM     17  C   UNL     1      30.520 -23.949 -15.177  0.00  0.00    -0.001 C 
ATOM     18  C   UNL     1      31.991 -22.349 -14.124  0.00  0.00    -0.001 C 
ATOM     19  C   UNL     1      30.330 -24.583 -13.948  0.00  0.00    -0.000 C 
ATOM     20  C   UNL     1      31.801 -22.982 -12.896  0.00  0.00    -0.000 C 
ATOM     21  C   UNL     1      30.970 -24.099 -12.809  0.00  0.00    -0.000 C 
ENDBRANCH  15  16
ENDBRANCH  14  15
ENDBRANCH  13  14
ENDBRANCH  11  13
BRANCH   4  22
ATOM     22  C   UNL     1      35.746 -17.410 -22.528  0.00  0.00    +0.129 C 
BRANCH  22  23
ATOM     23  C   UNL     1      35.342 -16.043 -22.057  0.00  0.00    -0.002 C 
ATOM     24  C   UNL     1      35.183 -15.804 -20.697  0.00  0.00    -0.003 C 
ATOM     25  C   UNL     1      35.134 -15.030 -22.985  0.00  0.00    -0.003 C 
ATOM     26  C   UNL     1      34.808 -14.534 -20.258  0.00  0.00    -0.000 C 
ATOM     27  C   UNL     1      34.760 -13.759 -22.546  0.00  0.00    -0.000 C 
ATOM     28  C   UNL     1      34.597 -13.512 -21.183  0.00  0.00    -0.000 C 
ENDBRANCH  22  23
ENDBRANCH   4  22
TORSDOF 6
ENDMDL
MODEL 9
REMARK VINA RESULT:     -10.4      7.896     13.389
REMARK  Name = 9896504
REMARK  6 active torsions:
REMARK  status: ('A' for Active; 'I' for Inactive)
REMARK    1  A    between atoms: N_4  and  C_22
REMARK    2  A    between atoms: C_11  and  C_13
REMARK    3  A    between atoms: C_13  and  O_14
REMARK    4  A    between atoms: O_14  and  C_15
REMARK    5  A    between atoms: C_15  and  C_16
REMARK    6  A    between atoms: C_22  and  C_23
REMARK                            x       y       z     vdW  Elec       q    Type
REMARK                         _______ _______ _______ _____ _____    ______ ____
ROOT
ATOM      1  S   UNL     1      35.095 -16.956 -23.627  0.00  0.00    -0.064 S 
ATOM      2  O   UNL     1      34.577 -12.604 -21.404  0.00  0.00    -0.251 OA
ATOM      3  O   UNL     1      32.934 -12.914 -25.780  0.00  0.00    -0.269 OA
ATOM      4  N   UNL     1      33.726 -12.695 -23.586  0.00  0.00    -0.206 N 
ATOM      5  N   UNL     1      34.738 -14.576 -22.594  0.00  0.00    -0.214 N 
ATOM      6  C   UNL     1      34.520 -15.314 -23.736  0.00  0.00    +0.094 C 
ATOM      7  C   UNL     1      34.366 -13.242 -22.438  0.00  0.00    +0.321 C 
ATOM      8  C   UNL     1      33.478 -13.389 -24.784  0.00  0.00    +0.258 C 
ATOM      9  C   UNL     1      33.923 -14.804 -24.814  0.00  0.00    +0.080 C 
ATOM     10  C   UNL     1      35.370 -15.347 -21.646  0.00  0.00    +0.087 C 
ATOM     11  C   UNL     1      35.622 -16.599 -22.029  0.00  0.00    +0.122 C 
ENDROOT
BRANCH  11  13
ATOM     12  O   UNL     1      37.443 -17.962 -21.360  0.00  0.00    -0.244 OA
ATOM     13  C   UNL     1      36.278 -17.603 -21.208  0.00  0.00    +0.349 C 
BRANCH  13  14
ATOM     14  O   UNL     1      35.401 -18.058 -20.272  0.00  0.00    -0.440 OA
BRANCH  14  15
ATOM     15  C   UNL     1      34.615 -19.191 -20.653  0.00  0.00    +0.235 C 
BRANCH  15  16
ATOM     16  C   UNL     1      34.584 -20.170 -19.516  0.00  0.00    +0.021 C 
ATOM     17  C   UNL     1      33.368 -20.681 -19.080  0.00  0.00    -0.001 C 
ATOM     18  C   UNL     1      35.774 -20.557 -18.908  0.00  0.00    -0.001 C 
ATOM     19  C   UNL     1      33.339 -21.591 -18.023  0.00  0.00    -0.000 C 
ATOM     20  C   UNL     1      35.745 -21.467 -17.851  0.00  0.00    -0.000 C 
ATOM     21  C   UNL     1      34.528 -21.984 -17.409  0.00  0.00    -0.000 C 
ENDBRANCH  15  16
ENDBRANCH  14  15
ENDBRANCH  13  14
ENDBRANCH  11  13
BRANCH   4  22
ATOM     22  C   UNL     1      33.290 -11.304 -23.538  0.00  0.00    +0.129 C 
BRANCH  22  23
ATOM     23  C   UNL     1      34.321 -10.373 -24.106  0.00  0.00    -0.002 C 
ATOM     24  C   UNL     1      34.721 -10.515 -25.430  0.00  0.00    -0.003 C 
ATOM     25  C   UNL     1      34.864  -9.376 -23.304  0.00  0.00    -0.003 C 
ATOM     26  C   UNL     1      35.679  -9.649 -25.959  0.00  0.00    -0.000 C 
ATOM     27  C   UNL     1      35.822  -8.510 -23.833  0.00  0.00    -0.000 C 
ATOM     28  C   UNL     1      36.229  -8.647 -25.160  0.00  0.00    -0.000 C 
ENDBRANCH  22  23
ENDBRANCH   4  22
TORSDOF 6
ENDMDL
