MODEL 1
REMARK VINA RESULT:     -12.5      0.000      0.000
REMARK  Name = 44814409
REMARK  5 active torsions:
REMARK  status: ('A' for Active; 'I' for Inactive)
REMARK    1  A    between atoms: N_2  and  C_22
REMARK    2  A    between atoms: C_3  and  C_7
REMARK    3  A    between atoms: C_9  and  C_14
REMARK    4  A    between atoms: C_21  and  C_26
REMARK    5  A    between atoms: C_29  and  N_33
REMARK                            x       y       z     vdW  Elec       q    Type
REMARK                         _______ _______ _______ _____ _____    ______ ____
ROOT
ATOM      1  O   UNL     1      32.723 -21.138 -19.017  0.00  0.00    -0.267 OA
ATOM      2  N   UNL     1      33.998 -21.703 -17.123  0.00  0.00    -0.278 N 
ATOM      3  C   UNL     1      33.779 -21.153 -18.394  0.00  0.00    +0.275 C 
ATOM      4  H   UNL     1      34.915 -21.626 -16.772  0.00  0.00    +0.155 HD
ENDROOT
BRANCH   3   7
ATOM      5  F   UNL     1      38.096 -18.625 -20.806  0.00  0.00    -0.202 F 
ATOM      6  N   UNL     1      34.692 -19.486 -19.867  0.00  0.00    -0.399 NA
ATOM      7  C   UNL     1      34.962 -20.504 -19.019  0.00  0.00    +0.167 C 
ATOM      8  C   UNL     1      36.240 -20.949 -18.722  0.00  0.00    +0.092 C 
ATOM      9  C   UNL     1      35.758 -18.885 -20.441  0.00  0.00    +0.162 C 
ATOM     10  C   UNL     1      37.311 -20.305 -19.334  0.00  0.00    +0.014 C 
ATOM     11  C   UNL     1      37.074 -19.253 -20.211  0.00  0.00    +0.166 C 
BRANCH   9  14
ATOM     12  F   UNL     1      35.668 -16.218 -19.580  0.00  0.00    -0.204 F 
ATOM     13  F   UNL     1      35.177 -19.323 -23.149  0.00  0.00    -0.204 F 
ATOM     14  C   UNL     1      35.432 -17.801 -21.339  0.00  0.00    +0.087 C 
ATOM     15  C   UNL     1      35.399 -16.490 -20.866  0.00  0.00    +0.145 C 
ATOM     16  C   UNL     1      35.150 -18.068 -22.679  0.00  0.00    +0.145 C 
ATOM     17  C   UNL     1      35.085 -15.444 -21.734  0.00  0.00    +0.030 C 
ATOM     18  C   UNL     1      34.835 -17.022 -23.547  0.00  0.00    +0.030 C 
ATOM     19  C   UNL     1      34.802 -15.710 -23.073  0.00  0.00    +0.005 C 
ENDBRANCH   9  14
ENDBRANCH   3   7
BRANCH   2  22
ATOM     20  N   UNL     1      30.769 -22.907 -15.850  0.00  0.00    -0.241 NA
ATOM     21  C   UNL     1      33.474 -23.038 -15.157  0.00  0.00    -0.006 C 
ATOM     22  C   UNL     1      33.078 -22.346 -16.295  0.00  0.00    +0.066 C 
ATOM     23  C   UNL     1      32.519 -23.665 -14.364  0.00  0.00    +0.018 C 
ATOM     24  C   UNL     1      31.726 -22.311 -16.596  0.00  0.00    +0.113 C 
ATOM     25  C   UNL     1      31.192 -23.571 -14.751  0.00  0.00    +0.099 C 
BRANCH  21  26
ATOM     26  C   UNL     1      34.914 -23.125 -14.764  0.00  0.00    +0.022 C 
ATOM     27  C   UNL     1      36.894 -24.700 -14.517  0.00  0.00    -0.002 C 
ATOM     28  C   UNL     1      35.433 -24.560 -14.969  0.00  0.00    +0.004 C 
ATOM     29  C   UNL     1      36.551 -22.817 -12.853  0.00  0.00    -0.065 C 
ATOM     30  C   UNL     1      35.090 -22.680 -13.301  0.00  0.00    -0.017 C 
ATOM     31  C   UNL     1      37.061 -24.248 -13.059  0.00  0.00    -0.022 C 
ATOM     32  C   UNL     1      37.375 -26.140 -14.694  0.00  0.00    -0.000 C 
BRANCH  29  33
ATOM     33  N   UNL     1      36.674 -22.445 -11.445  0.00  0.00    +0.382 N 
ATOM     34  H   UNL     1      36.306 -21.503 -11.308  0.00  0.00    -0.089 HD
ATOM     35  H   UNL     1      37.657 -22.468 -11.172  0.00  0.00    -0.089 HD
ATOM     36  H   UNL     1      36.146 -23.103 -10.872  0.00  0.00    -0.089 HD
ENDBRANCH  29  33
ENDBRANCH  21  26
ENDBRANCH   2  22
TORSDOF 5
ENDMDL
MODEL 2
REMARK VINA RESULT:     -12.5      0.064      1.466
REMARK  Name = 44814409
REMARK  5 active torsions:
REMARK  status: ('A' for Active; 'I' for Inactive)
REMARK    1  A    between atoms: N_2  and  C_22
REMARK    2  A    between atoms: C_3  and  C_7
REMARK    3  A    between atoms: C_9  and  C_14
REMARK    4  A    between atoms: C_21  and  C_26
REMARK    5  A    between atoms: C_29  and  N_33
REMARK                            x       y       z     vdW  Elec       q    Type
REMARK                         _______ _______ _______ _____ _____    ______ ____
ROOT
ATOM      1  O   UNL     1      32.744 -21.144 -18.969  0.00  0.00    -0.267 OA
ATOM      2  N   UNL     1      34.041 -21.719 -17.093  0.00  0.00    -0.278 N 
ATOM      3  C   UNL     1      33.808 -21.164 -18.359  0.00  0.00    +0.275 C 
ATOM      4  H   UNL     1      34.962 -21.644 -16.753  0.00  0.00    +0.155 HD
ENDROOT
BRANCH   3   7
ATOM      5  F   UNL     1      38.099 -18.635 -20.816  0.00  0.00    -0.202 F 
ATOM      6  N   UNL     1      34.705 -19.503 -19.849  0.00  0.00    -0.399 NA
ATOM      7  C   UNL     1      34.983 -20.514 -18.997  0.00  0.00    +0.167 C 
ATOM      8  C   UNL     1      36.266 -20.952 -18.704  0.00  0.00    +0.092 C 
ATOM      9  C   UNL     1      35.764 -18.902 -20.435  0.00  0.00    +0.162 C 
ATOM     10  C   UNL     1      37.329 -20.308 -19.327  0.00  0.00    +0.014 C 
ATOM     11  C   UNL     1      37.083 -19.263 -20.210  0.00  0.00    +0.166 C 
BRANCH   9  14
ATOM     12  F   UNL     1      35.170 -19.362 -23.137  0.00  0.00    -0.204 F 
ATOM     13  F   UNL     1      35.668 -16.229 -19.593  0.00  0.00    -0.204 F 
ATOM     14  C   UNL     1      35.428 -17.826 -21.339  0.00  0.00    +0.087 C 
ATOM     15  C   UNL     1      35.140 -18.103 -22.675  0.00  0.00    +0.145 C 
ATOM     16  C   UNL     1      35.392 -16.511 -20.874  0.00  0.00    +0.145 C 
ATOM     17  C   UNL     1      34.815 -17.064 -23.547  0.00  0.00    +0.030 C 
ATOM     18  C   UNL     1      35.068 -15.472 -21.746  0.00  0.00    +0.030 C 
ATOM     19  C   UNL     1      34.780 -15.749 -23.083  0.00  0.00    +0.005 C 
ENDBRANCH   9  14
ENDBRANCH   3   7
BRANCH   2  22
ATOM     20  N   UNL     1      30.825 -22.918 -15.783  0.00  0.00    -0.241 NA
ATOM     21  C   UNL     1      33.539 -23.063 -15.128  0.00  0.00    -0.006 C 
ATOM     22  C   UNL     1      33.130 -22.363 -16.257  0.00  0.00    +0.066 C 
ATOM     23  C   UNL     1      32.592 -23.691 -14.325  0.00  0.00    +0.018 C 
ATOM     24  C   UNL     1      31.774 -22.321 -16.539  0.00  0.00    +0.113 C 
ATOM     25  C   UNL     1      31.260 -23.590 -14.693  0.00  0.00    +0.099 C 
BRANCH  21  26
ATOM     26  C   UNL     1      34.984 -23.157 -14.755  0.00  0.00    +0.022 C 
ATOM     27  C   UNL     1      36.958 -24.743 -14.531  0.00  0.00    -0.002 C 
ATOM     28  C   UNL     1      35.492 -24.596 -14.963  0.00  0.00    +0.004 C 
ATOM     29  C   UNL     1      36.650 -22.853 -12.868  0.00  0.00    -0.065 C 
ATOM     30  C   UNL     1      35.183 -22.708 -13.296  0.00  0.00    -0.017 C 
ATOM     31  C   UNL     1      37.148 -24.287 -13.077  0.00  0.00    -0.022 C 
ATOM     32  C   UNL     1      37.428 -26.186 -14.710  0.00  0.00    -0.000 C 
BRANCH  29  33
ATOM     33  N   UNL     1      36.795 -22.477 -11.463  0.00  0.00    +0.382 N 
ATOM     34  H   UNL     1      35.894 -22.166 -11.099  0.00  0.00    -0.089 HD
ATOM     35  H   UNL     1      37.473 -21.719 -11.382  0.00  0.00    -0.089 HD
ATOM     36  H   UNL     1      37.119 -23.282 -10.927  0.00  0.00    -0.089 HD
ENDBRANCH  29  33
ENDBRANCH  21  26
ENDBRANCH   2  22
TORSDOF 5
ENDMDL
MODEL 3
REMARK VINA RESULT:     -12.4      4.736     11.273
REMARK  Name = 44814409
REMARK  5 active torsions:
REMARK  status: ('A' for Active; 'I' for Inactive)
REMARK    1  A    between atoms: N_2  and  C_22
REMARK    2  A    between atoms: C_3  and  C_7
REMARK    3  A    between atoms: C_9  and  C_14
REMARK    4  A    between atoms: C_21  and  C_26
REMARK    5  A    between atoms: C_29  and  N_33
REMARK                            x       y       z     vdW  Elec       q    Type
REMARK                         _______ _______ _______ _____ _____    ______ ____
ROOT
ATOM      1  O   UNL     1      35.158 -13.806 -20.167  0.00  0.00    -0.267 OA
ATOM      2  N   UNL     1      33.333 -13.507 -21.619  0.00  0.00    -0.278 N 
ATOM      3  C   UNL     1      34.450 -14.174 -21.099  0.00  0.00    +0.275 C 
ATOM      4  H   UNL     1      32.879 -13.950 -22.373  0.00  0.00    +0.155 HD
ENDROOT
BRANCH   3   7
ATOM      5  F   UNL     1      35.664 -19.098 -23.361  0.00  0.00    -0.202 F 
ATOM      6  N   UNL     1      34.950 -16.518 -20.904  0.00  0.00    -0.399 NA
ATOM      7  C   UNL     1      34.774 -15.474 -21.744  0.00  0.00    +0.167 C 
ATOM      8  C   UNL     1      34.880 -15.561 -23.123  0.00  0.00    +0.092 C 
ATOM      9  C   UNL     1      35.244 -17.707 -21.477  0.00  0.00    +0.162 C 
ATOM     10  C   UNL     1      35.184 -16.801 -23.674  0.00  0.00    +0.014 C 
ATOM     11  C   UNL     1      35.371 -17.899 -22.843  0.00  0.00    +0.166 C 
BRANCH   9  14
ATOM     12  F   UNL     1      37.774 -18.432 -20.508  0.00  0.00    -0.204 F 
ATOM     13  F   UNL     1      33.085 -19.229 -20.537  0.00  0.00    -0.204 F 
ATOM     14  C   UNL     1      35.424 -18.799 -20.549  0.00  0.00    +0.087 C 
ATOM     15  C   UNL     1      36.701 -19.124 -20.094  0.00  0.00    +0.145 C 
ATOM     16  C   UNL     1      34.319 -19.528 -20.108  0.00  0.00    +0.145 C 
ATOM     17  C   UNL     1      36.875 -20.179 -19.197  0.00  0.00    +0.030 C 
ATOM     18  C   UNL     1      34.492 -20.583 -19.212  0.00  0.00    +0.030 C 
ATOM     19  C   UNL     1      35.771 -20.909 -18.757  0.00  0.00    +0.005 C 
ENDBRANCH   9  14
ENDBRANCH   3   7
BRANCH   2  22
ATOM     20  N   UNL     1      31.336 -11.128 -19.656  0.00  0.00    -0.241 NA
ATOM     21  C   UNL     1      33.089 -11.095 -21.834  0.00  0.00    -0.006 C 
ATOM     22  C   UNL     1      32.784 -12.295 -21.201  0.00  0.00    +0.066 C 
ATOM     23  C   UNL     1      32.518  -9.912 -21.379  0.00  0.00    +0.018 C 
ATOM     24  C   UNL     1      31.911 -12.258 -20.126  0.00  0.00    +0.113 C 
ATOM     25  C   UNL     1      31.656  -9.982 -20.296  0.00  0.00    +0.099 C 
BRANCH  21  26
ATOM     26  C   UNL     1      34.023 -11.049 -23.000  0.00  0.00    +0.022 C 
ATOM     27  C   UNL     1      35.367  -9.505 -24.507  0.00  0.00    -0.002 C 
ATOM     28  C   UNL     1      34.453  -9.596 -23.276  0.00  0.00    +0.004 C 
ATOM     29  C   UNL     1      34.270 -11.581 -25.466  0.00  0.00    -0.065 C 
ATOM     30  C   UNL     1      33.354 -11.670 -24.239  0.00  0.00    -0.017 C 
ATOM     31  C   UNL     1      34.693 -10.132 -25.736  0.00  0.00    -0.022 C 
ATOM     32  C   UNL     1      35.748  -8.051 -24.785  0.00  0.00    -0.000 C 
BRANCH  29  33
ATOM     33  N   UNL     1      33.584 -12.124 -26.637  0.00  0.00    +0.382 N 
ATOM     34  H   UNL     1      33.295 -11.359 -27.247  0.00  0.00    -0.089 HD
ATOM     35  H   UNL     1      32.761 -12.647 -26.336  0.00  0.00    -0.089 HD
ATOM     36  H   UNL     1      34.214 -12.744 -27.144  0.00  0.00    -0.089 HD
ENDBRANCH  29  33
ENDBRANCH  21  26
ENDBRANCH   2  22
TORSDOF 5
ENDMDL
MODEL 4
REMARK VINA RESULT:     -10.1      4.241      8.288
REMARK  Name = 44814409
REMARK  5 active torsions:
REMARK  status: ('A' for Active; 'I' for Inactive)
REMARK    1  A    between atoms: N_2  and  C_22
REMARK    2  A    between atoms: C_3  and  C_7
REMARK    3  A    between atoms: C_9  and  C_14
REMARK    4  A    between atoms: C_21  and  C_26
REMARK    5  A    between atoms: C_29  and  N_33
REMARK                            x       y       z     vdW  Elec       q    Type
REMARK                         _______ _______ _______ _____ _____    ______ ____
ROOT
ATOM      1  O   UNL     1      37.568 -20.197 -16.395  0.00  0.00    -0.267 OA
ATOM      2  N   UNL     1      36.126 -21.928 -17.070  0.00  0.00    -0.278 N 
ATOM      3  C   UNL     1      37.179 -21.359 -16.340  0.00  0.00    +0.275 C 
ATOM      4  H   UNL     1      35.949 -22.881 -16.899  0.00  0.00    +0.155 HD
ENDROOT
BRANCH   3   7
ATOM      5  F   UNL     1      39.613 -24.747 -12.674  0.00  0.00    -0.202 F 
ATOM      6  N   UNL     1      37.273 -22.408 -14.179  0.00  0.00    -0.399 NA
ATOM      7  C   UNL     1      37.862 -22.274 -15.388  0.00  0.00    +0.167 C 
ATOM      8  C   UNL     1      39.027 -22.925 -15.761  0.00  0.00    +0.092 C 
ATOM      9  C   UNL     1      37.882 -23.238 -13.303  0.00  0.00    +0.162 C 
ATOM     10  C   UNL     1      39.624 -23.770 -14.832  0.00  0.00    +0.014 C 
ATOM     11  C   UNL     1      39.047 -23.936 -13.578  0.00  0.00    +0.166 C 
BRANCH   9  14
ATOM     12  F   UNL     1      36.173 -25.380 -12.705  0.00  0.00    -0.204 F 
ATOM     13  F   UNL     1      38.237 -21.343 -11.267  0.00  0.00    -0.204 F 
ATOM     14  C   UNL     1      37.224 -23.358 -12.023  0.00  0.00    +0.087 C 
ATOM     15  C   UNL     1      36.382 -24.441 -11.770  0.00  0.00    +0.145 C 
ATOM     16  C   UNL     1      37.432 -22.391 -11.039  0.00  0.00    +0.145 C 
ATOM     17  C   UNL     1      35.748 -24.556 -10.533  0.00  0.00    +0.030 C 
ATOM     18  C   UNL     1      36.796 -22.506  -9.803  0.00  0.00    +0.030 C 
ATOM     19  C   UNL     1      35.954 -23.588  -9.550  0.00  0.00    +0.005 C 
ENDBRANCH   9  14
ENDBRANCH   3   7
BRANCH   2  22
ATOM     20  N   UNL     1      35.112 -19.863 -19.935  0.00  0.00    -0.241 NA
ATOM     21  C   UNL     1      33.919 -21.486 -17.997  0.00  0.00    -0.006 C 
ATOM     22  C   UNL     1      35.298 -21.310 -18.007  0.00  0.00    +0.066 C 
ATOM     23  C   UNL     1      33.136 -20.850 -18.954  0.00  0.00    +0.018 C 
ATOM     24  C   UNL     1      35.841 -20.497 -18.988  0.00  0.00    +0.113 C 
ATOM     25  C   UNL     1      33.775 -20.057 -19.893  0.00  0.00    +0.099 C 
BRANCH  21  26
ATOM     26  C   UNL     1      33.255 -22.349 -16.972  0.00  0.00    +0.022 C 
ATOM     27  C   UNL     1      31.071 -22.793 -15.750  0.00  0.00    -0.002 C 
ATOM     28  C   UNL     1      31.770 -21.966 -16.840  0.00  0.00    +0.004 C 
ATOM     29  C   UNL     1      33.283 -23.048 -14.535  0.00  0.00    -0.065 C 
ATOM     30  C   UNL     1      33.981 -22.218 -15.621  0.00  0.00    -0.017 C 
ATOM     31  C   UNL     1      31.805 -22.661 -14.408  0.00  0.00    -0.022 C 
ATOM     32  C   UNL     1      29.609 -22.369 -15.610  0.00  0.00    -0.000 C 
BRANCH  29  33
ATOM     33  N   UNL     1      33.958 -22.855 -13.254  0.00  0.00    +0.382 N 
ATOM     34  H   UNL     1      33.755 -23.643 -12.639  0.00  0.00    -0.089 HD
ATOM     35  H   UNL     1      33.626 -21.993 -12.821  0.00  0.00    -0.089 HD
ATOM     36  H   UNL     1      34.965 -22.794 -13.405  0.00  0.00    -0.089 HD
ENDBRANCH  29  33
ENDBRANCH  21  26
ENDBRANCH   2  22
TORSDOF 5
ENDMDL
MODEL 5
REMARK VINA RESULT:     -10.1      4.590     10.470
REMARK  Name = 44814409
REMARK  5 active torsions:
REMARK  status: ('A' for Active; 'I' for Inactive)
REMARK    1  A    between atoms: N_2  and  C_22
REMARK    2  A    between atoms: C_3  and  C_7
REMARK    3  A    between atoms: C_9  and  C_14
REMARK    4  A    between atoms: C_21  and  C_26
REMARK    5  A    between atoms: C_29  and  N_33
REMARK                            x       y       z     vdW  Elec       q    Type
REMARK                         _______ _______ _______ _____ _____    ______ ____
ROOT
ATOM      1  O   UNL     1      35.314 -13.816 -19.750  0.00  0.00    -0.267 OA
ATOM      2  N   UNL     1      33.267 -13.731 -20.905  0.00  0.00    -0.278 N 
ATOM      3  C   UNL     1      34.521 -14.262 -20.573  0.00  0.00    +0.275 C 
ATOM      4  H   UNL     1      32.759 -14.222 -21.591  0.00  0.00    +0.155 HD
ENDROOT
BRANCH   3   7
ATOM      5  F   UNL     1      35.897 -19.011 -23.102  0.00  0.00    -0.202 F 
ATOM      6  N   UNL     1      34.960 -16.626 -20.525  0.00  0.00    -0.399 NA
ATOM      7  C   UNL     1      34.893 -15.512 -21.287  0.00  0.00    +0.167 C 
ATOM      8  C   UNL     1      35.146 -15.487 -22.650  0.00  0.00    +0.092 C 
ATOM      9  C   UNL     1      35.296 -17.770 -21.162  0.00  0.00    +0.162 C 
ATOM     10  C   UNL     1      35.490 -16.684 -23.268  0.00  0.00    +0.014 C 
ATOM     11  C   UNL     1      35.568 -17.852 -22.518  0.00  0.00    +0.166 C 
BRANCH   9  14
ATOM     12  F   UNL     1      37.722 -18.750 -20.153  0.00  0.00    -0.204 F 
ATOM     13  F   UNL     1      32.995 -19.197 -20.431  0.00  0.00    -0.204 F 
ATOM     14  C   UNL     1      35.357 -18.940 -20.316  0.00  0.00    +0.087 C 
ATOM     15  C   UNL     1      36.587 -19.391 -19.838  0.00  0.00    +0.145 C 
ATOM     16  C   UNL     1      34.185 -19.617 -19.978  0.00  0.00    +0.145 C 
ATOM     17  C   UNL     1      36.645 -20.520 -19.020  0.00  0.00    +0.030 C 
ATOM     18  C   UNL     1      34.243 -20.747 -19.162  0.00  0.00    +0.030 C 
ATOM     19  C   UNL     1      35.474 -21.198 -18.684  0.00  0.00    +0.005 C 
ENDBRANCH   9  14
ENDBRANCH   3   7
BRANCH   2  22
ATOM     20  N   UNL     1      31.724 -11.473 -18.451  0.00  0.00    -0.241 NA
ATOM     21  C   UNL     1      32.350 -11.493 -21.176  0.00  0.00    -0.006 C 
ATOM     22  C   UNL     1      32.650 -12.594 -20.382  0.00  0.00    +0.066 C 
ATOM     23  C   UNL     1      31.736 -10.382 -20.609  0.00  0.00    +0.018 C 
ATOM     24  C   UNL     1      32.320 -12.535 -19.038  0.00  0.00    +0.113 C 
ATOM     25  C   UNL     1      31.447 -10.421 -19.254  0.00  0.00    +0.099 C 
BRANCH  21  26
ATOM     26  C   UNL     1      32.675 -11.477 -22.635  0.00  0.00    +0.022 C 
ATOM     27  C   UNL     1      33.280 -12.931 -24.630  0.00  0.00    -0.002 C 
ATOM     28  C   UNL     1      32.884 -12.915 -23.146  0.00  0.00    +0.004 C 
ATOM     29  C   UNL     1      34.316 -10.630 -24.372  0.00  0.00    -0.065 C 
ATOM     30  C   UNL     1      33.925 -10.615 -22.889  0.00  0.00    -0.017 C 
ATOM     31  C   UNL     1      34.524 -12.064 -24.874  0.00  0.00    -0.022 C 
ATOM     32  C   UNL     1      33.521 -14.364 -25.105  0.00  0.00    -0.000 C 
BRANCH  29  33
ATOM     33  N   UNL     1      35.538  -9.853 -24.570  0.00  0.00    +0.382 N 
ATOM     34  H   UNL     1      36.143 -10.334 -25.235  0.00  0.00    -0.089 HD
ATOM     35  H   UNL     1      36.025  -9.753 -23.679  0.00  0.00    -0.089 HD
ATOM     36  H   UNL     1      35.299  -8.930 -24.933  0.00  0.00    -0.089 HD
ENDBRANCH  29  33
ENDBRANCH  21  26
ENDBRANCH   2  22
TORSDOF 5
ENDMDL
MODEL 6
REMARK VINA RESULT:     -10.1      7.571     13.916
REMARK  Name = 44814409
REMARK  5 active torsions:
REMARK  status: ('A' for Active; 'I' for Inactive)
REMARK    1  A    between atoms: N_2  and  C_22
REMARK    2  A    between atoms: C_3  and  C_7
REMARK    3  A    between atoms: C_9  and  C_14
REMARK    4  A    between atoms: C_21  and  C_26
REMARK    5  A    between atoms: C_29  and  N_33
REMARK                            x       y       z     vdW  Elec       q    Type
REMARK                         _______ _______ _______ _____ _____    ______ ____
ROOT
ATOM      1  O   UNL     1      34.106 -11.394 -24.831  0.00  0.00    -0.267 OA
ATOM      2  N   UNL     1      34.448  -9.636 -23.306  0.00  0.00    -0.278 N 
ATOM      3  C   UNL     1      34.108 -10.940 -23.691  0.00  0.00    +0.275 C 
ATOM      4  H   UNL     1      34.395  -9.443 -22.342  0.00  0.00    +0.155 HD
ENDROOT
BRANCH   3   7
ATOM      5  F   UNL     1      32.841 -14.475 -19.600  0.00  0.00    -0.202 F 
ATOM      6  N   UNL     1      34.350 -13.064 -22.589  0.00  0.00    -0.399 NA
ATOM      7  C   UNL     1      33.741 -11.857 -22.580  0.00  0.00    +0.167 C 
ATOM      8  C   UNL     1      32.827 -11.456 -21.618  0.00  0.00    +0.092 C 
ATOM      9  C   UNL     1      34.027 -13.907 -21.583  0.00  0.00    +0.162 C 
ATOM     10  C   UNL     1      32.521 -12.353 -20.600  0.00  0.00    +0.014 C 
ATOM     11  C   UNL     1      33.128 -13.603 -20.575  0.00  0.00    +0.166 C 
BRANCH   9  14
ATOM     12  F   UNL     1      35.170 -15.061 -19.297  0.00  0.00    -0.204 F 
ATOM     13  F   UNL     1      34.265 -15.383 -23.956  0.00  0.00    -0.204 F 
ATOM     14  C   UNL     1      34.698 -15.186 -21.625  0.00  0.00    +0.087 C 
ATOM     15  C   UNL     1      35.252 -15.721 -20.463  0.00  0.00    +0.145 C 
ATOM     16  C   UNL     1      34.791 -15.885 -22.829  0.00  0.00    +0.145 C 
ATOM     17  C   UNL     1      35.899 -16.956 -20.503  0.00  0.00    +0.030 C 
ATOM     18  C   UNL     1      35.439 -17.120 -22.870  0.00  0.00    +0.030 C 
ATOM     19  C   UNL     1      35.993 -17.654 -21.707  0.00  0.00    +0.005 C 
ENDBRANCH   9  14
ENDBRANCH   3   7
BRANCH   2  22
ATOM     20  N   UNL     1      36.228  -7.822 -25.960  0.00  0.00    -0.241 NA
ATOM     21  C   UNL     1      34.348  -7.293 -23.960  0.00  0.00    -0.006 C 
ATOM     22  C   UNL     1      34.853  -8.578 -24.121  0.00  0.00    +0.066 C 
ATOM     23  C   UNL     1      34.781  -6.272 -24.798  0.00  0.00    +0.018 C 
ATOM     24  C   UNL     1      35.782  -8.789 -25.127  0.00  0.00    +0.113 C 
ATOM     25  C   UNL     1      35.713  -6.586 -25.774  0.00  0.00    +0.099 C 
BRANCH  21  26
ATOM     26  C   UNL     1      33.341  -6.983 -22.899  0.00  0.00    +0.022 C 
ATOM     27  C   UNL     1      31.859  -5.159 -21.930  0.00  0.00    -0.002 C 
ATOM     28  C   UNL     1      32.850  -5.531 -23.043  0.00  0.00    +0.004 C 
ATOM     29  C   UNL     1      32.956  -6.855 -20.396  0.00  0.00    -0.065 C 
ATOM     30  C   UNL     1      33.950  -7.224 -21.506  0.00  0.00    -0.017 C 
ATOM     31  C   UNL     1      32.473  -5.408 -20.545  0.00  0.00    -0.022 C 
ATOM     32  C   UNL     1      31.416  -3.703 -22.071  0.00  0.00    -0.000 C 
BRANCH  29  33
ATOM     33  N   UNL     1      33.585  -7.036 -19.089  0.00  0.00    +0.382 N 
ATOM     34  H   UNL     1      33.365  -6.239 -18.492  0.00  0.00    -0.089 HD
ATOM     35  H   UNL     1      34.596  -7.106 -19.205  0.00  0.00    -0.089 HD
ATOM     36  H   UNL     1      33.232  -7.891 -18.658  0.00  0.00    -0.089 HD
ENDBRANCH  29  33
ENDBRANCH  21  26
ENDBRANCH   2  22
TORSDOF 5
ENDMDL
MODEL 7
REMARK VINA RESULT:     -10.1      7.571     13.993
REMARK  Name = 44814409
REMARK  5 active torsions:
REMARK  status: ('A' for Active; 'I' for Inactive)
REMARK    1  A    between atoms: N_2  and  C_22
REMARK    2  A    between atoms: C_3  and  C_7
REMARK    3  A    between atoms: C_9  and  C_14
REMARK    4  A    between atoms: C_21  and  C_26
REMARK    5  A    between atoms: C_29  and  N_33
REMARK                            x       y       z     vdW  Elec       q    Type
REMARK                         _______ _______ _______ _____ _____    ______ ____
ROOT
ATOM      1  O   UNL     1      34.155 -11.395 -24.834  0.00  0.00    -0.267 OA
ATOM      2  N   UNL     1      34.441  -9.616 -23.322  0.00  0.00    -0.278 N 
ATOM      3  C   UNL     1      34.129 -10.930 -23.700  0.00  0.00    +0.275 C 
ATOM      4  H   UNL     1      34.367  -9.415 -22.361  0.00  0.00    +0.155 HD
ENDROOT
BRANCH   3   7
ATOM      5  F   UNL     1      32.841 -14.447 -19.599  0.00  0.00    -0.202 F 
ATOM      6  N   UNL     1      34.357 -13.053 -22.594  0.00  0.00    -0.399 NA
ATOM      7  C   UNL     1      33.757 -11.842 -22.586  0.00  0.00    +0.167 C 
ATOM      8  C   UNL     1      32.847 -11.432 -21.623  0.00  0.00    +0.092 C 
ATOM      9  C   UNL     1      34.029 -13.892 -21.586  0.00  0.00    +0.162 C 
ATOM     10  C   UNL     1      32.535 -12.324 -20.603  0.00  0.00    +0.014 C 
ATOM     11  C   UNL     1      33.133 -13.579 -20.576  0.00  0.00    +0.166 C 
BRANCH   9  14
ATOM     12  F   UNL     1      34.262 -15.369 -23.958  0.00  0.00    -0.204 F 
ATOM     13  F   UNL     1      35.154 -15.057 -19.297  0.00  0.00    -0.204 F 
ATOM     14  C   UNL     1      34.689 -15.176 -21.626  0.00  0.00    +0.087 C 
ATOM     15  C   UNL     1      34.781 -15.875 -22.829  0.00  0.00    +0.145 C 
ATOM     16  C   UNL     1      35.235 -15.716 -20.462  0.00  0.00    +0.145 C 
ATOM     17  C   UNL     1      35.420 -17.114 -22.868  0.00  0.00    +0.030 C 
ATOM     18  C   UNL     1      35.873 -16.956 -20.500  0.00  0.00    +0.030 C 
ATOM     19  C   UNL     1      35.965 -17.655 -21.704  0.00  0.00    +0.005 C 
ENDBRANCH   9  14
ENDBRANCH   3   7
BRANCH   2  22
ATOM     20  N   UNL     1      36.214  -7.807 -25.983  0.00  0.00    -0.241 NA
ATOM     21  C   UNL     1      34.338  -7.275 -23.980  0.00  0.00    -0.006 C 
ATOM     22  C   UNL     1      34.844  -8.560 -24.139  0.00  0.00    +0.066 C 
ATOM     23  C   UNL     1      34.769  -6.255 -24.821  0.00  0.00    +0.018 C 
ATOM     24  C   UNL     1      35.770  -8.773 -25.147  0.00  0.00    +0.113 C 
ATOM     25  C   UNL     1      35.699  -6.571 -25.798  0.00  0.00    +0.099 C 
BRANCH  21  26
ATOM     26  C   UNL     1      33.333  -6.964 -22.917  0.00  0.00    +0.022 C 
ATOM     27  C   UNL     1      31.868  -5.133 -21.936  0.00  0.00    -0.002 C 
ATOM     28  C   UNL     1      32.856  -5.506 -23.051  0.00  0.00    +0.004 C 
ATOM     29  C   UNL     1      32.949  -6.849 -20.414  0.00  0.00    -0.065 C 
ATOM     30  C   UNL     1      33.940  -7.219 -21.525  0.00  0.00    -0.017 C 
ATOM     31  C   UNL     1      32.479  -5.397 -20.552  0.00  0.00    -0.022 C 
ATOM     32  C   UNL     1      31.439  -3.672 -22.067  0.00  0.00    -0.000 C 
BRANCH  29  33
ATOM     33  N   UNL     1      33.575  -7.046 -19.108  0.00  0.00    +0.382 N 
ATOM     34  H   UNL     1      33.559  -6.169 -18.587  0.00  0.00    -0.089 HD
ATOM     35  H   UNL     1      34.541  -7.348 -19.235  0.00  0.00    -0.089 HD
ATOM     36  H   UNL     1      33.062  -7.758 -18.588  0.00  0.00    -0.089 HD
ENDBRANCH  29  33
ENDBRANCH  21  26
ENDBRANCH   2  22
TORSDOF 5
ENDMDL
MODEL 8
REMARK VINA RESULT:      -9.8      5.432     10.779
REMARK  Name = 44814409
REMARK  5 active torsions:
REMARK  status: ('A' for Active; 'I' for Inactive)
REMARK    1  A    between atoms: N_2  and  C_22
REMARK    2  A    between atoms: C_3  and  C_7
REMARK    3  A    between atoms: C_9  and  C_14
REMARK    4  A    between atoms: C_21  and  C_26
REMARK    5  A    between atoms: C_29  and  N_33
REMARK                            x       y       z     vdW  Elec       q    Type
REMARK                         _______ _______ _______ _____ _____    ______ ____
ROOT
ATOM      1  O   UNL     1      35.624 -13.463 -22.113  0.00  0.00    -0.267 OA
ATOM      2  N   UNL     1      34.129 -12.918 -23.845  0.00  0.00    -0.278 N 
ATOM      3  C   UNL     1      34.877 -13.781 -23.033  0.00  0.00    +0.275 C 
ATOM      4  H   UNL     1      33.578 -13.348 -24.539  0.00  0.00    +0.155 HD
ENDROOT
BRANCH   3   7
ATOM      5  F   UNL     1      34.310 -19.228 -23.956  0.00  0.00    -0.202 F 
ATOM      6  N   UNL     1      35.102 -16.072 -22.337  0.00  0.00    -0.399 NA
ATOM      7  C   UNL     1      34.709 -15.230 -23.319  0.00  0.00    +0.167 C 
ATOM      8  C   UNL     1      34.180 -15.645 -24.532  0.00  0.00    +0.092 C 
ATOM      9  C   UNL     1      34.953 -17.393 -22.584  0.00  0.00    +0.162 C 
ATOM     10  C   UNL     1      34.044 -17.012 -24.748  0.00  0.00    +0.014 C 
ATOM     11  C   UNL     1      34.436 -17.909 -23.760  0.00  0.00    +0.166 C 
BRANCH   9  14
ATOM     12  F   UNL     1      33.160 -19.057 -21.213  0.00  0.00    -0.204 F 
ATOM     13  F   UNL     1      37.628 -17.516 -21.749  0.00  0.00    -0.204 F 
ATOM     14  C   UNL     1      35.382 -18.261 -21.512  0.00  0.00    +0.087 C 
ATOM     15  C   UNL     1      34.454 -19.072 -20.858  0.00  0.00    +0.145 C 
ATOM     16  C   UNL     1      36.723 -18.289 -21.131  0.00  0.00    +0.145 C 
ATOM     17  C   UNL     1      34.868 -19.911 -19.824  0.00  0.00    +0.030 C 
ATOM     18  C   UNL     1      37.138 -19.128 -20.096  0.00  0.00    +0.030 C 
ATOM     19  C   UNL     1      36.209 -19.938 -19.442  0.00  0.00    +0.005 C 
ENDBRANCH   9  14
ENDBRANCH   3   7
BRANCH   2  22
ATOM     20  N   UNL     1      34.791  -9.407 -24.704  0.00  0.00    -0.241 NA
ATOM     21  C   UNL     1      33.283 -10.862 -22.853  0.00  0.00    -0.006 C 
ATOM     22  C   UNL     1      34.067 -11.525 -23.790  0.00  0.00    +0.066 C 
ATOM     23  C   UNL     1      33.253  -9.472 -22.840  0.00  0.00    +0.018 C 
ATOM     24  C   UNL     1      34.795 -10.759 -24.686  0.00  0.00    +0.113 C 
ATOM     25  C   UNL     1      34.017  -8.798 -23.778  0.00  0.00    +0.099 C 
BRANCH  21  26
ATOM     26  C   UNL     1      32.466 -11.616 -21.853  0.00  0.00    +0.022 C 
ATOM     27  C   UNL     1      31.072 -11.392 -19.739  0.00  0.00    -0.002 C 
ATOM     28  C   UNL     1      31.867 -10.644 -20.819  0.00  0.00    +0.004 C 
ATOM     29  C   UNL     1      32.532 -13.436 -20.090  0.00  0.00    -0.065 C 
ATOM     30  C   UNL     1      33.330 -12.688 -21.165  0.00  0.00    -0.017 C 
ATOM     31  C   UNL     1      31.940 -12.464 -19.063  0.00  0.00    -0.022 C 
ATOM     32  C   UNL     1      30.520 -10.413 -18.704  0.00  0.00    -0.000 C 
BRANCH  29  33
ATOM     33  N   UNL     1      33.395 -14.404 -19.416  0.00  0.00    +0.382 N 
ATOM     34  H   UNL     1      34.367 -14.228 -19.669  0.00  0.00    -0.089 HD
ATOM     35  H   UNL     1      33.135 -15.349 -19.702  0.00  0.00    -0.089 HD
ATOM     36  H   UNL     1      33.285 -14.313 -18.406  0.00  0.00    -0.089 HD
ENDBRANCH  29  33
ENDBRANCH  21  26
ENDBRANCH   2  22
TORSDOF 5
ENDMDL
MODEL 9
REMARK VINA RESULT:      -9.6      9.204     14.200
REMARK  Name = 44814409
REMARK  5 active torsions:
REMARK  status: ('A' for Active; 'I' for Inactive)
REMARK    1  A    between atoms: N_2  and  C_22
REMARK    2  A    between atoms: C_3  and  C_7
REMARK    3  A    between atoms: C_9  and  C_14
REMARK    4  A    between atoms: C_21  and  C_26
REMARK    5  A    between atoms: C_29  and  N_33
REMARK                            x       y       z     vdW  Elec       q    Type
REMARK                         _______ _______ _______ _____ _____    ______ ____
ROOT
ATOM      1  O   UNL     1      35.062  -8.174 -23.908  0.00  0.00    -0.267 OA
ATOM      2  N   UNL     1      32.730  -7.989 -24.156  0.00  0.00    -0.278 N 
ATOM      3  C   UNL     1      33.955  -8.669 -24.094  0.00  0.00    +0.275 C 
ATOM      4  H   UNL     1      31.934  -8.548 -24.312  0.00  0.00    +0.155 HD
ENDROOT
BRANCH   3   7
ATOM      5  F   UNL     1      33.635 -14.198 -24.501  0.00  0.00    -0.202 F 
ATOM      6  N   UNL     1      33.768 -10.849 -23.096  0.00  0.00    -0.399 NA
ATOM      7  C   UNL     1      33.872 -10.145 -24.246  0.00  0.00    +0.167 C 
ATOM      8  C   UNL     1      33.905 -10.720 -25.507  0.00  0.00    +0.092 C 
ATOM      9  C   UNL     1      33.691 -12.192 -23.220  0.00  0.00    +0.162 C 
ATOM     10  C   UNL     1      33.824 -12.105 -25.592  0.00  0.00    +0.014 C 
ATOM     11  C   UNL     1      33.714 -12.863 -24.432  0.00  0.00    +0.166 C 
BRANCH   9  14
ATOM     12  F   UNL     1      35.684 -13.957 -22.337  0.00  0.00    -0.204 F 
ATOM     13  F   UNL     1      31.468 -11.906 -21.534  0.00  0.00    -0.204 F 
ATOM     14  C   UNL     1      33.579 -12.911 -21.971  0.00  0.00    +0.087 C 
ATOM     15  C   UNL     1      34.595 -13.778 -21.573  0.00  0.00    +0.145 C 
ATOM     16  C   UNL     1      32.454 -12.735 -21.165  0.00  0.00    +0.145 C 
ATOM     17  C   UNL     1      34.488 -14.471 -20.367  0.00  0.00    +0.030 C 
ATOM     18  C   UNL     1      32.346 -13.429 -19.959  0.00  0.00    +0.030 C 
ATOM     19  C   UNL     1      33.363 -14.297 -19.561  0.00  0.00    +0.005 C 
ENDBRANCH   9  14
ENDBRANCH   3   7
BRANCH   2  22
ATOM     20  N   UNL     1      32.002  -4.514 -25.101  0.00  0.00    -0.241 NA
ATOM     21  C   UNL     1      32.520  -5.990 -22.784  0.00  0.00    -0.006 C 
ATOM     22  C   UNL     1      32.500  -6.620 -24.023  0.00  0.00    +0.066 C 
ATOM     23  C   UNL     1      32.283  -4.623 -22.701  0.00  0.00    +0.018 C 
ATOM     24  C   UNL     1      32.238  -5.845 -25.140  0.00  0.00    +0.113 C 
ATOM     25  C   UNL     1      32.030  -3.936 -23.878  0.00  0.00    +0.099 C 
BRANCH  21  26
ATOM     26  C   UNL     1      32.794  -6.756 -21.529  0.00  0.00    +0.022 C 
ATOM     27  C   UNL     1      32.040  -8.724 -20.107  0.00  0.00    -0.002 C 
ATOM     28  C   UNL     1      31.828  -7.950 -21.416  0.00  0.00    +0.004 C 
ATOM     29  C   UNL     1      32.886  -6.604 -19.000  0.00  0.00    -0.065 C 
ATOM     30  C   UNL     1      32.669  -5.829 -20.306  0.00  0.00    -0.017 C 
ATOM     31  C   UNL     1      31.920  -7.790 -18.894  0.00  0.00    -0.022 C 
ATOM     32  C   UNL     1      31.046  -9.879 -19.999  0.00  0.00    -0.000 C 
BRANCH  29  33
ATOM     33  N   UNL     1      32.702  -5.711 -17.858  0.00  0.00    +0.382 N 
ATOM     34  H   UNL     1      31.876  -5.131 -18.008  0.00  0.00    -0.089 HD
ATOM     35  H   UNL     1      33.523  -5.113 -17.758  0.00  0.00    -0.089 HD
ATOM     36  H   UNL     1      32.579  -6.264 -17.010  0.00  0.00    -0.089 HD
ENDBRANCH  29  33
ENDBRANCH  21  26
ENDBRANCH   2  22
TORSDOF 5
ENDMDL
