MODEL 1
REMARK VINA RESULT:     -11.8      0.000      0.000
REMARK  Name = 8969
REMARK  3 active torsions:
REMARK  status: ('A' for Active; 'I' for Inactive)
REMARK    1  A    between atoms: C_7  and  C_27
REMARK    2  A    between atoms: C_10  and  O_24
REMARK    3  A    between atoms: C_27  and  O_28
REMARK                            x       y       z     vdW  Elec       q    Type
REMARK                         _______ _______ _______ _____ _____    ______ ____
ROOT
ATOM      1  N   UNL     1      34.446 -22.466 -15.701  0.00  0.00    +0.392 N 
ATOM      2  N   UNL     1      33.364 -21.037 -18.987  0.00  0.00    -0.358 N 
ATOM      3  C   UNL     1      31.618 -23.147 -15.364  0.00  0.00    +0.009 C 
ATOM      4  C   UNL     1      32.629 -23.176 -14.198  0.00  0.00    -0.020 C 
ATOM      5  C   UNL     1      32.101 -22.144 -16.428  0.00  0.00    -0.015 C 
ATOM      6  C   UNL     1      33.533 -22.480 -16.878  0.00  0.00    -0.019 C 
ATOM      7  C   UNL     1      30.208 -22.821 -14.833  0.00  0.00    +0.126 C 
ATOM      8  C   UNL     1      34.047 -23.475 -14.711  0.00  0.00    -0.077 C 
ATOM      9  C   UNL     1      32.203 -24.179 -13.120  0.00  0.00    +0.000 C 
ATOM     10  C   UNL     1      29.771 -23.815 -13.743  0.00  0.00    +0.121 C 
ATOM     11  C   UNL     1      30.793 -23.873 -12.606  0.00  0.00    +0.030 C 
ATOM     12  C   UNL     1      34.051 -21.526 -17.911  0.00  0.00    +0.010 A 
ATOM     13  C   UNL     1      35.860 -22.627 -16.099  0.00  0.00    -0.072 C 
ATOM     14  C   UNL     1      35.343 -21.049 -17.969  0.00  0.00    -0.013 A 
ATOM     15  C   UNL     1      36.348 -21.420 -16.935  0.00  0.00    +0.005 C 
ATOM     16  C   UNL     1      35.444 -20.208 -19.110  0.00  0.00    +0.013 A 
ATOM     17  C   UNL     1      34.189 -20.218 -19.730  0.00  0.00    +0.056 A 
ATOM     18  C   UNL     1      36.476 -19.440 -19.683  0.00  0.00    +0.001 C 
ATOM     19  C   UNL     1      33.920 -19.495 -20.899  0.00  0.00    +0.017 C 
ATOM     20  C   UNL     1      36.220 -18.711 -20.850  0.00  0.00    +0.000 C 
ATOM     21  C   UNL     1      34.962 -18.740 -21.446  0.00  0.00    +0.001 C 
ATOM     22  H   UNL     1      34.362 -21.549 -15.262  0.00  0.00    -0.079 HD
ATOM     23  H   UNL     1      32.425 -21.238 -19.200  0.00  0.00    +0.166 HD
ENDROOT
BRANCH  10  24
ATOM     24  O   UNL     1      29.638 -25.121 -14.308  0.00  0.00    -0.384 OA
ATOM     25  H   UNL     1      29.366 -25.046 -15.235  0.00  0.00    +0.210 HD
ENDBRANCH  10  24
BRANCH   7  27
ATOM     26  O   UNL     1      28.955 -23.808 -16.641  0.00  0.00    -0.250 OA
ATOM     27  C   UNL     1      29.189 -22.834 -15.937  0.00  0.00    +0.319 C 
BRANCH  27  28
ATOM     28  O   UNL     1      28.589 -21.614 -16.018  0.00  0.00    -0.444 OA
ATOM     29  C   UNL     1      27.221 -21.572 -15.599  0.00  0.00    +0.256 C 
ENDBRANCH  27  28
ENDBRANCH   7  27
TORSDOF 3
ENDMDL
MODEL 2
REMARK VINA RESULT:      -9.0     11.064     14.116
REMARK  Name = 8969
REMARK  3 active torsions:
REMARK  status: ('A' for Active; 'I' for Inactive)
REMARK    1  A    between atoms: C_7  and  C_27
REMARK    2  A    between atoms: C_10  and  O_24
REMARK    3  A    between atoms: C_27  and  O_28
REMARK                            x       y       z     vdW  Elec       q    Type
REMARK                         _______ _______ _______ _____ _____    ______ ____
ROOT
ATOM      1  N   UNL     1      32.685 -10.804 -20.194  0.00  0.00    +0.392 N 
ATOM      2  N   UNL     1      33.347 -12.183 -23.610  0.00  0.00    -0.358 N 
ATOM      3  C   UNL     1      32.331  -8.249 -21.580  0.00  0.00    +0.009 C 
ATOM      4  C   UNL     1      32.509  -8.352 -20.050  0.00  0.00    -0.020 C 
ATOM      5  C   UNL     1      33.002  -9.462 -22.250  0.00  0.00    -0.015 C 
ATOM      6  C   UNL     1      32.455 -10.776 -21.665  0.00  0.00    -0.019 C 
ATOM      7  C   UNL     1      32.886  -6.904 -22.088  0.00  0.00    +0.126 C 
ATOM      8  C   UNL     1      31.983  -9.699 -19.528  0.00  0.00    -0.077 C 
ATOM      9  C   UNL     1      31.836  -7.175 -19.334  0.00  0.00    +0.000 C 
ATOM     10  C   UNL     1      32.226  -5.714 -21.370  0.00  0.00    +0.121 C 
ATOM     11  C   UNL     1      32.367  -5.836 -19.852  0.00  0.00    +0.030 C 
ATOM     12  C   UNL     1      33.084 -11.987 -22.284  0.00  0.00    +0.010 A 
ATOM     13  C   UNL     1      32.321 -12.110 -19.605  0.00  0.00    -0.072 C 
ATOM     14  C   UNL     1      33.429 -13.134 -21.599  0.00  0.00    -0.013 A 
ATOM     15  C   UNL     1      33.245 -13.236 -20.126  0.00  0.00    +0.005 C 
ATOM     16  C   UNL     1      33.955 -14.058 -22.542  0.00  0.00    +0.013 A 
ATOM     17  C   UNL     1      33.893 -13.437 -23.795  0.00  0.00    +0.056 A 
ATOM     18  C   UNL     1      34.477 -15.364 -22.459  0.00  0.00    +0.001 C 
ATOM     19  C   UNL     1      34.327 -14.063 -24.969  0.00  0.00    +0.017 C 
ATOM     20  C   UNL     1      34.916 -16.001 -23.625  0.00  0.00    +0.000 C 
ATOM     21  C   UNL     1      34.842 -15.359 -24.859  0.00  0.00    +0.001 C 
ATOM     22  H   UNL     1      33.685 -10.675 -20.040  0.00  0.00    -0.079 HD
ATOM     23  H   UNL     1      33.175 -11.530 -24.326  0.00  0.00    +0.166 HD
ENDROOT
BRANCH  10  24
ATOM     24  O   UNL     1      30.836  -5.664 -21.699  0.00  0.00    -0.384 OA
ATOM     25  H   UNL     1      30.728  -5.726 -22.660  0.00  0.00    +0.210 HD
ENDBRANCH  10  24
BRANCH   7  27
ATOM     26  O   UNL     1      31.641  -7.025 -24.149  0.00  0.00    -0.250 OA
ATOM     27  C   UNL     1      32.683  -6.749 -23.568  0.00  0.00    +0.319 C 
BRANCH  27  28
ATOM     28  O   UNL     1      33.823  -6.264 -24.136  0.00  0.00    -0.444 OA
ATOM     29  C   UNL     1      34.916  -7.185 -24.205  0.00  0.00    +0.256 C 
ENDBRANCH  27  28
ENDBRANCH   7  27
TORSDOF 3
ENDMDL
MODEL 3
REMARK VINA RESULT:      -8.9     11.982     15.135
REMARK  Name = 8969
REMARK  3 active torsions:
REMARK  status: ('A' for Active; 'I' for Inactive)
REMARK    1  A    between atoms: C_7  and  C_27
REMARK    2  A    between atoms: C_10  and  O_24
REMARK    3  A    between atoms: C_27  and  O_28
REMARK                            x       y       z     vdW  Elec       q    Type
REMARK                         _______ _______ _______ _____ _____    ______ ____
ROOT
ATOM      1  N   UNL     1      31.985  -7.844 -20.625  0.00  0.00    +0.392 N 
ATOM      2  N   UNL     1      33.404  -6.621 -23.865  0.00  0.00    -0.358 N 
ATOM      3  C   UNL     1      33.018 -10.454 -21.460  0.00  0.00    +0.009 C 
ATOM      4  C   UNL     1      32.004 -10.285 -20.307  0.00  0.00    -0.020 C 
ATOM      5  C   UNL     1      32.867  -9.276 -22.441  0.00  0.00    -0.015 C 
ATOM      6  C   UNL     1      33.009  -7.934 -21.703  0.00  0.00    -0.019 C 
ATOM      7  C   UNL     1      32.825 -11.824 -22.137  0.00  0.00    +0.126 C 
ATOM      8  C   UNL     1      32.164  -8.913 -19.634  0.00  0.00    -0.077 C 
ATOM      9  C   UNL     1      32.130 -11.424 -19.288  0.00  0.00    +0.000 C 
ATOM     10  C   UNL     1      32.939 -12.977 -21.124  0.00  0.00    +0.121 C 
ATOM     11  C   UNL     1      31.963 -12.789 -19.961  0.00  0.00    +0.030 C 
ATOM     12  C   UNL     1      32.864  -6.756 -22.617  0.00  0.00    +0.010 A 
ATOM     13  C   UNL     1      31.973  -6.510 -19.987  0.00  0.00    -0.072 C 
ATOM     14  C   UNL     1      32.212  -5.584 -22.298  0.00  0.00    -0.013 A 
ATOM     15  C   UNL     1      31.529  -5.415 -20.986  0.00  0.00    +0.005 C 
ATOM     16  C   UNL     1      32.330  -4.706 -23.409  0.00  0.00    +0.013 A 
ATOM     17  C   UNL     1      33.082  -5.381 -24.378  0.00  0.00    +0.056 A 
ATOM     18  C   UNL     1      31.878  -3.402 -23.689  0.00  0.00    +0.001 C 
ATOM     19  C   UNL     1      33.402  -4.810 -25.615  0.00  0.00    +0.017 C 
ATOM     20  C   UNL     1      32.189  -2.820 -24.924  0.00  0.00    +0.000 C 
ATOM     21  C   UNL     1      32.940  -3.515 -25.870  0.00  0.00    +0.001 C 
ATOM     22  H   UNL     1      31.072  -7.974 -21.061  0.00  0.00    -0.079 HD
ATOM     23  H   UNL     1      33.940  -7.303 -24.329  0.00  0.00    +0.166 HD
ENDROOT
BRANCH  10  24
ATOM     24  O   UNL     1      34.269 -13.029 -20.603  0.00  0.00    -0.384 OA
ATOM     25  H   UNL     1      34.816 -12.360 -21.044  0.00  0.00    +0.210 HD
ENDBRANCH  10  24
BRANCH   7  27
ATOM     26  O   UNL     1      34.442 -11.139 -23.789  0.00  0.00    -0.250 OA
ATOM     27  C   UNL     1      33.829 -12.041 -23.232  0.00  0.00    +0.319 C 
BRANCH  27  28
ATOM     28  O   UNL     1      33.939 -13.375 -23.493  0.00  0.00    -0.444 OA
ATOM     29  C   UNL     1      33.459 -13.792 -24.775  0.00  0.00    +0.256 C 
ENDBRANCH  27  28
ENDBRANCH   7  27
TORSDOF 3
ENDMDL
MODEL 4
REMARK VINA RESULT:      -8.9     10.074     14.075
REMARK  Name = 8969
REMARK  3 active torsions:
REMARK  status: ('A' for Active; 'I' for Inactive)
REMARK    1  A    between atoms: C_7  and  C_27
REMARK    2  A    between atoms: C_10  and  O_24
REMARK    3  A    between atoms: C_27  and  O_28
REMARK                            x       y       z     vdW  Elec       q    Type
REMARK                         _______ _______ _______ _____ _____    ______ ____
ROOT
ATOM      1  N   UNL     1      33.371 -10.006 -24.259  0.00  0.00    +0.392 N 
ATOM      2  N   UNL     1      34.447 -12.583 -21.768  0.00  0.00    -0.358 N 
ATOM      3  C   UNL     1      32.846  -8.335 -21.912  0.00  0.00    +0.009 C 
ATOM      4  C   UNL     1      32.312  -7.992 -23.319  0.00  0.00    -0.020 C 
ATOM      5  C   UNL     1      33.055  -9.858 -21.808  0.00  0.00    -0.015 C 
ATOM      6  C   UNL     1      33.968 -10.358 -22.941  0.00  0.00    -0.019 C 
ATOM      7  C   UNL     1      31.889  -7.789 -20.834  0.00  0.00    +0.126 C 
ATOM      8  C   UNL     1      33.241  -8.551 -24.408  0.00  0.00    -0.077 C 
ATOM      9  C   UNL     1      32.108  -6.481 -23.480  0.00  0.00    +0.000 C 
ATOM     10  C   UNL     1      31.669  -6.274 -20.990  0.00  0.00    +0.121 C 
ATOM     11  C   UNL     1      31.177  -5.929 -22.397  0.00  0.00    +0.030 C 
ATOM     12  C   UNL     1      34.196 -11.838 -22.885  0.00  0.00    +0.010 A 
ATOM     13  C   UNL     1      34.127 -10.600 -25.382  0.00  0.00    -0.072 C 
ATOM     14  C   UNL     1      34.259 -12.669 -23.984  0.00  0.00    -0.013 A 
ATOM     15  C   UNL     1      34.042 -12.145 -25.359  0.00  0.00    +0.005 C 
ATOM     16  C   UNL     1      34.528 -13.984 -23.516  0.00  0.00    +0.013 A 
ATOM     17  C   UNL     1      34.642 -13.902 -22.124  0.00  0.00    +0.056 A 
ATOM     18  C   UNL     1      34.691 -15.238 -24.137  0.00  0.00    +0.001 C 
ATOM     19  C   UNL     1      34.912 -15.018 -21.323  0.00  0.00    +0.017 C 
ATOM     20  C   UNL     1      34.960 -16.362 -23.347  0.00  0.00    +0.000 C 
ATOM     21  C   UNL     1      35.068 -16.252 -21.963  0.00  0.00    +0.001 C 
ATOM     22  H   UNL     1      32.433 -10.407 -24.285  0.00  0.00    -0.079 HD
ATOM     23  H   UNL     1      34.484 -12.234 -20.848  0.00  0.00    +0.166 HD
ENDROOT
BRANCH  10  24
ATOM     24  O   UNL     1      32.896  -5.583 -20.750  0.00  0.00    -0.384 OA
ATOM     25  H   UNL     1      33.383  -6.024 -20.038  0.00  0.00    +0.210 HD
ENDBRANCH  10  24
BRANCH   7  27
ATOM     26  O   UNL     1      33.443  -7.593 -19.001  0.00  0.00    -0.250 OA
ATOM     27  C   UNL     1      32.406  -8.063 -19.451  0.00  0.00    +0.319 C 
BRANCH  27  28
ATOM     28  O   UNL     1      31.548  -8.900 -18.802  0.00  0.00    -0.444 OA
ATOM     29  C   UNL     1      32.151 -10.047 -18.193  0.00  0.00    +0.256 C 
ENDBRANCH  27  28
ENDBRANCH   7  27
TORSDOF 3
ENDMDL
