MODEL 1
REMARK VINA RESULT:     -11.5      0.000      0.000
REMARK  Name = 11610526
REMARK  3 active torsions:
REMARK  status: ('A' for Active; 'I' for Inactive)
REMARK    1  A    between atoms: C_2  and  C_21
REMARK    2  A    between atoms: C_9  and  C_14
REMARK    3  A    between atoms: C_21  and  C_23
REMARK                            x       y       z     vdW  Elec       q    Type
REMARK                         _______ _______ _______ _____ _____    ______ ____
ROOT
ATOM      1  N   UNL     1      34.554 -20.681 -19.342  0.00  0.00    -0.388 NA
ATOM      2  C   UNL     1      34.959 -21.416 -18.303  0.00  0.00    +0.167 C 
ATOM      3  C   UNL     1      36.178 -21.361 -17.685  0.00  0.00    +0.031 C 
ATOM      4  C   UNL     1      35.468 -19.802 -19.809  0.00  0.00    +0.167 C 
ATOM      5  C   UNL     1      37.092 -20.444 -18.193  0.00  0.00    -0.015 C 
ATOM      6  C   UNL     1      36.738 -19.646 -19.276  0.00  0.00    +0.101 C 
ATOM      7  O   UNL     1      37.057 -17.707 -21.250  0.00  0.00    -0.270 OA
ATOM      8  N   UNL     1      35.122 -18.993 -20.897  0.00  0.00    -0.259 N 
ATOM      9  C   UNL     1      35.907 -18.027 -21.533  0.00  0.00    +0.255 C 
ATOM     10  H   UNL     1      34.216 -19.121 -21.260  0.00  0.00    +0.157 HD
ENDROOT
BRANCH   9  14
ATOM     11  F   UNL     1      34.938 -19.364 -23.800  0.00  0.00    -0.204 F 
ATOM     12  F   UNL     1      35.545 -15.245 -21.513  0.00  0.00    -0.204 F 
ATOM     13  F   UNL     1      33.418 -15.324 -25.738  0.00  0.00    -0.204 F 
ATOM     14  C   UNL     1      35.244 -17.308 -22.652  0.00  0.00    +0.109 C 
ATOM     15  C   UNL     1      34.793 -18.033 -23.736  0.00  0.00    +0.149 C 
ATOM     16  C   UNL     1      35.102 -15.938 -22.572  0.00  0.00    +0.149 C 
ATOM     17  C   UNL     1      34.172 -17.357 -24.786  0.00  0.00    +0.060 C 
ATOM     18  C   UNL     1      34.481 -15.263 -23.623  0.00  0.00    +0.060 C 
ATOM     19  C   UNL     1      34.015 -15.973 -24.730  0.00  0.00    +0.145 C 
ENDBRANCH   9  14
BRANCH   2  21
ATOM     20  O   UNL     1      33.600 -23.334 -18.497  0.00  0.00    -0.289 OA
ATOM     21  C   UNL     1      33.941 -22.381 -17.801  0.00  0.00    +0.202 C 
BRANCH  21  23
ATOM     22  N   UNL     1      31.871 -23.309 -14.189  0.00  0.00    +0.386 N 
ATOM     23  C   UNL     1      33.345 -22.169 -16.443  0.00  0.00    +0.060 C 
ATOM     24  C   UNL     1      33.996 -23.125 -15.444  0.00  0.00    -0.015 C 
ATOM     25  C   UNL     1      31.834 -22.395 -16.488  0.00  0.00    -0.015 C 
ATOM     26  C   UNL     1      33.312 -23.047 -14.077  0.00  0.00    -0.077 C 
ATOM     27  C   UNL     1      31.224 -22.342 -15.086  0.00  0.00    -0.077 C 
ATOM     28  C   UNL     1      31.242 -23.284 -12.869  0.00  0.00    -0.101 C 
ATOM     29  H   UNL     1      31.751 -24.240 -14.591  0.00  0.00    -0.080 HD
ENDBRANCH  21  23
ENDBRANCH   2  21
TORSDOF 3
ENDMDL
MODEL 2
REMARK VINA RESULT:     -11.5      5.070      9.778
REMARK  Name = 11610526
REMARK  3 active torsions:
REMARK  status: ('A' for Active; 'I' for Inactive)
REMARK    1  A    between atoms: C_2  and  C_21
REMARK    2  A    between atoms: C_9  and  C_14
REMARK    3  A    between atoms: C_21  and  C_23
REMARK                            x       y       z     vdW  Elec       q    Type
REMARK                         _______ _______ _______ _____ _____    ______ ____
ROOT
ATOM      1  N   UNL     1      34.445 -22.221 -17.228  0.00  0.00    -0.388 NA
ATOM      2  C   UNL     1      33.279 -21.748 -17.675  0.00  0.00    +0.167 C 
ATOM      3  C   UNL     1      32.071 -21.811 -17.036  0.00  0.00    +0.031 C 
ATOM      4  C   UNL     1      34.393 -22.818 -16.017  0.00  0.00    +0.167 C 
ATOM      5  C   UNL     1      32.056 -22.433 -15.792  0.00  0.00    -0.015 C 
ATOM      6  C   UNL     1      33.236 -22.948 -15.266  0.00  0.00    +0.101 C 
ATOM      7  O   UNL     1      34.879 -24.229 -13.416  0.00  0.00    -0.270 OA
ATOM      8  N   UNL     1      35.575 -23.340 -15.478  0.00  0.00    -0.259 N 
ATOM      9  C   UNL     1      35.744 -23.992 -14.253  0.00  0.00    +0.255 C 
ATOM     10  H   UNL     1      36.384 -23.236 -16.028  0.00  0.00    +0.157 HD
ENDROOT
BRANCH   9  14
ATOM     11  F   UNL     1      37.421 -22.482 -12.588  0.00  0.00    -0.204 F 
ATOM     12  F   UNL     1      36.864 -26.342 -15.300  0.00  0.00    -0.204 F 
ATOM     13  F   UNL     1      40.977 -25.561 -13.097  0.00  0.00    -0.204 F 
ATOM     14  C   UNL     1      37.137 -24.410 -13.945  0.00  0.00    +0.109 C 
ATOM     15  C   UNL     1      37.903 -23.615 -13.118  0.00  0.00    +0.149 C 
ATOM     16  C   UNL     1      37.619 -25.578 -14.497  0.00  0.00    +0.149 C 
ATOM     17  C   UNL     1      39.210 -24.007 -12.830  0.00  0.00    +0.060 C 
ATOM     18  C   UNL     1      38.926 -25.970 -14.209  0.00  0.00    +0.060 C 
ATOM     19  C   UNL     1      39.722 -25.184 -13.375  0.00  0.00    +0.145 C 
ENDBRANCH   9  14
BRANCH   2  21
ATOM     20  O   UNL     1      32.581 -21.431 -19.905  0.00  0.00    -0.289 OA
ATOM     21  C   UNL     1      33.353 -21.094 -19.011  0.00  0.00    +0.202 C 
BRANCH  21  23
ATOM     22  N   UNL     1      36.350 -18.851 -21.053  0.00  0.00    +0.386 N 
ATOM     23  C   UNL     1      34.378 -20.027 -19.243  0.00  0.00    +0.060 C 
ATOM     24  C   UNL     1      33.974 -19.183 -20.451  0.00  0.00    -0.015 C 
ATOM     25  C   UNL     1      35.753 -20.655 -19.469  0.00  0.00    -0.015 C 
ATOM     26  C   UNL     1      35.068 -18.176 -20.815  0.00  0.00    -0.077 C 
ATOM     27  C   UNL     1      36.786 -19.599 -19.865  0.00  0.00    -0.077 C 
ATOM     28  C   UNL     1      37.372 -17.882 -21.451  0.00  0.00    -0.101 C 
ATOM     29  H   UNL     1      36.219 -19.518 -21.814  0.00  0.00    -0.080 HD
ENDBRANCH  21  23
ENDBRANCH   2  21
TORSDOF 3
ENDMDL
MODEL 3
REMARK VINA RESULT:     -11.4      4.461      9.691
REMARK  Name = 11610526
REMARK  3 active torsions:
REMARK  status: ('A' for Active; 'I' for Inactive)
REMARK    1  A    between atoms: C_2  and  C_21
REMARK    2  A    between atoms: C_9  and  C_14
REMARK    3  A    between atoms: C_21  and  C_23
REMARK                            x       y       z     vdW  Elec       q    Type
REMARK                         _______ _______ _______ _____ _____    ______ ____
ROOT
ATOM      1  N   UNL     1      35.797 -20.590 -18.450  0.00  0.00    -0.388 NA
ATOM      2  C   UNL     1      35.101 -20.008 -19.431  0.00  0.00    +0.167 C 
ATOM      3  C   UNL     1      33.771 -20.173 -19.701  0.00  0.00    +0.031 C 
ATOM      4  C   UNL     1      35.083 -21.424 -17.662  0.00  0.00    +0.167 C 
ATOM      5  C   UNL     1      33.069 -21.038 -18.868  0.00  0.00    -0.015 C 
ATOM      6  C   UNL     1      33.731 -21.679 -17.827  0.00  0.00    +0.101 C 
ATOM      7  O   UNL     1      34.033 -23.353 -15.620  0.00  0.00    -0.270 OA
ATOM      8  N   UNL     1      35.739 -22.074 -16.610  0.00  0.00    -0.259 N 
ATOM      9  C   UNL     1      35.197 -22.969 -15.683  0.00  0.00    +0.255 C 
ATOM     10  H   UNL     1      36.699 -21.878 -16.512  0.00  0.00    +0.157 HD
ENDROOT
BRANCH   9  14
ATOM     11  F   UNL     1      35.636 -25.709 -15.278  0.00  0.00    -0.204 F 
ATOM     12  F   UNL     1      36.668 -21.243 -14.032  0.00  0.00    -0.204 F 
ATOM     13  F   UNL     1      38.771 -24.867 -11.836  0.00  0.00    -0.204 F 
ATOM     14  C   UNL     1      36.148 -23.474 -14.659  0.00  0.00    +0.109 C 
ATOM     15  C   UNL     1      36.312 -24.837 -14.517  0.00  0.00    +0.149 C 
ATOM     16  C   UNL     1      36.837 -22.565 -13.884  0.00  0.00    +0.149 C 
ATOM     17  C   UNL     1      37.205 -25.310 -13.556  0.00  0.00    +0.060 C 
ATOM     18  C   UNL     1      37.729 -23.040 -12.922  0.00  0.00    +0.060 C 
ATOM     19  C   UNL     1      37.913 -24.412 -12.758  0.00  0.00    +0.145 C 
ENDBRANCH   9  14
BRANCH   2  21
ATOM     20  O   UNL     1      37.130 -19.117 -20.240  0.00  0.00    -0.289 OA
ATOM     21  C   UNL     1      35.903 -19.094 -20.292  0.00  0.00    +0.202 C 
BRANCH  21  23
ATOM     22  N   UNL     1      35.325 -16.450 -23.587  0.00  0.00    +0.386 N 
ATOM     23  C   UNL     1      35.191 -18.152 -21.214  0.00  0.00    +0.060 C 
ATOM     24  C   UNL     1      35.190 -18.727 -22.630  0.00  0.00    -0.015 C 
ATOM     25  C   UNL     1      35.869 -16.783 -21.197  0.00  0.00    -0.015 C 
ATOM     26  C   UNL     1      34.605 -17.729 -23.632  0.00  0.00    -0.077 C 
ATOM     27  C   UNL     1      35.261 -15.851 -22.247  0.00  0.00    -0.077 C 
ATOM     28  C   UNL     1      34.789 -15.526 -24.587  0.00  0.00    -0.101 C 
ATOM     29  H   UNL     1      36.306 -16.632 -23.803  0.00  0.00    -0.080 HD
ENDBRANCH  21  23
ENDBRANCH   2  21
TORSDOF 3
ENDMDL
MODEL 4
REMARK VINA RESULT:     -11.4      4.220      9.100
REMARK  Name = 11610526
REMARK  3 active torsions:
REMARK  status: ('A' for Active; 'I' for Inactive)
REMARK    1  A    between atoms: C_2  and  C_21
REMARK    2  A    between atoms: C_9  and  C_14
REMARK    3  A    between atoms: C_21  and  C_23
REMARK                            x       y       z     vdW  Elec       q    Type
REMARK                         _______ _______ _______ _____ _____    ______ ____
ROOT
ATOM      1  N   UNL     1      34.478 -14.515 -22.448  0.00  0.00    -0.388 NA
ATOM      2  C   UNL     1      34.116 -13.639 -23.389  0.00  0.00    +0.167 C 
ATOM      3  C   UNL     1      33.920 -13.898 -24.717  0.00  0.00    +0.031 C 
ATOM      4  C   UNL     1      34.664 -15.779 -22.886  0.00  0.00    +0.167 C 
ATOM      5  C   UNL     1      34.121 -15.211 -25.131  0.00  0.00    -0.015 C 
ATOM      6  C   UNL     1      34.500 -16.175 -24.204  0.00  0.00    +0.101 C 
ATOM      7  O   UNL     1      35.211 -18.702 -23.272  0.00  0.00    -0.270 OA
ATOM      8  N   UNL     1      35.045 -16.758 -21.961  0.00  0.00    -0.259 N 
ATOM      9  C   UNL     1      35.289 -18.114 -22.198  0.00  0.00    +0.255 C 
ATOM     10  H   UNL     1      35.156 -16.455 -21.031  0.00  0.00    +0.157 HD
ENDROOT
BRANCH   9  14
ATOM     11  F   UNL     1      37.900 -18.167 -21.177  0.00  0.00    -0.204 F 
ATOM     12  F   UNL     1      33.408 -19.664 -20.808  0.00  0.00    -0.204 F 
ATOM     13  F   UNL     1      36.657 -21.111 -17.689  0.00  0.00    -0.204 F 
ATOM     14  C   UNL     1      35.653 -18.912 -20.998  0.00  0.00    +0.109 C 
ATOM     15  C   UNL     1      36.959 -18.888 -20.554  0.00  0.00    +0.149 C 
ATOM     16  C   UNL     1      34.673 -19.650 -20.367  0.00  0.00    +0.149 C 
ATOM     17  C   UNL     1      37.300 -19.637 -19.427  0.00  0.00    +0.060 C 
ATOM     18  C   UNL     1      35.016 -20.399 -19.240  0.00  0.00    +0.060 C 
ATOM     19  C   UNL     1      36.329 -20.393 -18.771  0.00  0.00    +0.145 C 
ENDBRANCH   9  14
BRANCH   2  21
ATOM     20  O   UNL     1      34.680 -11.354 -23.240  0.00  0.00    -0.289 OA
ATOM     21  C   UNL     1      33.917 -12.250 -22.889  0.00  0.00    +0.202 C 
BRANCH  21  23
ATOM     22  N   UNL     1      31.851 -10.637 -19.525  0.00  0.00    +0.386 N 
ATOM     23  C   UNL     1      32.778 -11.968 -21.958  0.00  0.00    +0.060 C 
ATOM     24  C   UNL     1      32.528 -10.461 -21.898  0.00  0.00    -0.015 C 
ATOM     25  C   UNL     1      33.088 -12.511 -20.564  0.00  0.00    -0.015 C 
ATOM     26  C   UNL     1      31.472 -10.116 -20.845  0.00  0.00    -0.077 C 
ATOM     27  C   UNL     1      32.013 -12.097 -19.557  0.00  0.00    -0.077 C 
ATOM     28  C   UNL     1      30.859 -10.254 -18.520  0.00  0.00    -0.101 C 
ATOM     29  H   UNL     1      32.750 -10.227 -19.270  0.00  0.00    -0.080 HD
ENDBRANCH  21  23
ENDBRANCH   2  21
TORSDOF 3
ENDMDL
MODEL 5
REMARK VINA RESULT:     -11.4      3.735      6.064
REMARK  Name = 11610526
REMARK  3 active torsions:
REMARK  status: ('A' for Active; 'I' for Inactive)
REMARK    1  A    between atoms: C_2  and  C_21
REMARK    2  A    between atoms: C_9  and  C_14
REMARK    3  A    between atoms: C_21  and  C_23
REMARK                            x       y       z     vdW  Elec       q    Type
REMARK                         _______ _______ _______ _____ _____    ______ ____
ROOT
ATOM      1  N   UNL     1      34.858 -22.714 -14.619  0.00  0.00    -0.388 NA
ATOM      2  C   UNL     1      34.346 -23.468 -13.642  0.00  0.00    +0.167 C 
ATOM      3  C   UNL     1      33.118 -24.070 -13.630  0.00  0.00    +0.031 C 
ATOM      4  C   UNL     1      34.053 -22.547 -15.692  0.00  0.00    +0.167 C 
ATOM      5  C   UNL     1      32.319 -23.876 -14.752  0.00  0.00    -0.015 C 
ATOM      6  C   UNL     1      32.789 -23.101 -15.807  0.00  0.00    +0.101 C 
ATOM      7  O   UNL     1      32.735 -21.839 -18.289  0.00  0.00    -0.270 OA
ATOM      8  N   UNL     1      34.517 -21.770 -16.759  0.00  0.00    -0.259 N 
ATOM      9  C   UNL     1      33.855 -21.470 -17.954  0.00  0.00    +0.255 C 
ATOM     10  H   UNL     1      35.418 -21.386 -16.656  0.00  0.00    +0.157 HD
ENDROOT
BRANCH   9  14
ATOM     11  F   UNL     1      32.597 -19.816 -19.837  0.00  0.00    -0.204 F 
ATOM     12  F   UNL     1      36.660 -21.449 -17.996  0.00  0.00    -0.204 F 
ATOM     13  F   UNL     1      36.749 -18.337 -21.558  0.00  0.00    -0.204 F 
ATOM     14  C   UNL     1      34.625 -20.636 -18.913  0.00  0.00    +0.109 C 
ATOM     15  C   UNL     1      33.937 -19.847 -19.811  0.00  0.00    +0.149 C 
ATOM     16  C   UNL     1      36.003 -20.678 -18.874  0.00  0.00    +0.149 C 
ATOM     17  C   UNL     1      34.661 -19.064 -20.711  0.00  0.00    +0.060 C 
ATOM     18  C   UNL     1      36.726 -19.895 -19.776  0.00  0.00    +0.060 C 
ATOM     19  C   UNL     1      36.055 -19.089 -20.694  0.00  0.00    +0.145 C 
ENDBRANCH   9  14
BRANCH   2  21
ATOM     20  O   UNL     1      34.951 -23.132 -11.388  0.00  0.00    -0.289 OA
ATOM     21  C   UNL     1      35.244 -23.642 -12.466  0.00  0.00    +0.202 C 
BRANCH  21  23
ATOM     22  N   UNL     1      39.108 -24.715 -13.916  0.00  0.00    +0.386 N 
ATOM     23  C   UNL     1      36.500 -24.442 -12.622  0.00  0.00    +0.060 C 
ATOM     24  C   UNL     1      37.703 -23.589 -12.220  0.00  0.00    -0.015 C 
ATOM     25  C   UNL     1      36.647 -24.920 -14.065  0.00  0.00    -0.015 C 
ATOM     26  C   UNL     1      39.019 -24.317 -12.505  0.00  0.00    -0.077 C 
ATOM     27  C   UNL     1      37.998 -25.603 -14.288  0.00  0.00    -0.077 C 
ATOM     28  C   UNL     1      40.392 -25.362 -14.185  0.00  0.00    -0.101 C 
ATOM     29  H   UNL     1      39.041 -23.872 -14.487  0.00  0.00    -0.080 HD
ENDBRANCH  21  23
ENDBRANCH   2  21
TORSDOF 3
ENDMDL
MODEL 6
REMARK VINA RESULT:     -11.4      3.736      6.065
REMARK  Name = 11610526
REMARK  3 active torsions:
REMARK  status: ('A' for Active; 'I' for Inactive)
REMARK    1  A    between atoms: C_2  and  C_21
REMARK    2  A    between atoms: C_9  and  C_14
REMARK    3  A    between atoms: C_21  and  C_23
REMARK                            x       y       z     vdW  Elec       q    Type
REMARK                         _______ _______ _______ _____ _____    ______ ____
ROOT
ATOM      1  N   UNL     1      34.858 -22.712 -14.614  0.00  0.00    -0.388 NA
ATOM      2  C   UNL     1      34.345 -23.465 -13.638  0.00  0.00    +0.167 C 
ATOM      3  C   UNL     1      33.117 -24.066 -13.625  0.00  0.00    +0.031 C 
ATOM      4  C   UNL     1      34.054 -22.545 -15.687  0.00  0.00    +0.167 C 
ATOM      5  C   UNL     1      32.318 -23.871 -14.747  0.00  0.00    -0.015 C 
ATOM      6  C   UNL     1      32.789 -23.097 -15.803  0.00  0.00    +0.101 C 
ATOM      7  O   UNL     1      32.737 -21.836 -18.286  0.00  0.00    -0.270 OA
ATOM      8  N   UNL     1      34.519 -21.769 -16.756  0.00  0.00    -0.259 N 
ATOM      9  C   UNL     1      33.858 -21.469 -17.950  0.00  0.00    +0.255 C 
ATOM     10  H   UNL     1      35.420 -21.386 -16.652  0.00  0.00    +0.157 HD
ENDROOT
BRANCH   9  14
ATOM     11  F   UNL     1      36.662 -21.455 -17.996  0.00  0.00    -0.204 F 
ATOM     12  F   UNL     1      32.602 -19.809 -19.831  0.00  0.00    -0.204 F 
ATOM     13  F   UNL     1      36.755 -18.339 -21.554  0.00  0.00    -0.204 F 
ATOM     14  C   UNL     1      34.629 -20.636 -18.910  0.00  0.00    +0.109 C 
ATOM     15  C   UNL     1      36.008 -20.681 -18.872  0.00  0.00    +0.149 C 
ATOM     16  C   UNL     1      33.942 -19.844 -19.806  0.00  0.00    +0.149 C 
ATOM     17  C   UNL     1      36.731 -19.899 -19.773  0.00  0.00    +0.060 C 
ATOM     18  C   UNL     1      34.666 -19.062 -20.706  0.00  0.00    +0.060 C 
ATOM     19  C   UNL     1      36.061 -19.089 -20.689  0.00  0.00    +0.145 C 
ENDBRANCH   9  14
BRANCH   2  21
ATOM     20  O   UNL     1      34.949 -23.130 -11.383  0.00  0.00    -0.289 OA
ATOM     21  C   UNL     1      35.243 -23.639 -12.461  0.00  0.00    +0.202 C 
BRANCH  21  23
ATOM     22  N   UNL     1      39.109 -24.709 -13.908  0.00  0.00    +0.386 N 
ATOM     23  C   UNL     1      36.499 -24.439 -12.617  0.00  0.00    +0.060 C 
ATOM     24  C   UNL     1      37.702 -23.586 -12.211  0.00  0.00    -0.015 C 
ATOM     25  C   UNL     1      36.648 -24.914 -14.061  0.00  0.00    -0.015 C 
ATOM     26  C   UNL     1      39.018 -24.313 -12.497  0.00  0.00    -0.077 C 
ATOM     27  C   UNL     1      37.999 -25.596 -14.283  0.00  0.00    -0.077 C 
ATOM     28  C   UNL     1      40.394 -25.355 -14.176  0.00  0.00    -0.101 C 
ATOM     29  H   UNL     1      39.042 -23.865 -14.477  0.00  0.00    -0.080 HD
ENDBRANCH  21  23
ENDBRANCH   2  21
TORSDOF 3
ENDMDL
MODEL 7
REMARK VINA RESULT:     -11.4      1.214      1.638
REMARK  Name = 11610526
REMARK  3 active torsions:
REMARK  status: ('A' for Active; 'I' for Inactive)
REMARK    1  A    between atoms: C_2  and  C_21
REMARK    2  A    between atoms: C_9  and  C_14
REMARK    3  A    between atoms: C_21  and  C_23
REMARK                            x       y       z     vdW  Elec       q    Type
REMARK                         _______ _______ _______ _____ _____    ______ ____
ROOT
ATOM      1  N   UNL     1      34.276 -19.951 -19.582  0.00  0.00    -0.388 NA
ATOM      2  C   UNL     1      34.693 -20.879 -18.718  0.00  0.00    +0.167 C 
ATOM      3  C   UNL     1      35.988 -21.237 -18.461  0.00  0.00    +0.031 C 
ATOM      4  C   UNL     1      35.260 -19.318 -20.259  0.00  0.00    +0.167 C 
ATOM      5  C   UNL     1      36.973 -20.564 -19.176  0.00  0.00    -0.015 C 
ATOM      6  C   UNL     1      36.610 -19.585 -20.094  0.00  0.00    +0.101 C 
ATOM      7  O   UNL     1      36.980 -17.609 -22.023  0.00  0.00    -0.270 OA
ATOM      8  N   UNL     1      34.906 -18.330 -21.185  0.00  0.00    -0.259 N 
ATOM      9  C   UNL     1      35.754 -17.560 -21.986  0.00  0.00    +0.255 C 
ATOM     10  H   UNL     1      33.942 -18.158 -21.286  0.00  0.00    +0.157 HD
ENDROOT
BRANCH   9  14
ATOM     11  F   UNL     1      34.652 -18.256 -24.469  0.00  0.00    -0.204 F 
ATOM     12  F   UNL     1      35.492 -14.866 -21.250  0.00  0.00    -0.204 F 
ATOM     13  F   UNL     1      33.202 -13.822 -25.255  0.00  0.00    -0.204 F 
ATOM     14  C   UNL     1      35.075 -16.565 -22.856  0.00  0.00    +0.109 C 
ATOM     15  C   UNL     1      34.557 -16.982 -24.065  0.00  0.00    +0.149 C 
ATOM     16  C   UNL     1      34.984 -15.258 -22.427  0.00  0.00    +0.149 C 
ATOM     17  C   UNL     1      33.919 -16.048 -24.881  0.00  0.00    +0.060 C 
ATOM     18  C   UNL     1      34.347 -14.324 -23.245  0.00  0.00    +0.060 C 
ATOM     19  C   UNL     1      33.814 -14.719 -24.472  0.00  0.00    +0.145 C 
ENDBRANCH   9  14
BRANCH   2  21
ATOM     20  O   UNL     1      32.427 -21.393 -18.314  0.00  0.00    -0.289 OA
ATOM     21  C   UNL     1      33.597 -21.568 -17.981  0.00  0.00    +0.202 C 
BRANCH  21  23
ATOM     22  N   UNL     1      34.248 -22.783 -13.946  0.00  0.00    +0.386 N 
ATOM     23  C   UNL     1      33.943 -22.470 -16.837  0.00  0.00    +0.060 C 
ATOM     24  C   UNL     1      32.742 -22.591 -15.899  0.00  0.00    -0.015 C 
ATOM     25  C   UNL     1      35.154 -21.925 -16.082  0.00  0.00    -0.015 C 
ATOM     26  C   UNL     1      33.100 -23.382 -14.639  0.00  0.00    -0.077 C 
ATOM     27  C   UNL     1      35.431 -22.739 -14.817  0.00  0.00    -0.077 C 
ATOM     28  C   UNL     1      34.544 -23.519 -12.717  0.00  0.00    -0.101 C 
ATOM     29  H   UNL     1      34.002 -21.823 -13.701  0.00  0.00    -0.080 HD
ENDBRANCH  21  23
ENDBRANCH   2  21
TORSDOF 3
ENDMDL
MODEL 8
REMARK VINA RESULT:     -11.2      3.628      6.323
REMARK  Name = 11610526
REMARK  3 active torsions:
REMARK  status: ('A' for Active; 'I' for Inactive)
REMARK    1  A    between atoms: C_2  and  C_21
REMARK    2  A    between atoms: C_9  and  C_14
REMARK    3  A    between atoms: C_21  and  C_23
REMARK                            x       y       z     vdW  Elec       q    Type
REMARK                         _______ _______ _______ _____ _____    ______ ____
ROOT
ATOM      1  N   UNL     1      35.443 -16.076 -21.986  0.00  0.00    -0.388 NA
ATOM      2  C   UNL     1      35.743 -17.345 -22.274  0.00  0.00    +0.167 C 
ATOM      3  C   UNL     1      35.397 -18.033 -23.404  0.00  0.00    +0.031 C 
ATOM      4  C   UNL     1      34.720 -15.433 -22.929  0.00  0.00    +0.167 C 
ATOM      5  C   UNL     1      34.653 -17.338 -24.352  0.00  0.00    -0.015 C 
ATOM      6  C   UNL     1      34.304 -16.012 -24.117  0.00  0.00    +0.101 C 
ATOM      7  O   UNL     1      33.149 -13.530 -24.632  0.00  0.00    -0.270 OA
ATOM      8  N   UNL     1      34.364 -14.098 -22.702  0.00  0.00    -0.259 N 
ATOM      9  C   UNL     1      33.625 -13.253 -23.536  0.00  0.00    +0.255 C 
ATOM     10  H   UNL     1      34.669 -13.707 -21.852  0.00  0.00    +0.157 HD
ENDROOT
BRANCH   9  14
ATOM     11  F   UNL     1      32.032 -12.694 -21.297  0.00  0.00    -0.204 F 
ATOM     12  F   UNL     1      34.835 -11.035 -24.755  0.00  0.00    -0.204 F 
ATOM     13  F   UNL     1      32.906  -8.056 -21.627  0.00  0.00    -0.204 F 
ATOM     14  C   UNL     1      33.434 -11.870 -23.028  0.00  0.00    +0.109 C 
ATOM     15  C   UNL     1      32.635 -11.672 -21.921  0.00  0.00    +0.149 C 
ATOM     16  C   UNL     1      34.061 -10.829 -23.680  0.00  0.00    +0.149 C 
ATOM     17  C   UNL     1      32.455 -10.373 -21.444  0.00  0.00    +0.060 C 
ATOM     18  C   UNL     1      33.880  -9.530 -23.203  0.00  0.00    +0.060 C 
ATOM     19  C   UNL     1      33.078  -9.302 -22.085  0.00  0.00    +0.145 C 
ENDBRANCH   9  14
BRANCH   2  21
ATOM     20  O   UNL     1      37.767 -18.030 -21.274  0.00  0.00    -0.289 OA
ATOM     21  C   UNL     1      36.539 -18.041 -21.224  0.00  0.00    +0.202 C 
BRANCH  21  23
ATOM     22  N   UNL     1      34.612 -21.227 -19.147  0.00  0.00    +0.386 N 
ATOM     23  C   UNL     1      35.822 -18.748 -20.116  0.00  0.00    +0.060 C 
ATOM     24  C   UNL     1      36.662 -19.932 -19.637  0.00  0.00    -0.015 C 
ATOM     25  C   UNL     1      34.452 -19.227 -20.594  0.00  0.00    -0.015 C 
ATOM     26  C   UNL     1      35.900 -20.771 -18.609  0.00  0.00    -0.077 C 
ATOM     27  C   UNL     1      33.766 -20.089 -19.533  0.00  0.00    -0.077 C 
ATOM     28  C   UNL     1      33.920 -22.071 -18.172  0.00  0.00    -0.101 C 
ATOM     29  H   UNL     1      34.797 -21.780 -19.984  0.00  0.00    -0.080 HD
ENDBRANCH  21  23
ENDBRANCH   2  21
TORSDOF 3
ENDMDL
MODEL 9
REMARK VINA RESULT:     -11.2      3.667      6.384
REMARK  Name = 11610526
REMARK  3 active torsions:
REMARK  status: ('A' for Active; 'I' for Inactive)
REMARK    1  A    between atoms: C_2  and  C_21
REMARK    2  A    between atoms: C_9  and  C_14
REMARK    3  A    between atoms: C_21  and  C_23
REMARK                            x       y       z     vdW  Elec       q    Type
REMARK                         _______ _______ _______ _____ _____    ______ ____
ROOT
ATOM      1  N   UNL     1      35.421 -16.025 -22.012  0.00  0.00    -0.388 NA
ATOM      2  C   UNL     1      35.717 -17.293 -22.309  0.00  0.00    +0.167 C 
ATOM      3  C   UNL     1      35.368 -17.971 -23.445  0.00  0.00    +0.031 C 
ATOM      4  C   UNL     1      34.700 -15.372 -22.950  0.00  0.00    +0.167 C 
ATOM      5  C   UNL     1      34.626 -17.266 -24.387  0.00  0.00    -0.015 C 
ATOM      6  C   UNL     1      34.282 -15.941 -24.142  0.00  0.00    +0.101 C 
ATOM      7  O   UNL     1      33.135 -13.452 -24.639  0.00  0.00    -0.270 OA
ATOM      8  N   UNL     1      34.348 -14.038 -22.713  0.00  0.00    -0.259 N 
ATOM      9  C   UNL     1      33.613 -13.185 -23.541  0.00  0.00    +0.255 C 
ATOM     10  H   UNL     1      34.655 -13.655 -21.860  0.00  0.00    +0.157 HD
ENDROOT
BRANCH   9  14
ATOM     11  F   UNL     1      34.835 -10.963 -24.739  0.00  0.00    -0.204 F 
ATOM     12  F   UNL     1      32.016 -12.635 -21.301  0.00  0.00    -0.204 F 
ATOM     13  F   UNL     1      32.912  -7.999 -21.592  0.00  0.00    -0.204 F 
ATOM     14  C   UNL     1      33.426 -11.805 -23.022  0.00  0.00    +0.109 C 
ATOM     15  C   UNL     1      34.060 -10.761 -23.664  0.00  0.00    +0.149 C 
ATOM     16  C   UNL     1      32.626 -11.612 -21.916  0.00  0.00    +0.149 C 
ATOM     17  C   UNL     1      33.884  -9.465 -23.177  0.00  0.00    +0.060 C 
ATOM     18  C   UNL     1      32.452 -10.316 -21.429  0.00  0.00    +0.060 C 
ATOM     19  C   UNL     1      33.081  -9.243 -22.059  0.00  0.00    +0.145 C 
ENDBRANCH   9  14
BRANCH   2  21
ATOM     20  O   UNL     1      37.738 -17.993 -21.317  0.00  0.00    -0.289 OA
ATOM     21  C   UNL     1      36.511 -17.999 -21.265  0.00  0.00    +0.202 C 
BRANCH  21  23
ATOM     22  N   UNL     1      34.612 -21.200 -19.185  0.00  0.00    +0.386 N 
ATOM     23  C   UNL     1      35.792 -18.709 -20.160  0.00  0.00    +0.060 C 
ATOM     24  C   UNL     1      36.645 -19.875 -19.661  0.00  0.00    -0.015 C 
ATOM     25  C   UNL     1      34.437 -19.215 -20.651  0.00  0.00    -0.015 C 
ATOM     26  C   UNL     1      35.885 -20.718 -18.635  0.00  0.00    -0.077 C 
ATOM     27  C   UNL     1      33.752 -20.081 -19.592  0.00  0.00    -0.077 C 
ATOM     28  C   UNL     1      33.922 -22.048 -18.213  0.00  0.00    -0.101 C 
ATOM     29  H   UNL     1      34.818 -21.757 -20.016  0.00  0.00    -0.080 HD
ENDBRANCH  21  23
ENDBRANCH   2  21
TORSDOF 3
ENDMDL
