MODEL 1
REMARK VINA RESULT:     -11.6      0.000      0.000
REMARK  Name = 151194
REMARK  3 active torsions:
REMARK  status: ('A' for Active; 'I' for Inactive)
REMARK    1  A    between atoms: N_1  and  C_14
REMARK    2  A    between atoms: C_6  and  C_20
REMARK    3  A    between atoms: C_20  and  C_22
REMARK                            x       y       z     vdW  Elec       q    Type
REMARK                         _______ _______ _______ _____ _____    ______ ____
ROOT
ATOM      1  N   UNL     1      35.257 -19.358 -20.956  0.00  0.00    -0.297 N 
ATOM      2  N   UNL     1      35.483 -15.807 -20.327  0.00  0.00    -0.151 NA
ATOM      3  N   UNL     1      35.511 -17.154 -20.152  0.00  0.00    -0.133 NA
ATOM      4  C   UNL     1      34.846 -16.097 -22.635  0.00  0.00    +0.018 A 
ATOM      5  C   UNL     1      34.875 -17.488 -22.455  0.00  0.00    +0.035 A 
ATOM      6  C   UNL     1      35.159 -15.303 -21.538  0.00  0.00    +0.085 A 
ATOM      7  C   UNL     1      35.213 -17.962 -21.193  0.00  0.00    +0.154 A 
ATOM      8  C   UNL     1      34.509 -15.566 -23.892  0.00  0.00    +0.001 C 
ATOM      9  C   UNL     1      34.566 -18.335 -23.533  0.00  0.00    +0.003 C 
ATOM     10  C   UNL     1      34.205 -16.416 -24.956  0.00  0.00    +0.000 C 
ATOM     11  C   UNL     1      34.233 -17.798 -24.777  0.00  0.00    +0.000 C 
ATOM     12  H   UNL     1      35.500 -19.887 -21.749  0.00  0.00    +0.154 HD
ENDROOT
BRANCH   1  14
ATOM     13 CL   UNL     1      34.268 -22.626 -16.119  0.00  0.00    -0.082 Cl
ATOM     14  C   UNL     1      35.023 -20.132 -19.808  0.00  0.00    +0.049 C 
ATOM     15  C   UNL     1      33.719 -20.492 -19.457  0.00  0.00    +0.016 C 
ATOM     16  C   UNL     1      36.092 -20.548 -19.010  0.00  0.00    +0.016 C 
ATOM     17  C   UNL     1      33.485 -21.263 -18.318  0.00  0.00    +0.013 C 
ATOM     18  C   UNL     1      35.860 -21.319 -17.870  0.00  0.00    +0.013 C 
ATOM     19  C   UNL     1      34.556 -21.676 -17.524  0.00  0.00    +0.058 C 
ENDBRANCH   1  14
BRANCH   6  20
ATOM     20  C   UNL     1      35.160 -13.812 -21.618  0.00  0.00    +0.074 C 
BRANCH  20  22
ATOM     21  N   UNL     1      31.522 -11.997 -20.263  0.00  0.00    -0.242 NA
ATOM     22  C   UNL     1      33.875 -13.171 -21.140  0.00  0.00    -0.013 C 
ATOM     23  C   UNL     1      33.279 -13.634 -19.986  0.00  0.00    +0.017 C 
ATOM     24  C   UNL     1      33.325 -12.136 -21.868  0.00  0.00    +0.017 C 
ATOM     25  C   UNL     1      32.105 -13.014 -19.590  0.00  0.00    +0.099 C 
ATOM     26  C   UNL     1      32.149 -11.583 -21.388  0.00  0.00    +0.099 C 
ENDBRANCH  20  22
ENDBRANCH   6  20
TORSDOF 3
ENDMDL
MODEL 2
REMARK VINA RESULT:     -11.2      4.965      9.424
REMARK  Name = 151194
REMARK  3 active torsions:
REMARK  status: ('A' for Active; 'I' for Inactive)
REMARK    1  A    between atoms: N_1  and  C_14
REMARK    2  A    between atoms: C_6  and  C_20
REMARK    3  A    between atoms: C_20  and  C_22
REMARK                            x       y       z     vdW  Elec       q    Type
REMARK                         _______ _______ _______ _____ _____    ______ ____
ROOT
ATOM      1  N   UNL     1      35.402 -21.690 -17.753  0.00  0.00    -0.297 N 
ATOM      2  N   UNL     1      32.143 -22.399 -16.363  0.00  0.00    -0.151 NA
ATOM      3  N   UNL     1      33.127 -22.017 -17.219  0.00  0.00    -0.133 NA
ATOM      4  C   UNL     1      33.785 -22.959 -14.687  0.00  0.00    +0.018 A 
ATOM      5  C   UNL     1      34.801 -22.564 -15.570  0.00  0.00    +0.035 A 
ATOM      6  C   UNL     1      32.473 -22.856 -15.135  0.00  0.00    +0.085 A 
ATOM      7  C   UNL     1      34.416 -22.102 -16.823  0.00  0.00    +0.154 A 
ATOM      8  C   UNL     1      34.121 -23.434 -13.408  0.00  0.00    +0.001 C 
ATOM      9  C   UNL     1      36.144 -22.649 -15.165  0.00  0.00    +0.003 C 
ATOM     10  C   UNL     1      35.458 -23.514 -13.016  0.00  0.00    +0.000 C 
ATOM     11  C   UNL     1      36.468 -23.122 -13.894  0.00  0.00    +0.000 C 
ATOM     12  H   UNL     1      36.258 -22.166 -17.658  0.00  0.00    +0.154 HD
ENDROOT
BRANCH   1  14
ATOM     13 CL   UNL     1      35.367 -17.670 -22.099  0.00  0.00    -0.082 Cl
ATOM     14  C   UNL     1      35.394 -20.737 -18.784  0.00  0.00    +0.049 C 
ATOM     15  C   UNL     1      34.190 -20.368 -19.391  0.00  0.00    +0.016 C 
ATOM     16  C   UNL     1      36.589 -20.152 -19.209  0.00  0.00    +0.016 C 
ATOM     17  C   UNL     1      34.182 -19.421 -20.415  0.00  0.00    +0.013 C 
ATOM     18  C   UNL     1      36.582 -19.204 -20.233  0.00  0.00    +0.013 C 
ATOM     19  C   UNL     1      35.378 -18.839 -20.836  0.00  0.00    +0.058 C 
ENDBRANCH   1  14
BRANCH   6  20
ATOM     20  C   UNL     1      31.314 -23.248 -14.278  0.00  0.00    +0.074 C 
BRANCH  20  22
ATOM     21  N   UNL     1      27.499 -22.610 -16.124  0.00  0.00    -0.242 NA
ATOM     22  C   UNL     1      29.966 -23.023 -14.930  0.00  0.00    -0.013 C 
ATOM     23  C   UNL     1      29.271 -21.864 -14.658  0.00  0.00    +0.017 C 
ATOM     24  C   UNL     1      29.460 -23.982 -15.783  0.00  0.00    +0.017 C 
ATOM     25  C   UNL     1      28.043 -21.705 -15.280  0.00  0.00    +0.099 C 
ATOM     26  C   UNL     1      28.224 -23.728 -16.354  0.00  0.00    +0.099 C 
ENDBRANCH  20  22
ENDBRANCH   6  20
TORSDOF 3
ENDMDL
MODEL 3
REMARK VINA RESULT:     -10.6      0.989      1.813
REMARK  Name = 151194
REMARK  3 active torsions:
REMARK  status: ('A' for Active; 'I' for Inactive)
REMARK    1  A    between atoms: N_1  and  C_14
REMARK    2  A    between atoms: C_6  and  C_20
REMARK    3  A    between atoms: C_20  and  C_22
REMARK                            x       y       z     vdW  Elec       q    Type
REMARK                         _______ _______ _______ _____ _____    ______ ____
ROOT
ATOM      1  N   UNL     1      35.455 -18.246 -21.659  0.00  0.00    -0.297 N 
ATOM      2  N   UNL     1      35.309 -14.787 -20.625  0.00  0.00    -0.151 NA
ATOM      3  N   UNL     1      35.487 -16.135 -20.608  0.00  0.00    -0.133 NA
ATOM      4  C   UNL     1      34.652 -14.881 -22.944  0.00  0.00    +0.018 A 
ATOM      5  C   UNL     1      34.836 -16.272 -22.926  0.00  0.00    +0.035 A 
ATOM      6  C   UNL     1      34.903 -14.188 -21.766  0.00  0.00    +0.085 A 
ATOM      7  C   UNL     1      35.254 -16.846 -21.732  0.00  0.00    +0.154 A 
ATOM      8  C   UNL     1      34.229 -14.250 -24.127  0.00  0.00    +0.001 C 
ATOM      9  C   UNL     1      34.595 -17.019 -24.092  0.00  0.00    +0.003 C 
ATOM     10  C   UNL     1      33.993 -15.002 -25.279  0.00  0.00    +0.000 C 
ATOM     11  C   UNL     1      34.176 -16.384 -25.262  0.00  0.00    +0.000 C 
ATOM     12  H   UNL     1      35.734 -18.651 -22.512  0.00  0.00    +0.154 HD
ENDROOT
BRANCH   1  14
ATOM     13 CL   UNL     1      34.944 -22.132 -17.221  0.00  0.00    -0.082 Cl
ATOM     14  C   UNL     1      35.334 -19.168 -20.607  0.00  0.00    +0.049 C 
ATOM     15  C   UNL     1      36.475 -19.662 -19.970  0.00  0.00    +0.016 C 
ATOM     16  C   UNL     1      34.070 -19.597 -20.191  0.00  0.00    +0.016 C 
ATOM     17  C   UNL     1      36.355 -20.577 -18.924  0.00  0.00    +0.013 C 
ATOM     18  C   UNL     1      33.949 -20.513 -19.144  0.00  0.00    +0.013 C 
ATOM     19  C   UNL     1      35.092 -21.003 -18.511  0.00  0.00    +0.058 C 
ENDBRANCH   1  14
BRANCH   6  20
ATOM     20  C   UNL     1      34.740 -12.706 -21.672  0.00  0.00    +0.074 C 
BRANCH  20  22
ATOM     21  N   UNL     1      30.991 -11.475 -19.999  0.00  0.00    -0.242 NA
ATOM     22  C   UNL     1      33.416 -12.271 -21.081  0.00  0.00    -0.013 C 
ATOM     23  C   UNL     1      32.700 -11.267 -21.697  0.00  0.00    +0.017 C 
ATOM     24  C   UNL     1      32.952 -12.888 -19.938  0.00  0.00    +0.017 C 
ATOM     25  C   UNL     1      31.494 -10.906 -21.118  0.00  0.00    +0.099 C 
ATOM     26  C   UNL     1      31.736 -12.454 -19.437  0.00  0.00    +0.099 C 
ENDBRANCH  20  22
ENDBRANCH   6  20
TORSDOF 3
ENDMDL
MODEL 4
REMARK VINA RESULT:     -10.0      7.595     10.910
REMARK  Name = 151194
REMARK  3 active torsions:
REMARK  status: ('A' for Active; 'I' for Inactive)
REMARK    1  A    between atoms: N_1  and  C_14
REMARK    2  A    between atoms: C_6  and  C_20
REMARK    3  A    between atoms: C_20  and  C_22
REMARK                            x       y       z     vdW  Elec       q    Type
REMARK                         _______ _______ _______ _____ _____    ______ ____
ROOT
ATOM      1  N   UNL     1      32.192 -22.631 -16.027  0.00  0.00    -0.297 N 
ATOM      2  N   UNL     1      34.195 -23.465 -13.138  0.00  0.00    -0.151 NA
ATOM      3  N   UNL     1      33.134 -23.310 -13.973  0.00  0.00    -0.133 NA
ATOM      4  C   UNL     1      35.670 -22.521 -14.796  0.00  0.00    +0.018 A 
ATOM      5  C   UNL     1      34.575 -22.361 -15.659  0.00  0.00    +0.035 A 
ATOM      6  C   UNL     1      35.422 -23.079 -13.547  0.00  0.00    +0.085 A 
ATOM      7  C   UNL     1      33.331 -22.772 -15.197  0.00  0.00    +0.154 A 
ATOM      8  C   UNL     1      36.950 -22.122 -15.216  0.00  0.00    +0.001 C 
ATOM      9  C   UNL     1      34.772 -21.801 -16.933  0.00  0.00    +0.003 C 
ATOM     10  C   UNL     1      37.134 -21.568 -16.483  0.00  0.00    +0.000 C 
ATOM     11  C   UNL     1      36.046 -21.408 -17.341  0.00  0.00    +0.000 C 
ATOM     12  H   UNL     1      32.393 -22.695 -16.988  0.00  0.00    +0.154 HD
ENDROOT
BRANCH   1  14
ATOM     13 CL   UNL     1      26.461 -21.740 -14.837  0.00  0.00    -0.082 Cl
ATOM     14  C   UNL     1      30.832 -22.421 -15.745  0.00  0.00    +0.049 C 
ATOM     15  C   UNL     1      30.445 -21.883 -14.514  0.00  0.00    +0.016 C 
ATOM     16  C   UNL     1      29.859 -22.748 -16.692  0.00  0.00    +0.016 C 
ATOM     17  C   UNL     1      29.095 -21.672 -14.234  0.00  0.00    +0.013 C 
ATOM     18  C   UNL     1      28.508 -22.538 -16.413  0.00  0.00    +0.013 C 
ATOM     19  C   UNL     1      28.126 -22.000 -15.183  0.00  0.00    +0.058 C 
ENDBRANCH   1  14
BRANCH   6  20
ATOM     20  C   UNL     1      36.514 -23.297 -12.551  0.00  0.00    +0.074 C 
BRANCH  20  22
ATOM     21  N   UNL     1      39.429 -26.190 -13.775  0.00  0.00    -0.242 NA
ATOM     22  C   UNL     1      37.544 -24.319 -12.983  0.00  0.00    -0.013 C 
ATOM     23  C   UNL     1      37.123 -25.491 -13.575  0.00  0.00    +0.017 C 
ATOM     24  C   UNL     1      38.882 -24.057 -12.776  0.00  0.00    +0.017 C 
ATOM     25  C   UNL     1      38.104 -26.394 -13.953  0.00  0.00    +0.099 C 
ATOM     26  C   UNL     1      39.784 -25.024 -13.190  0.00  0.00    +0.099 C 
ENDBRANCH  20  22
ENDBRANCH   6  20
TORSDOF 3
ENDMDL
MODEL 5
REMARK VINA RESULT:      -9.9      4.346      8.728
REMARK  Name = 151194
REMARK  3 active torsions:
REMARK  status: ('A' for Active; 'I' for Inactive)
REMARK    1  A    between atoms: N_1  and  C_14
REMARK    2  A    between atoms: C_6  and  C_20
REMARK    3  A    between atoms: C_20  and  C_22
REMARK                            x       y       z     vdW  Elec       q    Type
REMARK                         _______ _______ _______ _____ _____    ______ ____
ROOT
ATOM      1  N   UNL     1      36.218 -20.533 -18.884  0.00  0.00    -0.297 N 
ATOM      2  N   UNL     1      33.351 -22.444 -17.795  0.00  0.00    -0.151 NA
ATOM      3  N   UNL     1      34.188 -21.690 -18.556  0.00  0.00    -0.133 NA
ATOM      4  C   UNL     1      34.951 -22.441 -15.990  0.00  0.00    +0.018 A 
ATOM      5  C   UNL     1      35.816 -21.663 -16.775  0.00  0.00    +0.035 A 
ATOM      6  C   UNL     1      33.731 -22.803 -16.550  0.00  0.00    +0.085 A 
ATOM      7  C   UNL     1      35.384 -21.317 -18.049  0.00  0.00    +0.154 A 
ATOM      8  C   UNL     1      35.339 -22.818 -14.693  0.00  0.00    +0.001 C 
ATOM      9  C   UNL     1      37.061 -21.270 -16.255  0.00  0.00    +0.003 C 
ATOM     10  C   UNL     1      36.578 -22.423 -14.187  0.00  0.00    +0.000 C 
ATOM     11  C   UNL     1      37.438 -21.650 -14.967  0.00  0.00    +0.000 C 
ATOM     12  H   UNL     1      37.179 -20.667 -18.721  0.00  0.00    +0.154 HD
ENDROOT
BRANCH   1  14
ATOM     13 CL   UNL     1      35.040 -16.608 -23.158  0.00  0.00    -0.082 Cl
ATOM     14  C   UNL     1      35.939 -19.602 -19.898  0.00  0.00    +0.049 C 
ATOM     15  C   UNL     1      34.672 -19.562 -20.486  0.00  0.00    +0.016 C 
ATOM     16  C   UNL     1      36.927 -18.711 -20.325  0.00  0.00    +0.016 C 
ATOM     17  C   UNL     1      34.394 -18.637 -21.493  0.00  0.00    +0.013 C 
ATOM     18  C   UNL     1      36.650 -17.786 -21.333  0.00  0.00    +0.013 C 
ATOM     19  C   UNL     1      35.383 -17.749 -21.916  0.00  0.00    +0.058 C 
ENDBRANCH   1  14
BRANCH   6  20
ATOM     20  C   UNL     1      32.736 -23.630 -15.803  0.00  0.00    +0.074 C 
BRANCH  20  22
ATOM     21  N   UNL     1      29.194 -21.490 -14.686  0.00  0.00    -0.242 NA
ATOM     22  C   UNL     1      31.484 -22.875 -15.408  0.00  0.00    -0.013 C 
ATOM     23  C   UNL     1      31.427 -22.263 -14.174  0.00  0.00    +0.017 C 
ATOM     24  C   UNL     1      30.427 -22.813 -16.292  0.00  0.00    +0.017 C 
ATOM     25  C   UNL     1      30.261 -21.584 -13.861  0.00  0.00    +0.099 C 
ATOM     26  C   UNL     1      29.306 -22.109 -15.884  0.00  0.00    +0.099 C 
ENDBRANCH  20  22
ENDBRANCH   6  20
TORSDOF 3
ENDMDL
MODEL 6
REMARK VINA RESULT:      -9.9      3.463      7.633
REMARK  Name = 151194
REMARK  3 active torsions:
REMARK  status: ('A' for Active; 'I' for Inactive)
REMARK    1  A    between atoms: N_1  and  C_14
REMARK    2  A    between atoms: C_6  and  C_20
REMARK    3  A    between atoms: C_20  and  C_22
REMARK                            x       y       z     vdW  Elec       q    Type
REMARK                         _______ _______ _______ _____ _____    ______ ____
ROOT
ATOM      1  N   UNL     1      32.618 -12.645 -21.820  0.00  0.00    -0.297 N 
ATOM      2  N   UNL     1      34.995 -14.961 -20.392  0.00  0.00    -0.151 NA
ATOM      3  N   UNL     1      34.083 -13.962 -20.521  0.00  0.00    -0.133 NA
ATOM      4  C   UNL     1      34.857 -15.426 -22.754  0.00  0.00    +0.018 A 
ATOM      5  C   UNL     1      33.914 -14.395 -22.889  0.00  0.00    +0.035 A 
ATOM      6  C   UNL     1      35.364 -15.666 -21.483  0.00  0.00    +0.085 A 
ATOM      7  C   UNL     1      33.564 -13.696 -21.740  0.00  0.00    +0.154 A 
ATOM      8  C   UNL     1      35.246 -16.165 -23.885  0.00  0.00    +0.001 C 
ATOM      9  C   UNL     1      33.371 -14.112 -24.153  0.00  0.00    +0.003 C 
ATOM     10  C   UNL     1      34.699 -15.875 -25.136  0.00  0.00    +0.000 C 
ATOM     11  C   UNL     1      33.763 -14.851 -25.270  0.00  0.00    +0.000 C 
ATOM     12  H   UNL     1      31.949 -12.768 -22.531  0.00  0.00    +0.154 HD
ENDROOT
BRANCH   1  14
ATOM     13 CL   UNL     1      31.904  -7.664 -18.700  0.00  0.00    -0.082 Cl
ATOM     14  C   UNL     1      32.448 -11.464 -21.080  0.00  0.00    +0.049 C 
ATOM     15  C   UNL     1      32.192 -11.524 -19.708  0.00  0.00    +0.016 C 
ATOM     16  C   UNL     1      32.534 -10.220 -21.712  0.00  0.00    +0.016 C 
ATOM     17  C   UNL     1      32.024 -10.351 -18.972  0.00  0.00    +0.013 C 
ATOM     18  C   UNL     1      32.367  -9.046 -20.977  0.00  0.00    +0.013 C 
ATOM     19  C   UNL     1      32.111  -9.111 -19.607  0.00  0.00    +0.058 C 
ENDBRANCH   1  14
BRANCH   6  20
ATOM     20  C   UNL     1      36.371 -16.740 -21.225  0.00  0.00    +0.074 C 
BRANCH  20  22
ATOM     21  N   UNL     1      34.694 -20.349 -19.635  0.00  0.00    -0.242 NA
ATOM     22  C   UNL     1      35.778 -18.014 -20.663  0.00  0.00    -0.013 C 
ATOM     23  C   UNL     1      34.433 -18.262 -20.829  0.00  0.00    +0.017 C 
ATOM     24  C   UNL     1      36.597 -18.902 -19.997  0.00  0.00    +0.017 C 
ATOM     25  C   UNL     1      33.939 -19.443 -20.296  0.00  0.00    +0.099 C 
ATOM     26  C   UNL     1      36.007 -20.054 -19.502  0.00  0.00    +0.099 C 
ENDBRANCH  20  22
ENDBRANCH   6  20
TORSDOF 3
ENDMDL
MODEL 7
REMARK VINA RESULT:      -9.6      4.809      7.699
REMARK  Name = 151194
REMARK  3 active torsions:
REMARK  status: ('A' for Active; 'I' for Inactive)
REMARK    1  A    between atoms: N_1  and  C_14
REMARK    2  A    between atoms: C_6  and  C_20
REMARK    3  A    between atoms: C_20  and  C_22
REMARK                            x       y       z     vdW  Elec       q    Type
REMARK                         _______ _______ _______ _____ _____    ______ ____
ROOT
ATOM      1  N   UNL     1      34.877 -12.201 -23.537  0.00  0.00    -0.297 N 
ATOM      2  N   UNL     1      32.128 -10.389 -22.051  0.00  0.00    -0.151 NA
ATOM      3  N   UNL     1      32.957 -11.397 -22.428  0.00  0.00    -0.133 NA
ATOM      4  C   UNL     1      33.520  -8.786 -23.196  0.00  0.00    +0.018 A 
ATOM      5  C   UNL     1      34.377  -9.827 -23.584  0.00  0.00    +0.035 A 
ATOM      6  C   UNL     1      32.411  -9.123 -22.429  0.00  0.00    +0.085 A 
ATOM      7  C   UNL     1      34.047 -11.113 -23.173  0.00  0.00    +0.154 A 
ATOM      8  C   UNL     1      33.808  -7.467 -23.586  0.00  0.00    +0.001 C 
ATOM      9  C   UNL     1      35.513  -9.539 -24.360  0.00  0.00    +0.003 C 
ATOM     10  C   UNL     1      34.939  -7.192 -24.356  0.00  0.00    +0.000 C 
ATOM     11  C   UNL     1      35.790  -8.227 -24.742  0.00  0.00    +0.000 C 
ATOM     12  H   UNL     1      35.825 -11.958 -23.643  0.00  0.00    +0.154 HD
ENDROOT
BRANCH   1  14
ATOM     13 CL   UNL     1      33.754 -17.926 -24.547  0.00  0.00    -0.082 Cl
ATOM     14  C   UNL     1      34.610 -13.559 -23.776  0.00  0.00    +0.049 C 
ATOM     15  C   UNL     1      33.807 -13.939 -24.855  0.00  0.00    +0.016 C 
ATOM     16  C   UNL     1      35.147 -14.539 -22.936  0.00  0.00    +0.016 C 
ATOM     17  C   UNL     1      33.543 -15.287 -25.093  0.00  0.00    +0.013 C 
ATOM     18  C   UNL     1      34.883 -15.889 -23.174  0.00  0.00    +0.013 C 
ATOM     19  C   UNL     1      34.080 -16.262 -24.252  0.00  0.00    +0.058 C 
ENDBRANCH   1  14
BRANCH   6  20
ATOM     20  C   UNL     1      31.434  -8.094 -21.961  0.00  0.00    +0.074 C 
BRANCH  20  22
ATOM     21  N   UNL     1      32.825  -5.765 -18.642  0.00  0.00    -0.242 NA
ATOM     22  C   UNL     1      31.926  -7.271 -20.789  0.00  0.00    -0.013 C 
ATOM     23  C   UNL     1      31.774  -5.901 -20.815  0.00  0.00    +0.017 C 
ATOM     24  C   UNL     1      32.516  -7.909 -19.717  0.00  0.00    +0.017 C 
ATOM     25  C   UNL     1      32.239  -5.194 -19.719  0.00  0.00    +0.099 C 
ATOM     26  C   UNL     1      32.948  -7.112 -18.670  0.00  0.00    +0.099 C 
ENDBRANCH  20  22
ENDBRANCH   6  20
TORSDOF 3
ENDMDL
MODEL 8
REMARK VINA RESULT:      -9.2      3.903      7.849
REMARK  Name = 151194
REMARK  3 active torsions:
REMARK  status: ('A' for Active; 'I' for Inactive)
REMARK    1  A    between atoms: N_1  and  C_14
REMARK    2  A    between atoms: C_6  and  C_20
REMARK    3  A    between atoms: C_20  and  C_22
REMARK                            x       y       z     vdW  Elec       q    Type
REMARK                         _______ _______ _______ _____ _____    ______ ____
ROOT
ATOM      1  N   UNL     1      33.611 -13.969 -23.883  0.00  0.00    -0.297 N 
ATOM      2  N   UNL     1      35.829 -15.643 -21.573  0.00  0.00    -0.151 NA
ATOM      3  N   UNL     1      35.108 -14.678 -22.202  0.00  0.00    -0.133 NA
ATOM      4  C   UNL     1      34.992 -17.303 -23.109  0.00  0.00    +0.018 A 
ATOM      5  C   UNL     1      34.247 -16.307 -23.759  0.00  0.00    +0.035 A 
ATOM      6  C   UNL     1      35.765 -16.915 -22.022  0.00  0.00    +0.085 A 
ATOM      7  C   UNL     1      34.342 -15.012 -23.264  0.00  0.00    +0.154 A 
ATOM      8  C   UNL     1      34.931 -18.629 -23.571  0.00  0.00    +0.001 C 
ATOM      9  C   UNL     1      33.449 -16.647 -24.865  0.00  0.00    +0.003 C 
ATOM     10  C   UNL     1      34.135 -18.956 -24.669  0.00  0.00    +0.000 C 
ATOM     11  C   UNL     1      33.395 -17.966 -25.315  0.00  0.00    +0.000 C 
ATOM     12  H   UNL     1      32.768 -14.266 -24.294  0.00  0.00    +0.154 HD
ENDROOT
BRANCH   1  14
ATOM     13 CL   UNL     1      34.645  -8.168 -24.470  0.00  0.00    -0.082 Cl
ATOM     14  C   UNL     1      33.856 -12.593 -24.022  0.00  0.00    +0.049 C 
ATOM     15  C   UNL     1      34.002 -11.786 -22.891  0.00  0.00    +0.016 C 
ATOM     16  C   UNL     1      33.955 -12.022 -25.294  0.00  0.00    +0.016 C 
ATOM     17  C   UNL     1      34.246 -10.420 -23.028  0.00  0.00    +0.013 C 
ATOM     18  C   UNL     1      34.199 -10.655 -25.433  0.00  0.00    +0.013 C 
ATOM     19  C   UNL     1      34.344  -9.854 -24.300  0.00  0.00    +0.058 C 
ENDBRANCH   1  14
BRANCH   6  20
ATOM     20  C   UNL     1      36.596 -17.893 -21.256  0.00  0.00    +0.074 C 
BRANCH  20  22
ATOM     21  N   UNL     1      34.305 -20.736 -19.012  0.00  0.00    -0.242 NA
ATOM     22  C   UNL     1      35.787 -18.898 -20.464  0.00  0.00    -0.013 C 
ATOM     23  C   UNL     1      36.441 -19.884 -19.758  0.00  0.00    +0.017 C 
ATOM     24  C   UNL     1      34.410 -18.805 -20.464  0.00  0.00    +0.017 C 
ATOM     25  C   UNL     1      35.656 -20.778 -19.048  0.00  0.00    +0.099 C 
ATOM     26  C   UNL     1      33.716 -19.748 -19.724  0.00  0.00    +0.099 C 
ENDBRANCH  20  22
ENDBRANCH   6  20
TORSDOF 3
ENDMDL
MODEL 9
REMARK VINA RESULT:      -9.0      6.764     10.274
REMARK  Name = 151194
REMARK  3 active torsions:
REMARK  status: ('A' for Active; 'I' for Inactive)
REMARK    1  A    between atoms: N_1  and  C_14
REMARK    2  A    between atoms: C_6  and  C_20
REMARK    3  A    between atoms: C_20  and  C_22
REMARK                            x       y       z     vdW  Elec       q    Type
REMARK                         _______ _______ _______ _____ _____    ______ ____
ROOT
ATOM      1  N   UNL     1      32.176 -22.422 -16.623  0.00  0.00    -0.297 N 
ATOM      2  N   UNL     1      34.736 -22.864 -14.112  0.00  0.00    -0.151 NA
ATOM      3  N   UNL     1      33.532 -22.859 -14.743  0.00  0.00    -0.133 NA
ATOM      4  C   UNL     1      35.795 -21.944 -16.075  0.00  0.00    +0.018 A 
ATOM      5  C   UNL     1      34.552 -21.938 -16.726  0.00  0.00    +0.035 A 
ATOM      6  C   UNL     1      35.829 -22.418 -14.768  0.00  0.00    +0.085 A 
ATOM      7  C   UNL     1      33.454 -22.406 -16.013  0.00  0.00    +0.154 A 
ATOM      8  C   UNL     1      36.936 -21.480 -16.751  0.00  0.00    +0.001 C 
ATOM      9  C   UNL     1      34.463 -21.468 -18.047  0.00  0.00    +0.003 C 
ATOM     10  C   UNL     1      36.836 -21.016 -18.063  0.00  0.00    +0.000 C 
ATOM     11  C   UNL     1      35.601 -21.010 -18.710  0.00  0.00    +0.000 C 
ATOM     12  H   UNL     1      32.205 -22.546 -17.599  0.00  0.00    +0.154 HD
ENDROOT
BRANCH   1  14
ATOM     13 CL   UNL     1      26.698 -21.887 -14.440  0.00  0.00    -0.082 Cl
ATOM     14  C   UNL     1      30.877 -22.296 -16.105  0.00  0.00    +0.049 C 
ATOM     15  C   UNL     1      30.684 -21.943 -14.767  0.00  0.00    +0.016 C 
ATOM     16  C   UNL     1      29.768 -22.522 -16.926  0.00  0.00    +0.016 C 
ATOM     17  C   UNL     1      29.394 -21.817 -14.252  0.00  0.00    +0.013 C 
ATOM     18  C   UNL     1      28.477 -22.396 -16.412  0.00  0.00    +0.013 C 
ATOM     19  C   UNL     1      28.290 -22.043 -15.075  0.00  0.00    +0.058 C 
ENDBRANCH   1  14
BRANCH   6  20
ATOM     20  C   UNL     1      37.099 -22.470 -13.982  0.00  0.00    +0.074 C 
BRANCH  20  22
ATOM     21  N   UNL     1      37.259 -25.690 -11.158  0.00  0.00    -0.242 NA
ATOM     22  C   UNL     1      37.156 -23.607 -12.984  0.00  0.00    -0.013 C 
ATOM     23  C   UNL     1      36.809 -23.370 -11.671  0.00  0.00    +0.017 C 
ATOM     24  C   UNL     1      37.553 -24.858 -13.410  0.00  0.00    +0.017 C 
ATOM     25  C   UNL     1      36.877 -24.444 -10.798  0.00  0.00    +0.099 C 
ATOM     26  C   UNL     1      37.588 -25.865 -12.459  0.00  0.00    +0.099 C 
ENDBRANCH  20  22
ENDBRANCH   6  20
TORSDOF 3
ENDMDL
