MODEL 1
REMARK VINA RESULT:     -11.9      0.000      0.000
REMARK  Name = 54576693
REMARK  3 active torsions:
REMARK  status: ('A' for Active; 'I' for Inactive)
REMARK    1  A    between atoms: N_2  and  C_19
REMARK    2  A    between atoms: N_4  and  C_14
REMARK    3  A    between atoms: C_19  and  C_24
REMARK                            x       y       z     vdW  Elec       q    Type
REMARK                         _______ _______ _______ _____ _____    ______ ____
ROOT
ATOM      1  O   UNL     1      32.247 -21.663 -17.411  0.00  0.00    -0.252 OA
ATOM      2  N   UNL     1      35.331 -19.479 -20.664  0.00  0.00    +0.392 N 
ATOM      3  N   UNL     1      34.072 -21.233 -18.767  0.00  0.00    -0.268 N 
ATOM      4  N   UNL     1      34.283 -22.644 -16.886  0.00  0.00    -0.266 N 
ATOM      5  C   UNL     1      34.032 -19.127 -20.076  0.00  0.00    -0.055 C 
ATOM      6  C   UNL     1      36.144 -20.214 -19.688  0.00  0.00    -0.055 C 
ATOM      7  C   UNL     1      35.443 -21.495 -19.225  0.00  0.00    +0.072 C 
ATOM      8  C   UNL     1      33.277 -20.386 -19.659  0.00  0.00    +0.072 C 
ATOM      9  C   UNL     1      33.444 -21.834 -17.652  0.00  0.00    +0.308 C 
ATOM     10  H   UNL     1      35.171 -20.079 -21.474  0.00  0.00    -0.079 HD
ATOM     11  H   UNL     1      35.018 -23.090 -17.367  0.00  0.00    +0.156 HD
ENDROOT
BRANCH   4  14
ATOM     12 CL   UNL     1      36.896 -22.578 -15.280  0.00  0.00    -0.081 Cl
ATOM     13  N   UNL     1      32.780 -23.411 -13.604  0.00  0.00    -0.241 NA
ATOM     14  C   UNL     1      34.197 -22.896 -15.494  0.00  0.00    +0.082 C 
ATOM     15  C   UNL     1      35.314 -22.893 -14.665  0.00  0.00    +0.074 C 
ATOM     16  C   UNL     1      32.964 -23.158 -14.919  0.00  0.00    +0.114 C 
ATOM     17  C   UNL     1      35.165 -23.149 -13.306  0.00  0.00    +0.033 C 
ATOM     18  C   UNL     1      33.889 -23.399 -12.830  0.00  0.00    +0.100 C 
ENDBRANCH   4  14
BRANCH   2  19
ATOM     19  C   UNL     1      36.032 -18.278 -21.117  0.00  0.00    -0.050 C 
BRANCH  19  24
ATOM     20  F   UNL     1      32.689 -13.853 -24.993  0.00  0.00    -0.125 F 
ATOM     21  F   UNL     1      34.596 -13.891 -26.068  0.00  0.00    -0.125 F 
ATOM     22  O   UNL     1      34.569 -14.431 -23.865  0.00  0.00    -0.395 OA
ATOM     23  O   UNL     1      33.591 -15.857 -25.551  0.00  0.00    -0.395 OA
ATOM     24  C   UNL     1      35.368 -17.662 -22.320  0.00  0.00    -0.040 C 
ATOM     25  C   UNL     1      35.326 -16.272 -22.451  0.00  0.00    +0.034 C 
ATOM     26  C   UNL     1      34.799 -18.492 -23.301  0.00  0.00    -0.003 C 
ATOM     27  C   UNL     1      34.707 -15.753 -23.570  0.00  0.00    +0.181 C 
ATOM     28  C   UNL     1      34.149 -16.567 -24.532  0.00  0.00    +0.182 C 
ATOM     29  C   UNL     1      34.179 -17.942 -24.426  0.00  0.00    +0.040 C 
ATOM     30  C   UNL     1      33.865 -14.518 -25.113  0.00  0.00    +0.589 C 
ENDBRANCH  19  24
ENDBRANCH   2  19
TORSDOF 3
ENDMDL
MODEL 2
REMARK VINA RESULT:     -11.6      5.965     10.772
REMARK  Name = 54576693
REMARK  3 active torsions:
REMARK  status: ('A' for Active; 'I' for Inactive)
REMARK    1  A    between atoms: N_2  and  C_19
REMARK    2  A    between atoms: N_4  and  C_14
REMARK    3  A    between atoms: C_19  and  C_24
REMARK                            x       y       z     vdW  Elec       q    Type
REMARK                         _______ _______ _______ _____ _____    ______ ____
ROOT
ATOM      1  O   UNL     1      37.419 -18.941 -20.201  0.00  0.00    -0.252 OA
ATOM      2  N   UNL     1      34.925 -22.051 -17.206  0.00  0.00    +0.392 N 
ATOM      3  N   UNL     1      35.812 -20.386 -19.375  0.00  0.00    -0.268 N 
ATOM      4  N   UNL     1      35.269 -18.835 -21.070  0.00  0.00    -0.266 N 
ATOM      5  C   UNL     1      36.160 -21.267 -17.083  0.00  0.00    -0.055 C 
ATOM      6  C   UNL     1      33.946 -21.324 -18.025  0.00  0.00    -0.055 C 
ATOM      7  C   UNL     1      34.494 -21.033 -19.425  0.00  0.00    +0.072 C 
ATOM      8  C   UNL     1      36.768 -21.012 -18.460  0.00  0.00    +0.072 C 
ATOM      9  C   UNL     1      36.252 -19.340 -20.217  0.00  0.00    +0.308 C 
ATOM     10  H   UNL     1      35.142 -22.936 -17.666  0.00  0.00    -0.079 HD
ATOM     11  H   UNL     1      34.572 -19.469 -21.355  0.00  0.00    +0.156 HD
ENDROOT
BRANCH   4  14
ATOM     12 CL   UNL     1      34.742 -18.508 -24.074  0.00  0.00    -0.081 Cl
ATOM     13  N   UNL     1      35.216 -15.146 -21.088  0.00  0.00    -0.241 NA
ATOM     14  C   UNL     1      35.163 -17.514 -21.571  0.00  0.00    +0.082 C 
ATOM     15  C   UNL     1      34.927 -17.243 -22.914  0.00  0.00    +0.074 C 
ATOM     16  C   UNL     1      35.299 -16.439 -20.707  0.00  0.00    +0.114 C 
ATOM     17  C   UNL     1      34.835 -15.923 -23.346  0.00  0.00    +0.033 C 
ATOM     18  C   UNL     1      34.984 -14.921 -22.401  0.00  0.00    +0.100 C 
ENDBRANCH   4  14
BRANCH   2  19
ATOM     19  C   UNL     1      34.370 -22.347 -15.885  0.00  0.00    -0.050 C 
BRANCH  19  24
ATOM     20  F   UNL     1      39.933 -24.106 -12.457  0.00  0.00    -0.125 F 
ATOM     21  F   UNL     1      38.493 -24.096 -10.809  0.00  0.00    -0.125 F 
ATOM     22  O   UNL     1      38.074 -22.820 -12.636  0.00  0.00    -0.395 OA
ATOM     23  O   UNL     1      37.981 -25.232 -12.704  0.00  0.00    -0.395 OA
ATOM     24  C   UNL     1      35.325 -23.152 -15.045  0.00  0.00    -0.040 C 
ATOM     25  C   UNL     1      36.254 -22.498 -14.233  0.00  0.00    +0.034 C 
ATOM     26  C   UNL     1      35.271 -24.557 -15.084  0.00  0.00    -0.003 C 
ATOM     27  C   UNL     1      37.108 -23.278 -13.480  0.00  0.00    +0.181 C 
ATOM     28  C   UNL     1      37.055 -24.655 -13.518  0.00  0.00    +0.182 C 
ATOM     29  C   UNL     1      36.146 -25.324 -14.312  0.00  0.00    +0.040 C 
ATOM     30  C   UNL     1      38.611 -24.063 -12.160  0.00  0.00    +0.589 C 
ENDBRANCH  19  24
ENDBRANCH   2  19
TORSDOF 3
ENDMDL
MODEL 3
REMARK VINA RESULT:     -11.5      5.059      9.493
REMARK  Name = 54576693
REMARK  3 active torsions:
REMARK  status: ('A' for Active; 'I' for Inactive)
REMARK    1  A    between atoms: N_2  and  C_19
REMARK    2  A    between atoms: N_4  and  C_14
REMARK    3  A    between atoms: C_19  and  C_24
REMARK                            x       y       z     vdW  Elec       q    Type
REMARK                         _______ _______ _______ _____ _____    ______ ____
ROOT
ATOM      1  O   UNL     1      37.212 -20.809 -17.197  0.00  0.00    -0.252 OA
ATOM      2  N   UNL     1      33.696 -23.165 -14.560  0.00  0.00    +0.392 N 
ATOM      3  N   UNL     1      35.368 -22.089 -16.636  0.00  0.00    -0.268 N 
ATOM      4  N   UNL     1      35.533 -21.098 -18.773  0.00  0.00    -0.266 N 
ATOM      5  C   UNL     1      34.826 -22.290 -14.224  0.00  0.00    -0.055 C 
ATOM      6  C   UNL     1      33.109 -22.759 -15.844  0.00  0.00    -0.055 C 
ATOM      7  C   UNL     1      34.139 -22.819 -16.975  0.00  0.00    +0.072 C 
ATOM      8  C   UNL     1      35.903 -22.373 -15.304  0.00  0.00    +0.072 C 
ATOM      9  C   UNL     1      36.119 -21.281 -17.519  0.00  0.00    +0.308 C 
ATOM     10  H   UNL     1      34.037 -24.123 -14.646  0.00  0.00    -0.079 HD
ATOM     11  H   UNL     1      34.967 -21.834 -19.101  0.00  0.00    +0.156 HD
ENDROOT
BRANCH   4  14
ATOM     12 CL   UNL     1      32.957 -19.948 -19.977  0.00  0.00    -0.081 Cl
ATOM     13  N   UNL     1      37.138 -18.374 -20.675  0.00  0.00    -0.241 NA
ATOM     14  C   UNL     1      35.660 -19.972 -19.624  0.00  0.00    +0.082 C 
ATOM     15  C   UNL     1      34.563 -19.366 -20.227  0.00  0.00    +0.074 C 
ATOM     16  C   UNL     1      36.915 -19.442 -19.878  0.00  0.00    +0.114 C 
ATOM     17  C   UNL     1      34.753 -18.264 -21.054  0.00  0.00    +0.033 C 
ATOM     18  C   UNL     1      36.048 -17.811 -21.244  0.00  0.00    +0.100 C 
ENDBRANCH   4  14
BRANCH   2  19
ATOM     19  C   UNL     1      32.688 -23.133 -13.501  0.00  0.00    -0.050 C 
BRANCH  19  24
ATOM     20  F   UNL     1      26.371 -21.426 -15.225  0.00  0.00    -0.125 F 
ATOM     21  F   UNL     1      27.186 -21.818 -17.218  0.00  0.00    -0.125 F 
ATOM     22  O   UNL     1      28.606 -21.227 -15.552  0.00  0.00    -0.395 OA
ATOM     23  O   UNL     1      27.485 -23.366 -15.589  0.00  0.00    -0.395 OA
ATOM     24  C   UNL     1      31.291 -23.231 -14.054  0.00  0.00    -0.040 C 
ATOM     25  C   UNL     1      30.657 -22.086 -14.541  0.00  0.00    +0.034 C 
ATOM     26  C   UNL     1      30.639 -24.477 -14.076  0.00  0.00    -0.003 C 
ATOM     27  C   UNL     1      29.377 -22.226 -15.039  0.00  0.00    +0.181 C 
ATOM     28  C   UNL     1      28.737 -23.447 -15.060  0.00  0.00    +0.182 C 
ATOM     29  C   UNL     1      29.343 -24.592 -14.585  0.00  0.00    +0.040 C 
ATOM     30  C   UNL     1      27.422 -21.965 -15.891  0.00  0.00    +0.589 C 
ENDBRANCH  19  24
ENDBRANCH   2  19
TORSDOF 3
ENDMDL
MODEL 4
REMARK VINA RESULT:     -11.5      1.205      1.389
REMARK  Name = 54576693
REMARK  3 active torsions:
REMARK  status: ('A' for Active; 'I' for Inactive)
REMARK    1  A    between atoms: N_2  and  C_19
REMARK    2  A    between atoms: N_4  and  C_14
REMARK    3  A    between atoms: C_19  and  C_24
REMARK                            x       y       z     vdW  Elec       q    Type
REMARK                         _______ _______ _______ _____ _____    ______ ____
ROOT
ATOM      1  O   UNL     1      32.208 -21.301 -17.916  0.00  0.00    -0.252 OA
ATOM      2  N   UNL     1      35.791 -19.159 -20.644  0.00  0.00    +0.392 N 
ATOM      3  N   UNL     1      34.206 -20.924 -19.019  0.00  0.00    -0.268 N 
ATOM      4  N   UNL     1      34.102 -22.444 -17.216  0.00  0.00    -0.266 N 
ATOM      5  C   UNL     1      34.455 -18.752 -20.192  0.00  0.00    -0.055 C 
ATOM      6  C   UNL     1      36.434 -19.999 -19.625  0.00  0.00    -0.055 C 
ATOM      7  C   UNL     1      35.605 -21.252 -19.328  0.00  0.00    +0.072 C 
ATOM      8  C   UNL     1      33.579 -19.978 -19.945  0.00  0.00    +0.072 C 
ATOM      9  C   UNL     1      33.413 -21.539 -18.025  0.00  0.00    +0.308 C 
ATOM     10  H   UNL     1      35.695 -19.703 -21.502  0.00  0.00    -0.079 HD
ATOM     11  H   UNL     1      34.861 -22.912 -17.634  0.00  0.00    +0.156 HD
ENDROOT
BRANCH   4  14
ATOM     12 CL   UNL     1      36.489 -22.544 -15.293  0.00  0.00    -0.081 Cl
ATOM     13  N   UNL     1      32.173 -23.328 -14.197  0.00  0.00    -0.241 NA
ATOM     14  C   UNL     1      33.832 -22.764 -15.862  0.00  0.00    +0.082 C 
ATOM     15  C   UNL     1      34.835 -22.839 -14.900  0.00  0.00    +0.074 C 
ATOM     16  C   UNL     1      32.530 -23.015 -15.462  0.00  0.00    +0.114 C 
ATOM     17  C   UNL     1      34.507 -23.159 -13.587  0.00  0.00    +0.033 C 
ATOM     18  C   UNL     1      33.174 -23.392 -13.290  0.00  0.00    +0.100 C 
ENDBRANCH   4  14
BRANCH   2  19
ATOM     19  C   UNL     1      36.614 -17.987 -20.937  0.00  0.00    -0.050 C 
BRANCH  19  24
ATOM     20  F   UNL     1      32.621 -12.806 -22.672  0.00  0.00    -0.125 F 
ATOM     21  F   UNL     1      34.527 -12.054 -23.441  0.00  0.00    -0.125 F 
ATOM     22  O   UNL     1      34.548 -13.562 -21.748  0.00  0.00    -0.395 OA
ATOM     23  O   UNL     1      33.878 -14.155 -23.991  0.00  0.00    -0.395 OA
ATOM     24  C   UNL     1      35.877 -16.983 -21.784  0.00  0.00    -0.040 C 
ATOM     25  C   UNL     1      35.590 -15.718 -21.266  0.00  0.00    +0.034 C 
ATOM     26  C   UNL     1      35.488 -17.328 -23.090  0.00  0.00    -0.003 C 
ATOM     27  C   UNL     1      34.914 -14.832 -22.079  0.00  0.00    +0.181 C 
ATOM     28  C   UNL     1      34.531 -15.170 -23.360  0.00  0.00    +0.182 C 
ATOM     29  C   UNL     1      34.804 -16.413 -23.894  0.00  0.00    +0.040 C 
ATOM     30  C   UNL     1      33.899 -13.156 -22.962  0.00  0.00    +0.589 C 
ENDBRANCH  19  24
ENDBRANCH   2  19
TORSDOF 3
ENDMDL
MODEL 5
REMARK VINA RESULT:     -11.5      4.144      6.776
REMARK  Name = 54576693
REMARK  3 active torsions:
REMARK  status: ('A' for Active; 'I' for Inactive)
REMARK    1  A    between atoms: N_2  and  C_19
REMARK    2  A    between atoms: N_4  and  C_14
REMARK    3  A    between atoms: C_19  and  C_24
REMARK                            x       y       z     vdW  Elec       q    Type
REMARK                         _______ _______ _______ _____ _____    ______ ____
ROOT
ATOM      1  O   UNL     1      34.950 -18.939 -23.487  0.00  0.00    -0.252 OA
ATOM      2  N   UNL     1      34.084 -14.097 -24.303  0.00  0.00    +0.392 N 
ATOM      3  N   UNL     1      34.909 -16.639 -23.244  0.00  0.00    -0.268 N 
ATOM      4  N   UNL     1      35.189 -18.037 -21.362  0.00  0.00    -0.266 N 
ATOM      5  C   UNL     1      33.726 -15.341 -24.996  0.00  0.00    -0.055 C 
ATOM      6  C   UNL     1      34.109 -14.318 -22.851  0.00  0.00    -0.055 C 
ATOM      7  C   UNL     1      35.113 -15.408 -22.468  0.00  0.00    +0.072 C 
ATOM      8  C   UNL     1      34.744 -16.436 -24.684  0.00  0.00    +0.072 C 
ATOM      9  C   UNL     1      35.004 -17.957 -22.743  0.00  0.00    +0.308 C 
ATOM     10  H   UNL     1      35.015 -13.810 -24.605  0.00  0.00    -0.079 HD
ATOM     11  H   UNL     1      35.674 -17.290 -20.943  0.00  0.00    +0.156 HD
ENDROOT
BRANCH   4  14
ATOM     12 CL   UNL     1      37.340 -19.503 -19.740  0.00  0.00    -0.081 Cl
ATOM     13  N   UNL     1      32.900 -20.349 -19.621  0.00  0.00    -0.241 NA
ATOM     14  C   UNL     1      34.756 -19.072 -20.496  0.00  0.00    +0.082 C 
ATOM     15  C   UNL     1      35.641 -19.806 -19.713  0.00  0.00    +0.074 C 
ATOM     16  C   UNL     1      33.408 -19.380 -20.414  0.00  0.00    +0.114 C 
ATOM     17  C   UNL     1      35.155 -20.812 -18.883  0.00  0.00    +0.033 C 
ATOM     18  C   UNL     1      33.789 -21.041 -18.873  0.00  0.00    +0.100 C 
ENDBRANCH   4  14
BRANCH   2  19
ATOM     19  C   UNL     1      33.144 -13.031 -24.645  0.00  0.00    -0.050 C 
BRANCH  19  24
ATOM     20  F   UNL     1      34.448  -6.449 -23.769  0.00  0.00    -0.125 F 
ATOM     21  F   UNL     1      36.237  -7.290 -22.829  0.00  0.00    -0.125 F 
ATOM     22  O   UNL     1      34.355  -8.551 -22.923  0.00  0.00    -0.395 OA
ATOM     23  O   UNL     1      35.643  -8.013 -24.894  0.00  0.00    -0.395 OA
ATOM     24  C   UNL     1      33.827 -11.693 -24.745  0.00  0.00    -0.040 C 
ATOM     25  C   UNL     1      33.711 -10.776 -23.698  0.00  0.00    +0.034 C 
ATOM     26  C   UNL     1      34.577 -11.380 -25.892  0.00  0.00    -0.003 C 
ATOM     27  C   UNL     1      34.356  -9.563 -23.835  0.00  0.00    +0.181 C 
ATOM     28  C   UNL     1      35.091  -9.256 -24.959  0.00  0.00    +0.182 C 
ATOM     29  C   UNL     1      35.220 -10.145 -26.007  0.00  0.00    +0.040 C 
ATOM     30  C   UNL     1      35.168  -7.587 -23.609  0.00  0.00    +0.589 C 
ENDBRANCH  19  24
ENDBRANCH   2  19
TORSDOF 3
ENDMDL
MODEL 6
REMARK VINA RESULT:     -11.4      5.849     10.945
REMARK  Name = 54576693
REMARK  3 active torsions:
REMARK  status: ('A' for Active; 'I' for Inactive)
REMARK    1  A    between atoms: N_2  and  C_19
REMARK    2  A    between atoms: N_4  and  C_14
REMARK    3  A    between atoms: C_19  and  C_24
REMARK                            x       y       z     vdW  Elec       q    Type
REMARK                         _______ _______ _______ _____ _____    ______ ____
ROOT
ATOM      1  O   UNL     1      33.342 -12.122 -25.355  0.00  0.00    -0.252 OA
ATOM      2  N   UNL     1      35.043 -16.213 -23.066  0.00  0.00    +0.392 N 
ATOM      3  N   UNL     1      33.956 -13.631 -23.712  0.00  0.00    -0.268 N 
ATOM      4  N   UNL     1      33.841 -11.322 -23.234  0.00  0.00    -0.266 N 
ATOM      5  C   UNL     1      34.932 -15.783 -24.466  0.00  0.00    -0.055 C 
ATOM      6  C   UNL     1      35.327 -15.057 -22.205  0.00  0.00    -0.055 C 
ATOM      7  C   UNL     1      34.229 -13.995 -22.315  0.00  0.00    +0.072 C 
ATOM      8  C   UNL     1      33.803 -14.767 -24.623  0.00  0.00    +0.072 C 
ATOM      9  C   UNL     1      33.694 -12.328 -24.191  0.00  0.00    +0.308 C 
ATOM     10  H   UNL     1      34.155 -16.624 -22.778  0.00  0.00    -0.079 HD
ATOM     11  H   UNL     1      33.653 -11.576 -22.302  0.00  0.00    +0.156 HD
ENDROOT
BRANCH   4  14
ATOM     12 CL   UNL     1      32.231  -9.141 -21.801  0.00  0.00    -0.081 Cl
ATOM     13  N   UNL     1      35.742  -8.453 -24.565  0.00  0.00    -0.241 NA
ATOM     14  C   UNL     1      34.229  -9.978 -23.455  0.00  0.00    +0.082 C 
ATOM     15  C   UNL     1      33.573  -8.905 -22.859  0.00  0.00    +0.074 C 
ATOM     16  C   UNL     1      35.298  -9.700 -24.292  0.00  0.00    +0.114 C 
ATOM     17  C   UNL     1      34.001  -7.606 -23.116  0.00  0.00    +0.033 C 
ATOM     18  C   UNL     1      35.080  -7.436 -23.968  0.00  0.00    +0.100 C 
ENDBRANCH   4  14
BRANCH   2  19
ATOM     19  C   UNL     1      36.085 -17.229 -22.922  0.00  0.00    -0.050 C 
BRANCH  19  24
ATOM     20  F   UNL     1      32.753 -20.558 -18.063  0.00  0.00    -0.125 F 
ATOM     21  F   UNL     1      33.428 -22.263 -19.258  0.00  0.00    -0.125 F 
ATOM     22  O   UNL     1      33.196 -20.244 -20.265  0.00  0.00    -0.395 OA
ATOM     23  O   UNL     1      34.939 -20.685 -18.652  0.00  0.00    -0.395 OA
ATOM     24  C   UNL     1      35.812 -18.150 -21.763  0.00  0.00    -0.040 C 
ATOM     25  C   UNL     1      34.554 -18.744 -21.632  0.00  0.00    +0.034 C 
ATOM     26  C   UNL     1      36.827 -18.407 -20.825  0.00  0.00    -0.003 C 
ATOM     27  C   UNL     1      34.350 -19.582 -20.555  0.00  0.00    +0.181 C 
ATOM     28  C   UNL     1      35.345 -19.833 -19.634  0.00  0.00    +0.182 C 
ATOM     29  C   UNL     1      36.595 -19.260 -19.742  0.00  0.00    +0.040 C 
ATOM     30  C   UNL     1      33.588 -20.930 -19.066  0.00  0.00    +0.589 C 
ENDBRANCH  19  24
ENDBRANCH   2  19
TORSDOF 3
ENDMDL
MODEL 7
REMARK VINA RESULT:     -11.0      4.514      7.076
REMARK  Name = 54576693
REMARK  3 active torsions:
REMARK  status: ('A' for Active; 'I' for Inactive)
REMARK    1  A    between atoms: N_2  and  C_19
REMARK    2  A    between atoms: N_4  and  C_14
REMARK    3  A    between atoms: C_19  and  C_24
REMARK                            x       y       z     vdW  Elec       q    Type
REMARK                         _______ _______ _______ _____ _____    ______ ____
ROOT
ATOM      1  O   UNL     1      35.292 -18.490 -23.338  0.00  0.00    -0.252 OA
ATOM      2  N   UNL     1      34.137 -13.661 -23.802  0.00  0.00    +0.392 N 
ATOM      3  N   UNL     1      35.037 -16.234 -22.890  0.00  0.00    -0.268 N 
ATOM      4  N   UNL     1      35.212 -17.793 -21.126  0.00  0.00    -0.266 N 
ATOM      5  C   UNL     1      33.962 -14.851 -24.645  0.00  0.00    -0.055 C 
ATOM      6  C   UNL     1      34.013 -14.026 -22.385  0.00  0.00    -0.055 C 
ATOM      7  C   UNL     1      35.052 -15.078 -21.984  0.00  0.00    +0.072 C 
ATOM      8  C   UNL     1      35.022 -15.898 -24.315  0.00  0.00    +0.072 C 
ATOM      9  C   UNL     1      35.180 -17.587 -22.506  0.00  0.00    +0.308 C 
ATOM     10  H   UNL     1      35.070 -13.281 -23.961  0.00  0.00    -0.079 HD
ATOM     11  H   UNL     1      35.585 -17.061 -20.583  0.00  0.00    +0.156 HD
ENDROOT
BRANCH   4  14
ATOM     12 CL   UNL     1      37.339 -19.460 -19.674  0.00  0.00    -0.081 Cl
ATOM     13  N   UNL     1      32.903 -20.329 -19.765  0.00  0.00    -0.241 NA
ATOM     14  C   UNL     1      34.769 -18.938 -20.419  0.00  0.00    +0.082 C 
ATOM     15  C   UNL     1      35.641 -19.769 -19.724  0.00  0.00    +0.074 C 
ATOM     16  C   UNL     1      33.421 -19.260 -20.408  0.00  0.00    +0.114 C 
ATOM     17  C   UNL     1      35.145 -20.881 -19.050  0.00  0.00    +0.033 C 
ATOM     18  C   UNL     1      33.781 -21.114 -19.100  0.00  0.00    +0.100 C 
ENDBRANCH   4  14
BRANCH   2  19
ATOM     19  C   UNL     1      33.159 -12.633 -24.155  0.00  0.00    -0.050 C 
BRANCH  19  24
ATOM     20  F   UNL     1      33.197  -6.126 -22.299  0.00  0.00    -0.125 F 
ATOM     21  F   UNL     1      34.474  -6.949 -20.722  0.00  0.00    -0.125 F 
ATOM     22  O   UNL     1      32.979  -8.314 -21.744  0.00  0.00    -0.395 OA
ATOM     23  O   UNL     1      34.932  -7.464 -22.882  0.00  0.00    -0.395 OA
ATOM     24  C   UNL     1      33.661 -11.250 -23.838  0.00  0.00    -0.040 C 
ATOM     25  C   UNL     1      32.995 -10.471 -22.889  0.00  0.00    +0.034 C 
ATOM     26  C   UNL     1      34.799 -10.755 -24.500  0.00  0.00    -0.003 C 
ATOM     27  C   UNL     1      33.493  -9.210 -22.631  0.00  0.00    +0.181 C 
ATOM     28  C   UNL     1      34.608  -8.725 -23.281  0.00  0.00    +0.182 C 
ATOM     29  C   UNL     1      35.284  -9.475 -24.222  0.00  0.00    +0.040 C 
ATOM     30  C   UNL     1      33.897  -7.224 -21.919  0.00  0.00    +0.589 C 
ENDBRANCH  19  24
ENDBRANCH   2  19
TORSDOF 3
ENDMDL
MODEL 8
REMARK VINA RESULT:     -10.8      2.593      3.472
REMARK  Name = 54576693
REMARK  3 active torsions:
REMARK  status: ('A' for Active; 'I' for Inactive)
REMARK    1  A    between atoms: N_2  and  C_19
REMARK    2  A    between atoms: N_4  and  C_14
REMARK    3  A    between atoms: C_19  and  C_24
REMARK                            x       y       z     vdW  Elec       q    Type
REMARK                         _______ _______ _______ _____ _____    ______ ____
ROOT
ATOM      1  O   UNL     1      38.248 -21.804 -15.026  0.00  0.00    -0.252 OA
ATOM      2  N   UNL     1      35.528 -20.451 -18.980  0.00  0.00    +0.392 N 
ATOM      3  N   UNL     1      36.453 -21.391 -16.426  0.00  0.00    -0.268 N 
ATOM      4  N   UNL     1      36.271 -22.969 -14.679  0.00  0.00    -0.266 N 
ATOM      5  C   UNL     1      36.965 -20.501 -18.684  0.00  0.00    -0.055 C 
ATOM      6  C   UNL     1      34.835 -21.558 -18.308  0.00  0.00    -0.055 C 
ATOM      7  C   UNL     1      35.033 -21.502 -16.790  0.00  0.00    +0.072 C 
ATOM      8  C   UNL     1      37.203 -20.385 -17.180  0.00  0.00    +0.072 C 
ATOM      9  C   UNL     1      37.083 -22.052 -15.348  0.00  0.00    +0.308 C 
ATOM     10  H   UNL     1      35.151 -19.570 -18.630  0.00  0.00    -0.079 HD
ATOM     11  H   UNL     1      35.306 -22.771 -14.670  0.00  0.00    +0.156 HD
ENDROOT
BRANCH   4  14
ATOM     12 CL   UNL     1      36.988 -22.730 -11.706  0.00  0.00    -0.081 Cl
ATOM     13  N   UNL     1      37.116 -26.523 -14.163  0.00  0.00    -0.241 NA
ATOM     14  C   UNL     1      36.678 -24.150 -14.012  0.00  0.00    +0.082 C 
ATOM     15  C   UNL     1      37.028 -24.164 -12.666  0.00  0.00    +0.074 C 
ATOM     16  C   UNL     1      36.739 -25.346 -14.709  0.00  0.00    +0.114 C 
ATOM     17  C   UNL     1      37.422 -25.356 -12.068  0.00  0.00    +0.033 C 
ATOM     18  C   UNL     1      37.448 -26.498 -12.853  0.00  0.00    +0.100 C 
ENDBRANCH   4  14
BRANCH   2  19
ATOM     19  C   UNL     1      35.299 -20.504 -20.424  0.00  0.00    -0.050 C 
BRANCH  19  24
ATOM     20  F   UNL     1      35.552 -15.576 -25.054  0.00  0.00    -0.125 F 
ATOM     21  F   UNL     1      33.493 -15.305 -24.364  0.00  0.00    -0.125 F 
ATOM     22  O   UNL     1      34.463 -17.342 -24.139  0.00  0.00    -0.395 OA
ATOM     23  O   UNL     1      35.154 -15.435 -22.827  0.00  0.00    -0.395 OA
ATOM     24  C   UNL     1      35.273 -19.129 -21.037  0.00  0.00    -0.040 C 
ATOM     25  C   UNL     1      34.849 -18.968 -22.359  0.00  0.00    +0.034 C 
ATOM     26  C   UNL     1      35.675 -18.019 -20.273  0.00  0.00    -0.003 C 
ATOM     27  C   UNL     1      34.842 -17.690 -22.877  0.00  0.00    +0.181 C 
ATOM     28  C   UNL     1      35.236 -16.602 -22.129  0.00  0.00    +0.182 C 
ATOM     29  C   UNL     1      35.658 -16.735 -20.822  0.00  0.00    +0.040 C 
ATOM     30  C   UNL     1      34.668 -15.922 -24.085  0.00  0.00    +0.589 C 
ENDBRANCH  19  24
ENDBRANCH   2  19
TORSDOF 3
ENDMDL
MODEL 9
REMARK VINA RESULT:     -10.7      8.111     10.866
REMARK  Name = 54576693
REMARK  3 active torsions:
REMARK  status: ('A' for Active; 'I' for Inactive)
REMARK    1  A    between atoms: N_2  and  C_19
REMARK    2  A    between atoms: N_4  and  C_14
REMARK    3  A    between atoms: C_19  and  C_24
REMARK                            x       y       z     vdW  Elec       q    Type
REMARK                         _______ _______ _______ _____ _____    ______ ____
ROOT
ATOM      1  O   UNL     1      31.423 -21.770 -16.947  0.00  0.00    -0.252 OA
ATOM      2  N   UNL     1      34.191 -23.865 -13.367  0.00  0.00    +0.392 N 
ATOM      3  N   UNL     1      32.180 -23.233 -15.322  0.00  0.00    -0.268 N 
ATOM      4  N   UNL     1      29.893 -23.171 -15.906  0.00  0.00    -0.266 N 
ATOM      5  C   UNL     1      34.276 -22.622 -14.144  0.00  0.00    -0.055 C 
ATOM      6  C   UNL     1      32.785 -24.207 -13.116  0.00  0.00    -0.055 C 
ATOM      7  C   UNL     1      32.009 -24.383 -14.425  0.00  0.00    +0.072 C 
ATOM      8  C   UNL     1      33.563 -22.782 -15.485  0.00  0.00    +0.072 C 
ATOM      9  C   UNL     1      31.170 -22.649 -16.119  0.00  0.00    +0.308 C 
ATOM     10  H   UNL     1      34.619 -24.618 -13.907  0.00  0.00    -0.079 HD
ATOM     11  H   UNL     1      29.849 -24.114 -15.626  0.00  0.00    +0.156 HD
ENDROOT
BRANCH   4  14
ATOM     12 CL   UNL     1      28.935 -21.481 -13.532  0.00  0.00    -0.081 Cl
ATOM     13  N   UNL     1      26.747 -22.019 -17.452  0.00  0.00    -0.241 NA
ATOM     14  C   UNL     1      28.655 -22.497 -16.047  0.00  0.00    +0.082 C 
ATOM     15  C   UNL     1      28.120 -21.703 -15.037  0.00  0.00    +0.074 C 
ATOM     16  C   UNL     1      27.935 -22.621 -17.224  0.00  0.00    +0.114 C 
ATOM     17  C   UNL     1      26.899 -21.067 -15.235  0.00  0.00    +0.033 C 
ATOM     18  C   UNL     1      26.258 -21.256 -16.449  0.00  0.00    +0.100 C 
ENDBRANCH   4  14
BRANCH   2  19
ATOM     19  C   UNL     1      34.921 -23.734 -12.107  0.00  0.00    -0.050 C 
BRANCH  19  24
ATOM     20  F   UNL     1      40.910 -26.343 -13.870  0.00  0.00    -0.125 F 
ATOM     21  F   UNL     1      40.907 -24.572 -15.155  0.00  0.00    -0.125 F 
ATOM     22  O   UNL     1      38.923 -25.433 -14.473  0.00  0.00    -0.395 OA
ATOM     23  O   UNL     1      40.436 -24.326 -12.951  0.00  0.00    -0.395 OA
ATOM     24  C   UNL     1      36.407 -23.872 -12.304  0.00  0.00    -0.040 C 
ATOM     25  C   UNL     1      36.897 -24.638 -13.365  0.00  0.00    +0.034 C 
ATOM     26  C   UNL     1      37.288 -23.227 -11.418  0.00  0.00    -0.003 C 
ATOM     27  C   UNL     1      38.267 -24.734 -13.505  0.00  0.00    +0.181 C 
ATOM     28  C   UNL     1      39.131 -24.103 -12.637  0.00  0.00    +0.182 C 
ATOM     29  C   UNL     1      38.671 -23.341 -11.582  0.00  0.00    +0.040 C 
ATOM     30  C   UNL     1      40.284 -25.163 -14.105  0.00  0.00    +0.589 C 
ENDBRANCH  19  24
ENDBRANCH   2  19
TORSDOF 3
ENDMDL
