MODEL 1
REMARK VINA RESULT:     -11.7      0.000      0.000
REMARK  Name = 1540
REMARK  4 active torsions:
REMARK  status: ('A' for Active; 'I' for Inactive)
REMARK    1  A    between atoms: N_5  and  C_14
REMARK    2  A    between atoms: C_6  and  O_20
REMARK    3  A    between atoms: O_20  and  C_21
REMARK    4  A    between atoms: C_21  and  C_22
REMARK                            x       y       z     vdW  Elec       q    Type
REMARK                         _______ _______ _______ _____ _____    ______ ____
ROOT
ATOM      1  N   UNL     1      34.872 -23.576 -14.633  0.00  0.00    -0.293 NA
ATOM      2  N   UNL     1      31.470 -22.398 -15.380  0.00  0.00    -0.266 NA
ATOM      3  N   UNL     1      33.383 -23.541 -12.701  0.00  0.00    -0.316 NA
ATOM      4  N   UNL     1      31.136 -22.761 -13.206  0.00  0.00    -0.296 N 
ATOM      5  N   UNL     1      35.605 -24.246 -12.512  0.00  0.00    -0.238 N 
ATOM      6  C   UNL     1      33.899 -23.112 -15.447  0.00  0.00    +0.288 C 
ATOM      7  C   UNL     1      32.660 -22.858 -14.894  0.00  0.00    +0.215 C 
ATOM      8  C   UNL     1      32.428 -23.076 -13.542  0.00  0.00    +0.196 C 
ATOM      9  C   UNL     1      34.559 -23.759 -13.328  0.00  0.00    +0.207 C 
ATOM     10  C   UNL     1      30.588 -22.358 -14.332  0.00  0.00    +0.164 C 
ATOM     11  H   UNL     1      31.279 -22.143 -16.312  0.00  0.00    +0.126 HD
ATOM     12  H   UNL     1      30.713 -22.823 -12.319  0.00  0.00    +0.150 HD
ATOM     13  H   UNL     1      35.349 -24.370 -11.570  0.00  0.00    +0.166 HD
ENDROOT
BRANCH   5  14
ATOM     14  C   UNL     1      36.942 -24.587 -12.783  0.00  0.00    +0.058 C 
ATOM     15  C   UNL     1      37.981 -23.780 -12.317  0.00  0.00    +0.015 C 
ATOM     16  C   UNL     1      37.238 -25.737 -13.521  0.00  0.00    +0.015 C 
ATOM     17  C   UNL     1      39.308 -24.118 -12.587  0.00  0.00    +0.001 C 
ATOM     18  C   UNL     1      38.564 -26.075 -13.790  0.00  0.00    +0.001 C 
ATOM     19  C   UNL     1      39.598 -25.266 -13.324  0.00  0.00    +0.000 C 
ENDBRANCH   5  14
BRANCH   6  20
ATOM     20  O   UNL     1      34.184 -22.913 -16.775  0.00  0.00    -0.453 OA
BRANCH  20  21
ATOM     21  C   UNL     1      35.183 -21.960 -17.083  0.00  0.00    +0.208 C 
BRANCH  21  22
ATOM     22  C   UNL     1      34.917 -21.415 -18.485  0.00  0.00    +0.044 C 
ATOM     23  C   UNL     1      33.525 -20.773 -18.562  0.00  0.00    +0.004 C 
ATOM     24  C   UNL     1      36.006 -20.412 -18.892  0.00  0.00    +0.004 C 
ATOM     25  C   UNL     1      33.257 -20.173 -19.940  0.00  0.00    +0.000 C 
ATOM     26  C   UNL     1      35.732 -19.812 -20.269  0.00  0.00    +0.000 C 
ATOM     27  C   UNL     1      34.344 -19.183 -20.344  0.00  0.00    +0.000 C 
ENDBRANCH  21  22
ENDBRANCH  20  21
ENDBRANCH   6  20
TORSDOF 4
ENDMDL
MODEL 2
REMARK VINA RESULT:     -11.5      1.521      6.443
REMARK  Name = 1540
REMARK  4 active torsions:
REMARK  status: ('A' for Active; 'I' for Inactive)
REMARK    1  A    between atoms: N_5  and  C_14
REMARK    2  A    between atoms: C_6  and  O_20
REMARK    3  A    between atoms: O_20  and  C_21
REMARK    4  A    between atoms: C_21  and  C_22
REMARK                            x       y       z     vdW  Elec       q    Type
REMARK                         _______ _______ _______ _____ _____    ______ ____
ROOT
ATOM      1  N   UNL     1      34.003 -22.387 -15.853  0.00  0.00    -0.293 NA
ATOM      2  N   UNL     1      32.742 -24.204 -12.914  0.00  0.00    -0.266 NA
ATOM      3  N   UNL     1      31.623 -22.917 -15.953  0.00  0.00    -0.316 NA
ATOM      4  N   UNL     1      30.801 -24.118 -14.005  0.00  0.00    -0.296 N 
ATOM      5  N   UNL     1      32.688 -21.766 -17.689  0.00  0.00    -0.238 N 
ATOM      6  C   UNL     1      34.128 -22.977 -14.644  0.00  0.00    +0.288 C 
ATOM      7  C   UNL     1      33.001 -23.542 -14.080  0.00  0.00    +0.215 C 
ATOM      8  C   UNL     1      31.781 -23.501 -14.741  0.00  0.00    +0.196 C 
ATOM      9  C   UNL     1      32.776 -22.393 -16.425  0.00  0.00    +0.207 C 
ATOM     10  C   UNL     1      31.411 -24.528 -12.915  0.00  0.00    +0.164 C 
ATOM     11  H   UNL     1      33.392 -24.410 -12.204  0.00  0.00    +0.126 HD
ATOM     12  H   UNL     1      29.851 -24.229 -14.242  0.00  0.00    +0.150 HD
ATOM     13  H   UNL     1      31.786 -21.785 -18.080  0.00  0.00    +0.166 HD
ENDROOT
BRANCH   5  14
ATOM     14  C   UNL     1      33.641 -21.119 -18.497  0.00  0.00    +0.058 C 
ATOM     15  C   UNL     1      33.236 -20.164 -19.431  0.00  0.00    +0.015 C 
ATOM     16  C   UNL     1      34.998 -21.430 -18.368  0.00  0.00    +0.015 C 
ATOM     17  C   UNL     1      34.181 -19.523 -20.233  0.00  0.00    +0.001 C 
ATOM     18  C   UNL     1      35.942 -20.789 -19.170  0.00  0.00    +0.001 C 
ATOM     19  C   UNL     1      35.534 -19.836 -20.102  0.00  0.00    +0.000 C 
ENDBRANCH   5  14
BRANCH   6  20
ATOM     20  O   UNL     1      35.359 -22.989 -14.036  0.00  0.00    -0.453 OA
BRANCH  20  21
ATOM     21  C   UNL     1      36.488 -22.791 -14.866  0.00  0.00    +0.208 C 
BRANCH  21  22
ATOM     22  C   UNL     1      37.517 -23.874 -14.550  0.00  0.00    +0.044 C 
ATOM     23  C   UNL     1      38.927 -23.414 -14.942  0.00  0.00    +0.004 C 
ATOM     24  C   UNL     1      37.460 -24.260 -13.065  0.00  0.00    +0.004 C 
ATOM     25  C   UNL     1      39.981 -24.459 -14.587  0.00  0.00    +0.000 C 
ATOM     26  C   UNL     1      38.517 -25.303 -12.714  0.00  0.00    +0.000 C 
ATOM     27  C   UNL     1      39.916 -24.845 -13.113  0.00  0.00    +0.000 C 
ENDBRANCH  21  22
ENDBRANCH  20  21
ENDBRANCH   6  20
TORSDOF 4
ENDMDL
MODEL 3
REMARK VINA RESULT:     -11.2      1.552      5.247
REMARK  Name = 1540
REMARK  4 active torsions:
REMARK  status: ('A' for Active; 'I' for Inactive)
REMARK    1  A    between atoms: N_5  and  C_14
REMARK    2  A    between atoms: C_6  and  O_20
REMARK    3  A    between atoms: O_20  and  C_21
REMARK    4  A    between atoms: C_21  and  C_22
REMARK                            x       y       z     vdW  Elec       q    Type
REMARK                         _______ _______ _______ _____ _____    ______ ____
ROOT
ATOM      1  N   UNL     1      33.653 -22.959 -14.750  0.00  0.00    -0.293 NA
ATOM      2  N   UNL     1      37.294 -22.816 -14.261  0.00  0.00    -0.266 NA
ATOM      3  N   UNL     1      34.376 -23.491 -12.481  0.00  0.00    -0.316 NA
ATOM      4  N   UNL     1      36.785 -23.392 -12.169  0.00  0.00    -0.296 N 
ATOM      5  N   UNL     1      32.112 -23.505 -13.072  0.00  0.00    -0.238 N 
ATOM      6  C   UNL     1      34.925 -22.760 -15.156  0.00  0.00    +0.288 C 
ATOM      7  C   UNL     1      35.934 -22.925 -14.228  0.00  0.00    +0.215 C 
ATOM      8  C   UNL     1      35.641 -23.284 -12.919  0.00  0.00    +0.196 C 
ATOM      9  C   UNL     1      33.458 -23.307 -13.456  0.00  0.00    +0.207 C 
ATOM     10  C   UNL     1      37.759 -23.105 -13.005  0.00  0.00    +0.164 C 
ATOM     11  H   UNL     1      37.841 -22.573 -15.044  0.00  0.00    +0.126 HD
ATOM     12  H   UNL     1      36.860 -23.633 -11.217  0.00  0.00    +0.150 HD
ATOM     13  H   UNL     1      32.002 -23.757 -12.128  0.00  0.00    +0.166 HD
ENDROOT
BRANCH   5  14
ATOM     14  C   UNL     1      30.900 -23.414 -13.779  0.00  0.00    +0.058 C 
ATOM     15  C   UNL     1      30.408 -22.167 -14.171  0.00  0.00    +0.015 C 
ATOM     16  C   UNL     1      30.181 -24.571 -14.092  0.00  0.00    +0.015 C 
ATOM     17  C   UNL     1      29.205 -22.077 -14.871  0.00  0.00    +0.001 C 
ATOM     18  C   UNL     1      28.978 -24.480 -14.793  0.00  0.00    +0.001 C 
ATOM     19  C   UNL     1      28.490 -23.234 -15.182  0.00  0.00    +0.000 C 
ENDBRANCH   5  14
BRANCH   6  20
ATOM     20  O   UNL     1      35.158 -22.407 -16.462  0.00  0.00    -0.453 OA
BRANCH  20  21
ATOM     21  C   UNL     1      34.028 -22.287 -17.307  0.00  0.00    +0.208 C 
BRANCH  21  22
ATOM     22  C   UNL     1      34.457 -21.585 -18.593  0.00  0.00    +0.044 C 
ATOM     23  C   UNL     1      33.425 -20.525 -19.003  0.00  0.00    +0.004 C 
ATOM     24  C   UNL     1      35.849 -20.959 -18.431  0.00  0.00    +0.004 C 
ATOM     25  C   UNL     1      33.859 -19.772 -20.257  0.00  0.00    +0.000 C 
ATOM     26  C   UNL     1      36.278 -20.205 -19.687  0.00  0.00    +0.000 C 
ATOM     27  C   UNL     1      35.246 -19.158 -20.095  0.00  0.00    +0.000 C 
ENDBRANCH  21  22
ENDBRANCH  20  21
ENDBRANCH   6  20
TORSDOF 4
ENDMDL
MODEL 4
REMARK VINA RESULT:     -11.1      1.382      2.033
REMARK  Name = 1540
REMARK  4 active torsions:
REMARK  status: ('A' for Active; 'I' for Inactive)
REMARK    1  A    between atoms: N_5  and  C_14
REMARK    2  A    between atoms: C_6  and  O_20
REMARK    3  A    between atoms: O_20  and  C_21
REMARK    4  A    between atoms: C_21  and  C_22
REMARK                            x       y       z     vdW  Elec       q    Type
REMARK                         _______ _______ _______ _____ _____    ______ ____
ROOT
ATOM      1  N   UNL     1      33.303 -22.837 -15.531  0.00  0.00    -0.293 NA
ATOM      2  N   UNL     1      29.872 -21.981 -16.541  0.00  0.00    -0.266 NA
ATOM      3  N   UNL     1      31.618 -23.303 -13.830  0.00  0.00    -0.316 NA
ATOM      4  N   UNL     1      29.353 -22.734 -14.509  0.00  0.00    -0.296 N 
ATOM      5  N   UNL     1      33.883 -23.751 -13.454  0.00  0.00    -0.238 N 
ATOM      6  C   UNL     1      32.371 -22.369 -16.390  0.00  0.00    +0.288 C 
ATOM      7  C   UNL     1      31.054 -22.364 -15.975  0.00  0.00    +0.215 C 
ATOM      8  C   UNL     1      30.706 -22.828 -14.713  0.00  0.00    +0.196 C 
ATOM      9  C   UNL     1      32.875 -23.269 -14.322  0.00  0.00    +0.207 C 
ATOM     10  C   UNL     1      28.882 -22.222 -15.625  0.00  0.00    +0.164 C 
ATOM     11  H   UNL     1      29.753 -21.602 -17.442  0.00  0.00    +0.126 HD
ATOM     12  H   UNL     1      28.847 -22.992 -13.704  0.00  0.00    +0.150 HD
ATOM     13  H   UNL     1      33.543 -24.058 -12.583  0.00  0.00    +0.166 HD
ENDROOT
BRANCH   5  14
ATOM     14  C   UNL     1      35.276 -23.875 -13.594  0.00  0.00    +0.058 C 
ATOM     15  C   UNL     1      35.815 -24.907 -14.365  0.00  0.00    +0.015 C 
ATOM     16  C   UNL     1      36.129 -22.967 -12.961  0.00  0.00    +0.015 C 
ATOM     17  C   UNL     1      37.198 -25.031 -14.503  0.00  0.00    +0.001 C 
ATOM     18  C   UNL     1      37.512 -23.091 -13.099  0.00  0.00    +0.001 C 
ATOM     19  C   UNL     1      38.046 -24.123 -13.869  0.00  0.00    +0.000 C 
ENDBRANCH   5  14
BRANCH   6  20
ATOM     20  O   UNL     1      32.770 -21.922 -17.625  0.00  0.00    -0.453 OA
BRANCH  20  21
ATOM     21  C   UNL     1      34.083 -22.256 -18.035  0.00  0.00    +0.208 C 
BRANCH  21  22
ATOM     22  C   UNL     1      34.477 -21.339 -19.191  0.00  0.00    +0.044 C 
ATOM     23  C   UNL     1      33.389 -20.287 -19.444  0.00  0.00    +0.004 C 
ATOM     24  C   UNL     1      35.831 -20.670 -18.915  0.00  0.00    +0.004 C 
ATOM     25  C   UNL     1      33.784 -19.324 -20.560  0.00  0.00    +0.000 C 
ATOM     26  C   UNL     1      36.221 -19.706 -20.033  0.00  0.00    +0.000 C 
ATOM     27  C   UNL     1      35.133 -18.668 -20.286  0.00  0.00    +0.000 C 
ENDBRANCH  21  22
ENDBRANCH  20  21
ENDBRANCH   6  20
TORSDOF 4
ENDMDL
MODEL 5
REMARK VINA RESULT:     -10.9      1.759      5.126
REMARK  Name = 1540
REMARK  4 active torsions:
REMARK  status: ('A' for Active; 'I' for Inactive)
REMARK    1  A    between atoms: N_5  and  C_14
REMARK    2  A    between atoms: C_6  and  O_20
REMARK    3  A    between atoms: O_20  and  C_21
REMARK    4  A    between atoms: C_21  and  C_22
REMARK                            x       y       z     vdW  Elec       q    Type
REMARK                         _______ _______ _______ _____ _____    ______ ____
ROOT
ATOM      1  N   UNL     1      34.872 -23.302 -14.024  0.00  0.00    -0.293 NA
ATOM      2  N   UNL     1      38.331 -23.189 -12.780  0.00  0.00    -0.266 NA
ATOM      3  N   UNL     1      35.073 -23.584 -11.609  0.00  0.00    -0.316 NA
ATOM      4  N   UNL     1      37.364 -23.508 -10.798  0.00  0.00    -0.296 N 
ATOM      5  N   UNL     1      32.987 -23.613 -12.668  0.00  0.00    -0.238 N 
ATOM      6  C   UNL     1      36.210 -23.181 -14.165  0.00  0.00    +0.288 C 
ATOM      7  C   UNL     1      36.990 -23.261 -13.029  0.00  0.00    +0.215 C 
ATOM      8  C   UNL     1      36.411 -23.459 -11.783  0.00  0.00    +0.196 C 
ATOM      9  C   UNL     1      34.392 -23.493 -12.772  0.00  0.00    +0.207 C 
ATOM     10  C   UNL     1      38.505 -23.342 -11.430  0.00  0.00    +0.164 C 
ATOM     11  H   UNL     1      39.042 -23.052 -13.448  0.00  0.00    +0.126 HD
ATOM     12  H   UNL     1      37.224 -23.639  -9.832  0.00  0.00    +0.150 HD
ATOM     13  H   UNL     1      32.668 -23.751 -11.748  0.00  0.00    +0.166 HD
ENDROOT
BRANCH   5  14
ATOM     14  C   UNL     1      31.957 -23.576 -13.625  0.00  0.00    +0.058 C 
ATOM     15  C   UNL     1      31.865 -22.503 -14.515  0.00  0.00    +0.015 C 
ATOM     16  C   UNL     1      31.021 -24.611 -13.690  0.00  0.00    +0.015 C 
ATOM     17  C   UNL     1      30.843 -22.466 -15.464  0.00  0.00    +0.001 C 
ATOM     18  C   UNL     1      29.999 -24.573 -14.639  0.00  0.00    +0.001 C 
ATOM     19  C   UNL     1      29.910 -23.501 -15.525  0.00  0.00    +0.000 C 
ENDBRANCH   5  14
BRANCH   6  20
ATOM     20  O   UNL     1      36.730 -22.987 -15.421  0.00  0.00    -0.453 OA
BRANCH  20  21
ATOM     21  C   UNL     1      36.709 -21.665 -15.928  0.00  0.00    +0.208 C 
BRANCH  21  22
ATOM     22  C   UNL     1      36.101 -21.694 -17.329  0.00  0.00    +0.044 C 
ATOM     23  C   UNL     1      34.569 -21.658 -17.257  0.00  0.00    +0.004 C 
ATOM     24  C   UNL     1      36.637 -20.531 -18.176  0.00  0.00    +0.004 C 
ATOM     25  C   UNL     1      33.939 -21.632 -18.647  0.00  0.00    +0.000 C 
ATOM     26  C   UNL     1      36.003 -20.507 -19.564  0.00  0.00    +0.000 C 
ATOM     27  C   UNL     1      34.480 -20.480 -19.488  0.00  0.00    +0.000 C 
ENDBRANCH  21  22
ENDBRANCH  20  21
ENDBRANCH   6  20
TORSDOF 4
ENDMDL
MODEL 6
REMARK VINA RESULT:     -10.9      2.246      5.034
REMARK  Name = 1540
REMARK  4 active torsions:
REMARK  status: ('A' for Active; 'I' for Inactive)
REMARK    1  A    between atoms: N_5  and  C_14
REMARK    2  A    between atoms: C_6  and  O_20
REMARK    3  A    between atoms: O_20  and  C_21
REMARK    4  A    between atoms: C_21  and  C_22
REMARK                            x       y       z     vdW  Elec       q    Type
REMARK                         _______ _______ _______ _____ _____    ______ ____
ROOT
ATOM      1  N   UNL     1      35.532 -22.708 -15.694  0.00  0.00    -0.293 NA
ATOM      2  N   UNL     1      33.865 -21.147 -18.576  0.00  0.00    -0.266 NA
ATOM      3  N   UNL     1      37.011 -21.363 -17.093  0.00  0.00    -0.316 NA
ATOM      4  N   UNL     1      35.898 -20.336 -18.996  0.00  0.00    -0.296 N 
ATOM      5  N   UNL     1      37.807 -22.470 -15.193  0.00  0.00    -0.238 N 
ATOM      6  C   UNL     1      34.468 -22.437 -16.482  0.00  0.00    +0.288 C 
ATOM      7  C   UNL     1      34.667 -21.627 -17.581  0.00  0.00    +0.215 C 
ATOM      8  C   UNL     1      35.925 -21.110 -17.863  0.00  0.00    +0.196 C 
ATOM      9  C   UNL     1      36.721 -22.162 -16.043  0.00  0.00    +0.207 C 
ATOM     10  C   UNL     1      34.647 -20.379 -19.398  0.00  0.00    +0.164 C 
ATOM     11  H   UNL     1      32.901 -21.320 -18.683  0.00  0.00    +0.126 HD
ATOM     12  H   UNL     1      36.649 -19.855 -19.414  0.00  0.00    +0.150 HD
ATOM     13  H   UNL     1      38.658 -22.060 -15.470  0.00  0.00    +0.166 HD
ENDROOT
BRANCH   5  14
ATOM     14  C   UNL     1      37.910 -23.250 -14.027  0.00  0.00    +0.058 C 
ATOM     15  C   UNL     1      38.565 -24.483 -14.062  0.00  0.00    +0.015 C 
ATOM     16  C   UNL     1      37.357 -22.794 -12.826  0.00  0.00    +0.015 C 
ATOM     17  C   UNL     1      38.666 -25.256 -12.906  0.00  0.00    +0.001 C 
ATOM     18  C   UNL     1      37.459 -23.568 -11.670  0.00  0.00    +0.001 C 
ATOM     19  C   UNL     1      38.113 -24.798 -11.710  0.00  0.00    +0.000 C 
ENDBRANCH   5  14
BRANCH   6  20
ATOM     20  O   UNL     1      33.248 -22.975 -16.156  0.00  0.00    -0.453 OA
BRANCH  20  21
ATOM     21  C   UNL     1      32.882 -22.960 -14.789  0.00  0.00    +0.208 C 
BRANCH  21  22
ATOM     22  C   UNL     1      31.359 -22.917 -14.695  0.00  0.00    +0.044 C 
ATOM     23  C   UNL     1      30.757 -22.265 -15.948  0.00  0.00    +0.004 C 
ATOM     24  C   UNL     1      30.788 -24.326 -14.484  0.00  0.00    +0.004 C 
ATOM     25  C   UNL     1      29.231 -22.259 -15.902  0.00  0.00    +0.000 C 
ATOM     26  C   UNL     1      29.262 -24.315 -14.441  0.00  0.00    +0.000 C 
ATOM     27  C   UNL     1      28.668 -23.659 -15.683  0.00  0.00    +0.000 C 
ENDBRANCH  21  22
ENDBRANCH  20  21
ENDBRANCH   6  20
TORSDOF 4
ENDMDL
MODEL 7
REMARK VINA RESULT:     -10.8      2.262      6.811
REMARK  Name = 1540
REMARK  4 active torsions:
REMARK  status: ('A' for Active; 'I' for Inactive)
REMARK    1  A    between atoms: N_5  and  C_14
REMARK    2  A    between atoms: C_6  and  O_20
REMARK    3  A    between atoms: O_20  and  C_21
REMARK    4  A    between atoms: C_21  and  C_22
REMARK                            x       y       z     vdW  Elec       q    Type
REMARK                         _______ _______ _______ _____ _____    ______ ____
ROOT
ATOM      1  N   UNL     1      33.881 -22.323 -16.380  0.00  0.00    -0.293 NA
ATOM      2  N   UNL     1      36.136 -20.854 -18.885  0.00  0.00    -0.266 NA
ATOM      3  N   UNL     1      32.733 -21.232 -18.236  0.00  0.00    -0.316 NA
ATOM      4  N   UNL     1      34.234 -20.264 -19.887  0.00  0.00    -0.296 N 
ATOM      5  N   UNL     1      31.543 -22.251 -16.499  0.00  0.00    -0.238 N 
ATOM      6  C   UNL     1      35.093 -22.022 -16.895  0.00  0.00    +0.288 C 
ATOM      7  C   UNL     1      35.135 -21.324 -18.084  0.00  0.00    +0.215 C 
ATOM      8  C   UNL     1      33.963 -20.945 -18.727  0.00  0.00    +0.196 C 
ATOM      9  C   UNL     1      32.791 -21.915 -17.072  0.00  0.00    +0.207 C 
ATOM     10  C   UNL     1      35.547 -20.227 -19.952  0.00  0.00    +0.164 C 
ATOM     11  H   UNL     1      37.103 -20.949 -18.726  0.00  0.00    +0.126 HD
ATOM     12  H   UNL     1      33.588 -19.887 -20.527  0.00  0.00    +0.150 HD
ATOM     13  H   UNL     1      30.769 -21.942 -17.024  0.00  0.00    +0.166 HD
ENDROOT
BRANCH   5  14
ATOM     14  C   UNL     1      31.191 -22.939 -15.325  0.00  0.00    +0.058 C 
ATOM     15  C   UNL     1      31.544 -22.423 -14.076  0.00  0.00    +0.015 C 
ATOM     16  C   UNL     1      30.485 -24.143 -15.401  0.00  0.00    +0.015 C 
ATOM     17  C   UNL     1      31.196 -23.106 -12.911  0.00  0.00    +0.001 C 
ATOM     18  C   UNL     1      30.136 -24.825 -14.235  0.00  0.00    +0.001 C 
ATOM     19  C   UNL     1      30.491 -24.307 -12.991  0.00  0.00    +0.000 C 
ENDBRANCH   5  14
BRANCH   6  20
ATOM     20  O   UNL     1      36.219 -22.420 -16.218  0.00  0.00    -0.453 OA
BRANCH  20  21
ATOM     21  C   UNL     1      36.109 -22.558 -14.813  0.00  0.00    +0.208 C 
BRANCH  21  22
ATOM     22  C   UNL     1      37.209 -23.502 -14.332  0.00  0.00    +0.044 C 
ATOM     23  C   UNL     1      37.609 -23.177 -12.886  0.00  0.00    +0.004 C 
ATOM     24  C   UNL     1      36.763 -24.965 -14.460  0.00  0.00    +0.004 C 
ATOM     25  C   UNL     1      38.670 -24.141 -12.364  0.00  0.00    +0.000 C 
ATOM     26  C   UNL     1      37.826 -25.926 -13.935  0.00  0.00    +0.000 C 
ATOM     27  C   UNL     1      38.226 -25.594 -12.501  0.00  0.00    +0.000 C 
ENDBRANCH  21  22
ENDBRANCH  20  21
ENDBRANCH   6  20
TORSDOF 4
ENDMDL
MODEL 8
REMARK VINA RESULT:     -10.8      2.059      6.401
REMARK  Name = 1540
REMARK  4 active torsions:
REMARK  status: ('A' for Active; 'I' for Inactive)
REMARK    1  A    between atoms: N_5  and  C_14
REMARK    2  A    between atoms: C_6  and  O_20
REMARK    3  A    between atoms: O_20  and  C_21
REMARK    4  A    between atoms: C_21  and  C_22
REMARK                            x       y       z     vdW  Elec       q    Type
REMARK                         _______ _______ _______ _____ _____    ______ ____
ROOT
ATOM      1  N   UNL     1      35.574 -23.075 -15.178  0.00  0.00    -0.293 NA
ATOM      2  N   UNL     1      36.641 -24.832 -12.129  0.00  0.00    -0.266 NA
ATOM      3  N   UNL     1      37.909 -22.703 -14.579  0.00  0.00    -0.316 NA
ATOM      4  N   UNL     1      38.604 -23.869 -12.562  0.00  0.00    -0.296 N 
ATOM      5  N   UNL     1      36.965 -21.706 -16.473  0.00  0.00    -0.238 N 
ATOM      6  C   UNL     1      35.382 -23.881 -14.111  0.00  0.00    +0.288 C 
ATOM      7  C   UNL     1      36.453 -24.104 -13.269  0.00  0.00    +0.215 C 
ATOM      8  C   UNL     1      37.686 -23.515 -13.518  0.00  0.00    +0.196 C 
ATOM      9  C   UNL     1      36.807 -22.543 -15.345  0.00  0.00    +0.207 C 
ATOM     10  C   UNL     1      37.944 -24.660 -11.744  0.00  0.00    +0.164 C 
ATOM     11  H   UNL     1      35.964 -25.380 -11.669  0.00  0.00    +0.126 HD
ATOM     12  H   UNL     1      39.547 -23.591 -12.501  0.00  0.00    +0.150 HD
ATOM     13  H   UNL     1      37.871 -21.334 -16.569  0.00  0.00    +0.166 HD
ENDROOT
BRANCH   5  14
ATOM     14  C   UNL     1      36.078 -21.301 -17.486  0.00  0.00    +0.058 C 
ATOM     15  C   UNL     1      34.730 -21.661 -17.424  0.00  0.00    +0.015 C 
ATOM     16  C   UNL     1      36.541 -20.536 -18.560  0.00  0.00    +0.015 C 
ATOM     17  C   UNL     1      33.850 -21.259 -18.430  0.00  0.00    +0.001 C 
ATOM     18  C   UNL     1      35.660 -20.134 -19.565  0.00  0.00    +0.001 C 
ATOM     19  C   UNL     1      34.316 -20.495 -19.500  0.00  0.00    +0.000 C 
ENDBRANCH   5  14
BRANCH   6  20
ATOM     20  O   UNL     1      34.143 -24.437 -13.913  0.00  0.00    -0.453 OA
BRANCH  20  21
ATOM     21  C   UNL     1      33.129 -23.585 -13.413  0.00  0.00    +0.208 C 
BRANCH  21  22
ATOM     22  C   UNL     1      31.895 -23.728 -14.302  0.00  0.00    +0.044 C 
ATOM     23  C   UNL     1      30.711 -24.286 -13.500  0.00  0.00    +0.004 C 
ATOM     24  C   UNL     1      31.533 -22.383 -14.948  0.00  0.00    +0.004 C 
ATOM     25  C   UNL     1      29.450 -24.388 -14.354  0.00  0.00    +0.000 C 
ATOM     26  C   UNL     1      30.270 -22.489 -15.799  0.00  0.00    +0.000 C 
ATOM     27  C   UNL     1      29.098 -23.052 -15.001  0.00  0.00    +0.000 C 
ENDBRANCH  21  22
ENDBRANCH  20  21
ENDBRANCH   6  20
TORSDOF 4
ENDMDL
MODEL 9
REMARK VINA RESULT:     -10.7      1.804      5.331
REMARK  Name = 1540
REMARK  4 active torsions:
REMARK  status: ('A' for Active; 'I' for Inactive)
REMARK    1  A    between atoms: N_5  and  C_14
REMARK    2  A    between atoms: C_6  and  O_20
REMARK    3  A    between atoms: O_20  and  C_21
REMARK    4  A    between atoms: C_21  and  C_22
REMARK                            x       y       z     vdW  Elec       q    Type
REMARK                         _______ _______ _______ _____ _____    ______ ____
ROOT
ATOM      1  N   UNL     1      35.418 -22.596 -15.187  0.00  0.00    -0.293 NA
ATOM      2  N   UNL     1      39.073 -23.005 -15.181  0.00  0.00    -0.266 NA
ATOM      3  N   UNL     1      36.203 -24.526 -13.918  0.00  0.00    -0.316 NA
ATOM      4  N   UNL     1      38.621 -24.787 -13.920  0.00  0.00    -0.296 N 
ATOM      5  N   UNL     1      33.924 -24.026 -14.089  0.00  0.00    -0.238 N 
ATOM      6  C   UNL     1      36.680 -22.248 -15.522  0.00  0.00    +0.288 C 
ATOM      7  C   UNL     1      37.713 -23.036 -15.057  0.00  0.00    +0.215 C 
ATOM      8  C   UNL     1      37.457 -24.151 -14.270  0.00  0.00    +0.196 C 
ATOM      9  C   UNL     1      35.260 -23.698 -14.416  0.00  0.00    +0.207 C 
ATOM     10  C   UNL     1      39.572 -24.073 -14.483  0.00  0.00    +0.164 C 
ATOM     11  H   UNL     1      39.598 -22.338 -15.680  0.00  0.00    +0.126 HD
ATOM     12  H   UNL     1      38.721 -25.597 -13.370  0.00  0.00    +0.150 HD
ATOM     13  H   UNL     1      33.839 -24.831 -13.529  0.00  0.00    +0.166 HD
ENDROOT
BRANCH   5  14
ATOM     14  C   UNL     1      32.692 -23.428 -14.410  0.00  0.00    +0.058 C 
ATOM     15  C   UNL     1      32.471 -22.922 -15.692  0.00  0.00    +0.015 C 
ATOM     16  C   UNL     1      31.684 -23.338 -13.446  0.00  0.00    +0.015 C 
ATOM     17  C   UNL     1      31.249 -22.328 -16.009  0.00  0.00    +0.001 C 
ATOM     18  C   UNL     1      30.462 -22.744 -13.765  0.00  0.00    +0.001 C 
ATOM     19  C   UNL     1      30.245 -22.239 -15.045  0.00  0.00    +0.000 C 
ENDBRANCH   5  14
BRANCH   6  20
ATOM     20  O   UNL     1      36.876 -21.136 -16.303  0.00  0.00    -0.453 OA
BRANCH  20  21
ATOM     21  C   UNL     1      36.917 -21.334 -17.704  0.00  0.00    +0.208 C 
BRANCH  21  22
ATOM     22  C   UNL     1      35.879 -20.420 -18.352  0.00  0.00    +0.044 C 
ATOM     23  C   UNL     1      36.429 -19.806 -19.646  0.00  0.00    +0.004 C 
ATOM     24  C   UNL     1      34.575 -21.185 -18.620  0.00  0.00    +0.004 C 
ATOM     25  C   UNL     1      35.390 -18.930 -20.341  0.00  0.00    +0.000 C 
ATOM     26  C   UNL     1      33.540 -20.306 -19.317  0.00  0.00    +0.000 C 
ATOM     27  C   UNL     1      34.093 -19.691 -20.599  0.00  0.00    +0.000 C 
ENDBRANCH  21  22
ENDBRANCH  20  21
ENDBRANCH   6  20
TORSDOF 4
ENDMDL
