MODEL 1
REMARK VINA RESULT:     -11.9      0.000      0.000
REMARK  Name = 17754438
REMARK  6 active torsions:
REMARK  status: ('A' for Active; 'I' for Inactive)
REMARK    1  A    between atoms: N_1  and  C_19
REMARK    2  A    between atoms: C_7  and  C_12
REMARK    3  A    between atoms: N_10  and  C_15
REMARK    4  A    between atoms: C_15  and  C_16
REMARK    5  A    between atoms: C_16  and  O_17
REMARK    6  A    between atoms: C_19  and  C_21
REMARK                            x       y       z     vdW  Elec       q    Type
REMARK                         _______ _______ _______ _____ _____    ______ ____
ROOT
ATOM      1  N   UNL     1      34.894 -20.053 -19.731  0.00  0.00    -0.163 N 
ATOM      2  N   UNL     1      35.712 -21.227 -17.750  0.00  0.00    -0.378 NA
ATOM      3  N   UNL     1      33.703 -19.896 -20.343  0.00  0.00    -0.033 NA
ATOM      4  N   UNL     1      32.908 -21.941 -17.617  0.00  0.00    -0.208 NA
ATOM      5  N   UNL     1      32.793 -20.576 -19.646  0.00  0.00    -0.086 NA
ATOM      6  C   UNL     1      34.775 -20.836 -18.626  0.00  0.00    +0.267 C 
ATOM      7  C   UNL     1      35.177 -22.008 -16.784  0.00  0.00    +0.140 C 
ATOM      8  C   UNL     1      33.432 -21.158 -18.590  0.00  0.00    +0.098 C 
ATOM      9  C   UNL     1      33.834 -22.350 -16.719  0.00  0.00    +0.195 C 
ENDROOT
BRANCH   7  12
ATOM     10  N   UNL     1      36.966 -23.694 -14.192  0.00  0.00    -0.208 N 
ATOM     11  N   UNL     1      37.899 -22.752 -14.414  0.00  0.00    -0.176 NA
ATOM     12  C   UNL     1      36.094 -22.485 -15.789  0.00  0.00    +0.064 C 
ATOM     13  C   UNL     1      35.866 -23.579 -14.990  0.00  0.00    +0.088 C 
ATOM     14  C   UNL     1      37.360 -22.016 -15.390  0.00  0.00    +0.121 C 
BRANCH  10  15
ATOM     15  C   UNL     1      37.191 -24.702 -13.184  0.00  0.00    +0.148 C 
BRANCH  15  16
ATOM     16  C   UNL     1      38.467 -25.497 -13.428  0.00  0.00    +0.161 C 
BRANCH  16  17
ATOM     17  O   UNL     1      38.666 -25.667 -14.826  0.00  0.00    -0.380 OA
ATOM     18  H   UNL     1      39.220 -26.447 -14.981  0.00  0.00    +0.211 HD
ENDBRANCH  16  17
ENDBRANCH  15  16
ENDBRANCH  10  15
ENDBRANCH   7  12
BRANCH   1  19
ATOM     19  C   UNL     1      36.101 -19.416 -20.268  0.00  0.00    +0.145 C 
BRANCH  19  21
ATOM     20  N   UNL     1      34.925 -14.553 -22.912  0.00  0.00    -0.244 NA
ATOM     21  C   UNL     1      35.791 -18.130 -20.956  0.00  0.00    -0.000 C 
ATOM     22  C   UNL     1      35.474 -16.997 -20.212  0.00  0.00    -0.001 C 
ATOM     23  C   UNL     1      35.181 -15.782 -20.856  0.00  0.00    +0.017 C 
ATOM     24  C   UNL     1      35.814 -18.055 -22.343  0.00  0.00    -0.001 C 
ATOM     25  C   UNL     1      35.203 -15.700 -22.263  0.00  0.00    +0.081 C 
ATOM     26  C   UNL     1      35.522 -16.848 -22.983  0.00  0.00    +0.019 C 
ATOM     27  C   UNL     1      34.859 -14.627 -20.131  0.00  0.00    +0.003 C 
ATOM     28  C   UNL     1      34.573 -13.443 -20.797  0.00  0.00    +0.021 C 
ATOM     29  C   UNL     1      34.620 -13.460 -22.175  0.00  0.00    +0.099 C 
ENDBRANCH  19  21
ENDBRANCH   1  19
TORSDOF 6
ENDMDL
MODEL 2
REMARK VINA RESULT:     -11.7      1.730      2.393
REMARK  Name = 17754438
REMARK  6 active torsions:
REMARK  status: ('A' for Active; 'I' for Inactive)
REMARK    1  A    between atoms: N_1  and  C_19
REMARK    2  A    between atoms: C_7  and  C_12
REMARK    3  A    between atoms: N_10  and  C_15
REMARK    4  A    between atoms: C_15  and  C_16
REMARK    5  A    between atoms: C_16  and  O_17
REMARK    6  A    between atoms: C_19  and  C_21
REMARK                            x       y       z     vdW  Elec       q    Type
REMARK                         _______ _______ _______ _____ _____    ______ ____
ROOT
ATOM      1  N   UNL     1      34.941 -20.621 -19.146  0.00  0.00    -0.163 N 
ATOM      2  N   UNL     1      35.763 -21.649 -17.087  0.00  0.00    -0.378 NA
ATOM      3  N   UNL     1      33.754 -20.527 -19.777  0.00  0.00    -0.033 NA
ATOM      4  N   UNL     1      32.971 -22.404 -16.929  0.00  0.00    -0.208 NA
ATOM      5  N   UNL     1      32.850 -21.176 -19.044  0.00  0.00    -0.086 NA
ATOM      6  C   UNL     1      34.827 -21.333 -17.994  0.00  0.00    +0.267 C 
ATOM      7  C   UNL     1      35.233 -22.375 -16.076  0.00  0.00    +0.140 C 
ATOM      8  C   UNL     1      33.489 -21.676 -17.948  0.00  0.00    +0.098 C 
ATOM      9  C   UNL     1      33.895 -22.737 -16.000  0.00  0.00    +0.195 C 
ENDROOT
BRANCH   7  12
ATOM     10  N   UNL     1      36.936 -23.626 -13.196  0.00  0.00    -0.208 N 
ATOM     11  N   UNL     1      38.028 -23.119 -13.793  0.00  0.00    -0.176 NA
ATOM     12  C   UNL     1      36.149 -22.770 -15.045  0.00  0.00    +0.064 C 
ATOM     13  C   UNL     1      35.785 -23.443 -13.904  0.00  0.00    +0.088 C 
ATOM     14  C   UNL     1      37.541 -22.597 -14.922  0.00  0.00    +0.121 C 
BRANCH  10  15
ATOM     15  C   UNL     1      37.060 -24.291 -11.920  0.00  0.00    +0.148 C 
BRANCH  15  16
ATOM     16  C   UNL     1      36.202 -23.646 -10.840  0.00  0.00    +0.161 C 
BRANCH  16  17
ATOM     17  O   UNL     1      35.576 -24.656 -10.059  0.00  0.00    -0.380 OA
ATOM     18  H   UNL     1      35.557 -24.381  -9.130  0.00  0.00    +0.211 HD
ENDBRANCH  16  17
ENDBRANCH  15  16
ENDBRANCH  10  15
ENDBRANCH   7  12
BRANCH   1  19
ATOM     19  C   UNL     1      36.142 -19.999 -19.714  0.00  0.00    +0.145 C 
BRANCH  19  21
ATOM     20  N   UNL     1      34.871 -15.699 -23.167  0.00  0.00    -0.244 NA
ATOM     21  C   UNL     1      35.803 -18.873 -20.631  0.00  0.00    -0.000 C 
ATOM     22  C   UNL     1      35.279 -19.131 -21.894  0.00  0.00    -0.001 C 
ATOM     23  C   UNL     1      34.959 -18.072 -22.761  0.00  0.00    +0.017 C 
ATOM     24  C   UNL     1      36.011 -17.559 -20.230  0.00  0.00    -0.001 C 
ATOM     25  C   UNL     1      35.167 -16.736 -22.360  0.00  0.00    +0.081 C 
ATOM     26  C   UNL     1      35.692 -16.506 -21.092  0.00  0.00    +0.019 C 
ATOM     27  C   UNL     1      34.430 -18.305 -24.038  0.00  0.00    +0.003 C 
ATOM     28  C   UNL     1      34.124 -17.238 -24.871  0.00  0.00    +0.021 C 
ATOM     29  C   UNL     1      34.362 -15.966 -24.391  0.00  0.00    +0.099 C 
ENDBRANCH  19  21
ENDBRANCH   1  19
TORSDOF 6
ENDMDL
MODEL 3
REMARK VINA RESULT:     -11.7      2.401      4.070
REMARK  Name = 17754438
REMARK  6 active torsions:
REMARK  status: ('A' for Active; 'I' for Inactive)
REMARK    1  A    between atoms: N_1  and  C_19
REMARK    2  A    between atoms: C_7  and  C_12
REMARK    3  A    between atoms: N_10  and  C_15
REMARK    4  A    between atoms: C_15  and  C_16
REMARK    5  A    between atoms: C_16  and  O_17
REMARK    6  A    between atoms: C_19  and  C_21
REMARK                            x       y       z     vdW  Elec       q    Type
REMARK                         _______ _______ _______ _____ _____    ______ ____
ROOT
ATOM      1  N   UNL     1      33.413 -22.821 -16.773  0.00  0.00    -0.163 N 
ATOM      2  N   UNL     1      35.048 -23.598 -15.133  0.00  0.00    -0.378 NA
ATOM      3  N   UNL     1      32.162 -22.320 -16.734  0.00  0.00    -0.033 NA
ATOM      4  N   UNL     1      32.885 -22.860 -13.353  0.00  0.00    -0.208 NA
ATOM      5  N   UNL     1      31.785 -22.263 -15.457  0.00  0.00    -0.086 NA
ATOM      6  C   UNL     1      33.867 -23.096 -15.522  0.00  0.00    +0.267 C 
ATOM      7  C   UNL     1      35.103 -23.719 -13.786  0.00  0.00    +0.140 C 
ATOM      8  C   UNL     1      32.817 -22.733 -14.700  0.00  0.00    +0.098 C 
ATOM      9  C   UNL     1      34.067 -23.365 -12.933  0.00  0.00    +0.195 C 
ENDROOT
BRANCH   7  12
ATOM     10  N   UNL     1      38.379 -24.988 -13.142  0.00  0.00    -0.208 N 
ATOM     11  N   UNL     1      37.943 -25.083 -11.875  0.00  0.00    -0.176 NA
ATOM     12  C   UNL     1      36.327 -24.249 -13.258  0.00  0.00    +0.064 C 
ATOM     13  C   UNL     1      37.450 -24.494 -14.010  0.00  0.00    +0.088 C 
ATOM     14  C   UNL     1      36.688 -24.631 -11.952  0.00  0.00    +0.121 C 
BRANCH  10  15
ATOM     15  C   UNL     1      39.727 -25.391 -13.468  0.00  0.00    +0.148 C 
BRANCH  15  16
ATOM     16  C   UNL     1      40.331 -24.556 -14.589  0.00  0.00    +0.161 C 
BRANCH  16  17
ATOM     17  O   UNL     1      40.583 -25.382 -15.719  0.00  0.00    -0.380 OA
ATOM     18  H   UNL     1      41.533 -25.565 -15.781  0.00  0.00    +0.211 HD
ENDBRANCH  16  17
ENDBRANCH  15  16
ENDBRANCH  10  15
ENDBRANCH   7  12
BRANCH   1  19
ATOM     19  C   UNL     1      34.105 -23.005 -18.053  0.00  0.00    +0.145 C 
BRANCH  19  21
ATOM     20  N   UNL     1      34.822 -18.088 -20.763  0.00  0.00    -0.244 NA
ATOM     21  C   UNL     1      34.304 -21.711 -18.767  0.00  0.00    -0.000 C 
ATOM     22  C   UNL     1      35.589 -21.220 -18.982  0.00  0.00    -0.001 C 
ATOM     23  C   UNL     1      35.780 -20.000 -19.654  0.00  0.00    +0.017 C 
ATOM     24  C   UNL     1      33.208 -20.986 -19.220  0.00  0.00    -0.001 C 
ATOM     25  C   UNL     1      34.673 -19.260 -20.117  0.00  0.00    +0.081 C 
ATOM     26  C   UNL     1      33.399 -19.774 -19.888  0.00  0.00    +0.019 C 
ATOM     27  C   UNL     1      37.063 -19.484 -19.884  0.00  0.00    +0.003 C 
ATOM     28  C   UNL     1      37.219 -18.276 -20.550  0.00  0.00    +0.021 C 
ATOM     29  C   UNL     1      36.076 -17.625 -20.965  0.00  0.00    +0.099 C 
ENDBRANCH  19  21
ENDBRANCH   1  19
TORSDOF 6
ENDMDL
MODEL 4
REMARK VINA RESULT:     -11.4      4.642     10.499
REMARK  Name = 17754438
REMARK  6 active torsions:
REMARK  status: ('A' for Active; 'I' for Inactive)
REMARK    1  A    between atoms: N_1  and  C_19
REMARK    2  A    between atoms: C_7  and  C_12
REMARK    3  A    between atoms: N_10  and  C_15
REMARK    4  A    between atoms: C_15  and  C_16
REMARK    5  A    between atoms: C_16  and  O_17
REMARK    6  A    between atoms: C_19  and  C_21
REMARK                            x       y       z     vdW  Elec       q    Type
REMARK                         _______ _______ _______ _____ _____    ______ ____
ROOT
ATOM      1  N   UNL     1      35.475 -17.561 -22.833  0.00  0.00    -0.163 N 
ATOM      2  N   UNL     1      34.849 -15.215 -23.106  0.00  0.00    -0.378 NA
ATOM      3  N   UNL     1      35.202 -18.719 -23.468  0.00  0.00    -0.033 NA
ATOM      4  N   UNL     1      33.380 -16.372 -25.318  0.00  0.00    -0.208 NA
ATOM      5  N   UNL     1      34.384 -18.444 -24.484  0.00  0.00    -0.086 NA
ATOM      6  C   UNL     1      34.838 -16.517 -23.426  0.00  0.00    +0.267 C 
ATOM      7  C   UNL     1      34.077 -14.500 -23.956  0.00  0.00    +0.140 C 
ATOM      8  C   UNL     1      34.150 -17.100 -24.474  0.00  0.00    +0.098 C 
ATOM      9  C   UNL     1      33.373 -15.054 -25.016  0.00  0.00    +0.195 C 
ENDROOT
BRANCH   7  12
ATOM     10  N   UNL     1      34.024 -10.929 -24.031  0.00  0.00    -0.208 N 
ATOM     11  N   UNL     1      33.832 -11.043 -22.705  0.00  0.00    -0.176 NA
ATOM     12  C   UNL     1      34.015 -13.089 -23.704  0.00  0.00    +0.064 C 
ATOM     13  C   UNL     1      34.140 -12.126 -24.675  0.00  0.00    +0.088 C 
ATOM     14  C   UNL     1      33.827 -12.364 -22.512  0.00  0.00    +0.121 C 
BRANCH  10  15
ATOM     15  C   UNL     1      34.087  -9.620 -24.636  0.00  0.00    +0.148 C 
BRANCH  15  16
ATOM     16  C   UNL     1      35.505  -9.070 -24.691  0.00  0.00    +0.161 C 
BRANCH  16  17
ATOM     17  O   UNL     1      36.018  -8.933 -23.372  0.00  0.00    -0.380 OA
ATOM     18  H   UNL     1      35.319  -9.135 -22.731  0.00  0.00    +0.211 HD
ENDBRANCH  16  17
ENDBRANCH  15  16
ENDBRANCH  10  15
ENDBRANCH   7  12
BRANCH   1  19
ATOM     19  C   UNL     1      36.358 -17.541 -21.663  0.00  0.00    +0.145 C 
BRANCH  19  21
ATOM     20  N   UNL     1      35.222 -21.748 -18.053  0.00  0.00    -0.244 NA
ATOM     21  C   UNL     1      36.049 -18.649 -20.714  0.00  0.00    -0.000 C 
ATOM     22  C   UNL     1      34.727 -18.963 -20.411  0.00  0.00    -0.001 C 
ATOM     23  C   UNL     1      34.431 -20.006 -19.517  0.00  0.00    +0.017 C 
ATOM     24  C   UNL     1      37.078 -19.371 -20.123  0.00  0.00    -0.001 C 
ATOM     25  C   UNL     1      35.471 -20.744 -18.914  0.00  0.00    +0.081 C 
ATOM     26  C   UNL     1      36.784 -20.408 -19.234  0.00  0.00    +0.019 C 
ATOM     27  C   UNL     1      33.109 -20.343 -19.196  0.00  0.00    +0.003 C 
ATOM     28  C   UNL     1      32.850 -21.378 -18.308  0.00  0.00    +0.021 C 
ATOM     29  C   UNL     1      33.932 -22.043 -17.769  0.00  0.00    +0.099 C 
ENDBRANCH  19  21
ENDBRANCH   1  19
TORSDOF 6
ENDMDL
MODEL 5
REMARK VINA RESULT:     -10.9      4.380      6.804
REMARK  Name = 17754438
REMARK  6 active torsions:
REMARK  status: ('A' for Active; 'I' for Inactive)
REMARK    1  A    between atoms: N_1  and  C_19
REMARK    2  A    between atoms: C_7  and  C_12
REMARK    3  A    between atoms: N_10  and  C_15
REMARK    4  A    between atoms: C_15  and  C_16
REMARK    5  A    between atoms: C_16  and  O_17
REMARK    6  A    between atoms: C_19  and  C_21
REMARK                            x       y       z     vdW  Elec       q    Type
REMARK                         _______ _______ _______ _____ _____    ______ ____
ROOT
ATOM      1  N   UNL     1      34.287 -22.752 -16.666  0.00  0.00    -0.163 N 
ATOM      2  N   UNL     1      31.904 -22.778 -16.125  0.00  0.00    -0.378 NA
ATOM      3  N   UNL     1      35.438 -22.626 -15.976  0.00  0.00    -0.033 NA
ATOM      4  N   UNL     1      33.004 -22.413 -13.470  0.00  0.00    -0.208 NA
ATOM      5  N   UNL     1      35.127 -22.481 -14.688  0.00  0.00    -0.086 NA
ATOM      6  C   UNL     1      33.212 -22.692 -15.838  0.00  0.00    +0.267 C 
ATOM      7  C   UNL     1      31.153 -22.670 -15.005  0.00  0.00    +0.140 C 
ATOM      8  C   UNL     1      33.767 -22.519 -14.584  0.00  0.00    +0.098 C 
ATOM      9  C   UNL     1      31.680 -22.495 -13.733  0.00  0.00    +0.195 C 
ENDROOT
BRANCH   7  12
ATOM     10  N   UNL     1      27.659 -22.154 -15.535  0.00  0.00    -0.208 N 
ATOM     11  N   UNL     1      27.587 -23.493 -15.435  0.00  0.00    -0.176 NA
ATOM     12  C   UNL     1      29.734 -22.747 -15.197  0.00  0.00    +0.064 C 
ATOM     13  C   UNL     1      28.922 -21.658 -15.400  0.00  0.00    +0.088 C 
ATOM     14  C   UNL     1      28.858 -23.849 -15.228  0.00  0.00    +0.121 C 
BRANCH  10  15
ATOM     15  C   UNL     1      26.458 -21.389 -15.769  0.00  0.00    +0.148 C 
BRANCH  15  16
ATOM     16  C   UNL     1      26.308 -20.967 -17.225  0.00  0.00    +0.161 C 
BRANCH  16  17
ATOM     17  O   UNL     1      26.095 -19.564 -17.298  0.00  0.00    -0.380 OA
ATOM     18  H   UNL     1      25.464 -19.296 -16.613  0.00  0.00    +0.211 HD
ENDBRANCH  16  17
ENDBRANCH  15  16
ENDBRANCH  10  15
ENDBRANCH   7  12
BRANCH   1  19
ATOM     19  C   UNL     1      34.304 -22.929 -18.122  0.00  0.00    +0.145 C 
BRANCH  19  21
ATOM     20  N   UNL     1      34.783 -17.987 -20.836  0.00  0.00    -0.244 NA
ATOM     21  C   UNL     1      34.440 -21.628 -18.838  0.00  0.00    -0.000 C 
ATOM     22  C   UNL     1      35.702 -21.113 -19.119  0.00  0.00    -0.001 C 
ATOM     23  C   UNL     1      35.835 -19.886 -19.793  0.00  0.00    +0.017 C 
ATOM     24  C   UNL     1      33.308 -20.922 -19.226  0.00  0.00    -0.001 C 
ATOM     25  C   UNL     1      34.691 -19.165 -20.190  0.00  0.00    +0.081 C 
ATOM     26  C   UNL     1      33.441 -19.703 -19.895  0.00  0.00    +0.019 C 
ATOM     27  C   UNL     1      37.093 -19.346 -20.089  0.00  0.00    +0.003 C 
ATOM     28  C   UNL     1      37.191 -18.132 -20.755  0.00  0.00    +0.021 C 
ATOM     29  C   UNL     1      36.016 -17.499 -21.103  0.00  0.00    +0.099 C 
ENDBRANCH  19  21
ENDBRANCH   1  19
TORSDOF 6
ENDMDL
MODEL 6
REMARK VINA RESULT:     -10.6      3.382      6.331
REMARK  Name = 17754438
REMARK  6 active torsions:
REMARK  status: ('A' for Active; 'I' for Inactive)
REMARK    1  A    between atoms: N_1  and  C_19
REMARK    2  A    between atoms: C_7  and  C_12
REMARK    3  A    between atoms: N_10  and  C_15
REMARK    4  A    between atoms: C_15  and  C_16
REMARK    5  A    between atoms: C_16  and  O_17
REMARK    6  A    between atoms: C_19  and  C_21
REMARK                            x       y       z     vdW  Elec       q    Type
REMARK                         _______ _______ _______ _____ _____    ______ ____
ROOT
ATOM      1  N   UNL     1      34.771 -14.883 -23.787  0.00  0.00    -0.163 N 
ATOM      2  N   UNL     1      35.285 -16.724 -22.264  0.00  0.00    -0.378 NA
ATOM      3  N   UNL     1      34.213 -14.761 -25.008  0.00  0.00    -0.033 NA
ATOM      4  N   UNL     1      34.105 -18.214 -24.450  0.00  0.00    -0.208 NA
ATOM      5  N   UNL     1      33.885 -15.982 -25.431  0.00  0.00    -0.086 NA
ATOM      6  C   UNL     1      34.814 -16.185 -23.398  0.00  0.00    +0.267 C 
ATOM      7  C   UNL     1      35.139 -18.069 -22.269  0.00  0.00    +0.140 C 
ATOM      8  C   UNL     1      34.246 -16.866 -24.458  0.00  0.00    +0.098 C 
ATOM      9  C   UNL     1      34.574 -18.783 -23.316  0.00  0.00    +0.195 C 
ENDROOT
BRANCH   7  12
ATOM     10  N   UNL     1      35.697 -20.113 -19.393  0.00  0.00    -0.208 N 
ATOM     11  N   UNL     1      36.868 -19.458 -19.326  0.00  0.00    -0.176 NA
ATOM     12  C   UNL     1      35.612 -18.751 -21.099  0.00  0.00    +0.064 C 
ATOM     13  C   UNL     1      34.908 -19.727 -20.437  0.00  0.00    +0.088 C 
ATOM     14  C   UNL     1      36.811 -18.627 -20.371  0.00  0.00    +0.121 C 
BRANCH  10  15
ATOM     15  C   UNL     1      35.383 -21.122 -18.410  0.00  0.00    +0.148 C 
BRANCH  15  16
ATOM     16  C   UNL     1      33.982 -21.692 -18.585  0.00  0.00    +0.161 C 
BRANCH  16  17
ATOM     17  O   UNL     1      34.064 -23.019 -19.089  0.00  0.00    -0.380 OA
ATOM     18  H   UNL     1      34.987 -23.230 -19.298  0.00  0.00    +0.211 HD
ENDBRANCH  16  17
ENDBRANCH  15  16
ENDBRANCH  10  15
ENDBRANCH   7  12
BRANCH   1  19
ATOM     19  C   UNL     1      35.238 -13.700 -23.056  0.00  0.00    +0.145 C 
BRANCH  19  21
ATOM     20  N   UNL     1      31.364 -11.840 -19.375  0.00  0.00    -0.244 NA
ATOM     21  C   UNL     1      34.214 -13.203 -22.093  0.00  0.00    -0.000 C 
ATOM     22  C   UNL     1      33.510 -12.033 -22.362  0.00  0.00    -0.001 C 
ATOM     23  C   UNL     1      32.544 -11.560 -21.456  0.00  0.00    +0.017 C 
ATOM     24  C   UNL     1      33.960 -13.903 -20.920  0.00  0.00    -0.001 C 
ATOM     25  C   UNL     1      32.281 -12.266 -20.264  0.00  0.00    +0.081 C 
ATOM     26  C   UNL     1      33.000 -13.433 -20.020  0.00  0.00    +0.019 C 
ATOM     27  C   UNL     1      31.821 -10.386 -21.703  0.00  0.00    +0.003 C 
ATOM     28  C   UNL     1      30.874  -9.945 -20.788  0.00  0.00    +0.021 C 
ATOM     29  C   UNL     1      30.686 -10.702 -19.650  0.00  0.00    +0.099 C 
ENDBRANCH  19  21
ENDBRANCH   1  19
TORSDOF 6
ENDMDL
MODEL 7
REMARK VINA RESULT:     -10.6      3.432      9.496
REMARK  Name = 17754438
REMARK  6 active torsions:
REMARK  status: ('A' for Active; 'I' for Inactive)
REMARK    1  A    between atoms: N_1  and  C_19
REMARK    2  A    between atoms: C_7  and  C_12
REMARK    3  A    between atoms: N_10  and  C_15
REMARK    4  A    between atoms: C_15  and  C_16
REMARK    5  A    between atoms: C_16  and  O_17
REMARK    6  A    between atoms: C_19  and  C_21
REMARK                            x       y       z     vdW  Elec       q    Type
REMARK                         _______ _______ _______ _____ _____    ______ ____
ROOT
ATOM      1  N   UNL     1      35.811 -21.625 -17.083  0.00  0.00    -0.163 N 
ATOM      2  N   UNL     1      35.604 -20.035 -18.928  0.00  0.00    -0.378 NA
ATOM      3  N   UNL     1      35.051 -22.607 -16.559  0.00  0.00    -0.033 NA
ATOM      4  N   UNL     1      33.074 -21.422 -19.192  0.00  0.00    -0.208 NA
ATOM      5  N   UNL     1      33.924 -22.673 -17.267  0.00  0.00    -0.086 NA
ATOM      6  C   UNL     1      35.189 -21.039 -18.140  0.00  0.00    +0.267 C 
ATOM      7  C   UNL     1      34.680 -19.748 -19.874  0.00  0.00    +0.140 C 
ATOM      8  C   UNL     1      33.991 -21.720 -18.240  0.00  0.00    +0.098 C 
ATOM      9  C   UNL     1      33.468 -20.412 -20.001  0.00  0.00    +0.195 C 
ENDROOT
BRANCH   7  12
ATOM     10  N   UNL     1      35.094 -17.439 -22.568  0.00  0.00    -0.208 N 
ATOM     11  N   UNL     1      35.917 -16.805 -21.715  0.00  0.00    -0.176 NA
ATOM     12  C   UNL     1      35.021 -18.685 -20.775  0.00  0.00    +0.064 C 
ATOM     13  C   UNL     1      34.532 -18.571 -22.054  0.00  0.00    +0.088 C 
ATOM     14  C   UNL     1      35.868 -17.572 -20.622  0.00  0.00    +0.121 C 
BRANCH  10  15
ATOM     15  C   UNL     1      34.878 -16.900 -23.889  0.00  0.00    +0.148 C 
BRANCH  15  16
ATOM     16  C   UNL     1      33.882 -17.719 -24.699  0.00  0.00    +0.161 C 
BRANCH  16  17
ATOM     17  O   UNL     1      33.161 -16.865 -25.577  0.00  0.00    -0.380 OA
ATOM     18  H   UNL     1      33.320 -17.136 -26.494  0.00  0.00    +0.211 HD
ENDBRANCH  16  17
ENDBRANCH  15  16
ENDBRANCH  10  15
ENDBRANCH   7  12
BRANCH   1  19
ATOM     19  C   UNL     1      37.125 -21.310 -16.513  0.00  0.00    +0.145 C 
BRANCH  19  21
ATOM     20  N   UNL     1      38.385 -24.628 -12.106  0.00  0.00    -0.244 NA
ATOM     21  C   UNL     1      37.448 -22.182 -15.347  0.00  0.00    -0.000 C 
ATOM     22  C   UNL     1      36.608 -22.206 -14.237  0.00  0.00    -0.001 C 
ATOM     23  C   UNL     1      36.910 -23.027 -13.136  0.00  0.00    +0.017 C 
ATOM     24  C   UNL     1      38.590 -22.973 -15.362  0.00  0.00    -0.001 C 
ATOM     25  C   UNL     1      38.067 -23.832 -13.144  0.00  0.00    +0.081 C 
ATOM     26  C   UNL     1      38.889 -23.788 -14.267  0.00  0.00    +0.019 C 
ATOM     27  C   UNL     1      36.082 -23.070 -12.007  0.00  0.00    +0.003 C 
ATOM     28  C   UNL     1      36.407 -23.890 -10.935  0.00  0.00    +0.021 C 
ATOM     29  C   UNL     1      37.559 -24.642 -11.034  0.00  0.00    +0.099 C 
ENDBRANCH  19  21
ENDBRANCH   1  19
TORSDOF 6
ENDMDL
MODEL 8
REMARK VINA RESULT:     -10.5      3.412      9.585
REMARK  Name = 17754438
REMARK  6 active torsions:
REMARK  status: ('A' for Active; 'I' for Inactive)
REMARK    1  A    between atoms: N_1  and  C_19
REMARK    2  A    between atoms: C_7  and  C_12
REMARK    3  A    between atoms: N_10  and  C_15
REMARK    4  A    between atoms: C_15  and  C_16
REMARK    5  A    between atoms: C_16  and  O_17
REMARK    6  A    between atoms: C_19  and  C_21
REMARK                            x       y       z     vdW  Elec       q    Type
REMARK                         _______ _______ _______ _____ _____    ______ ____
ROOT
ATOM      1  N   UNL     1      35.433 -21.430 -17.584  0.00  0.00    -0.163 N 
ATOM      2  N   UNL     1      35.392 -19.716 -19.325  0.00  0.00    -0.378 NA
ATOM      3  N   UNL     1      34.596 -22.394 -17.151  0.00  0.00    -0.033 NA
ATOM      4  N   UNL     1      32.793 -20.919 -19.763  0.00  0.00    -0.208 NA
ATOM      5  N   UNL     1      33.493 -22.342 -17.898  0.00  0.00    -0.086 NA
ATOM      6  C   UNL     1      34.887 -20.739 -18.619  0.00  0.00    +0.267 C 
ATOM      7  C   UNL     1      34.523 -19.310 -20.279  0.00  0.00    +0.140 C 
ATOM      8  C   UNL     1      33.654 -21.335 -18.803  0.00  0.00    +0.098 C 
ATOM      9  C   UNL     1      33.278 -19.886 -20.489  0.00  0.00    +0.195 C 
ENDROOT
BRANCH   7  12
ATOM     10  N   UNL     1      35.159 -16.852 -22.791  0.00  0.00    -0.208 N 
ATOM     11  N   UNL     1      36.019 -16.352 -21.887  0.00  0.00    -0.176 NA
ATOM     12  C   UNL     1      34.961 -18.216 -21.097  0.00  0.00    +0.064 C 
ATOM     13  C   UNL     1      34.500 -17.968 -22.367  0.00  0.00    +0.088 C 
ATOM     14  C   UNL     1      35.894 -17.189 -20.854  0.00  0.00    +0.121 C 
BRANCH  10  15
ATOM     15  C   UNL     1      35.006 -16.201 -24.071  0.00  0.00    +0.148 C 
BRANCH  15  16
ATOM     16  C   UNL     1      33.986 -16.897 -24.961  0.00  0.00    +0.161 C 
BRANCH  16  17
ATOM     17  O   UNL     1      33.142 -15.929 -25.572  0.00  0.00    -0.380 OA
ATOM     18  H   UNL     1      33.327 -15.055 -25.194  0.00  0.00    +0.211 HD
ENDBRANCH  16  17
ENDBRANCH  15  16
ENDBRANCH  10  15
ENDBRANCH   7  12
BRANCH   1  19
ATOM     19  C   UNL     1      36.743 -21.237 -16.952  0.00  0.00    +0.145 C 
BRANCH  19  21
ATOM     20  N   UNL     1      37.181 -24.177 -12.137  0.00  0.00    -0.244 NA
ATOM     21  C   UNL     1      36.868 -22.014 -15.686  0.00  0.00    -0.000 C 
ATOM     22  C   UNL     1      37.980 -22.822 -15.467  0.00  0.00    -0.001 C 
ATOM     23  C   UNL     1      38.101 -23.557 -14.275  0.00  0.00    +0.017 C 
ATOM     24  C   UNL     1      35.873 -21.938 -14.718  0.00  0.00    -0.001 C 
ATOM     25  C   UNL     1      37.096 -23.485 -13.289  0.00  0.00    +0.081 C 
ATOM     26  C   UNL     1      35.994 -22.669 -13.533  0.00  0.00    +0.019 C 
ATOM     27  C   UNL     1      39.210 -24.378 -14.030  0.00  0.00    +0.003 C 
ATOM     28  C   UNL     1      39.300 -25.092 -12.843  0.00  0.00    +0.021 C 
ATOM     29  C   UNL     1      38.268 -24.957 -11.938  0.00  0.00    +0.099 C 
ENDBRANCH  19  21
ENDBRANCH   1  19
TORSDOF 6
ENDMDL
MODEL 9
REMARK VINA RESULT:     -10.0      4.159      9.790
REMARK  Name = 17754438
REMARK  6 active torsions:
REMARK  status: ('A' for Active; 'I' for Inactive)
REMARK    1  A    between atoms: N_1  and  C_19
REMARK    2  A    between atoms: C_7  and  C_12
REMARK    3  A    between atoms: N_10  and  C_15
REMARK    4  A    between atoms: C_15  and  C_16
REMARK    5  A    between atoms: C_16  and  O_17
REMARK    6  A    between atoms: C_19  and  C_21
REMARK                            x       y       z     vdW  Elec       q    Type
REMARK                         _______ _______ _______ _____ _____    ______ ____
ROOT
ATOM      1  N   UNL     1      34.917 -20.418 -19.271  0.00  0.00    -0.163 N 
ATOM      2  N   UNL     1      34.658 -19.072 -21.294  0.00  0.00    -0.378 NA
ATOM      3  N   UNL     1      35.892 -20.630 -18.365  0.00  0.00    -0.033 NA
ATOM      4  N   UNL     1      37.373 -18.359 -20.577  0.00  0.00    -0.208 NA
ATOM      5  N   UNL     1      36.946 -19.895 -18.719  0.00  0.00    -0.086 NA
ATOM      6  C   UNL     1      35.323 -19.542 -20.228  0.00  0.00    +0.267 C 
ATOM      7  C   UNL     1      35.425 -18.211 -22.002  0.00  0.00    +0.140 C 
ATOM      8  C   UNL     1      36.615 -19.222 -19.859  0.00  0.00    +0.098 C 
ATOM      9  C   UNL     1      36.726 -17.869 -21.659  0.00  0.00    +0.195 C 
ENDROOT
BRANCH   7  12
ATOM     10  N   UNL     1      34.111 -16.182 -24.632  0.00  0.00    -0.208 N 
ATOM     11  N   UNL     1      33.711 -17.356 -25.150  0.00  0.00    -0.176 NA
ATOM     12  C   UNL     1      34.812 -17.645 -23.169  0.00  0.00    +0.064 C 
ATOM     13  C   UNL     1      34.775 -16.300 -23.446  0.00  0.00    +0.088 C 
ATOM     14  C   UNL     1      34.142 -18.246 -24.252  0.00  0.00    +0.121 C 
BRANCH  10  15
ATOM     15  C   UNL     1      33.824 -14.955 -25.335  0.00  0.00    +0.148 C 
BRANCH  15  16
ATOM     16  C   UNL     1      33.687 -13.763 -24.397  0.00  0.00    +0.161 C 
BRANCH  16  17
ATOM     17  O   UNL     1      33.726 -12.556 -25.146  0.00  0.00    -0.380 OA
ATOM     18  H   UNL     1      32.987 -12.541 -25.774  0.00  0.00    +0.211 HD
ENDBRANCH  16  17
ENDBRANCH  15  16
ENDBRANCH  10  15
ENDBRANCH   7  12
BRANCH   1  19
ATOM     19  C   UNL     1      33.621 -21.094 -19.148  0.00  0.00    +0.145 C 
BRANCH  19  21
ATOM     20  N   UNL     1      33.022 -23.523 -14.072  0.00  0.00    -0.244 NA
ATOM     21  C   UNL     1      33.453 -21.733 -17.812  0.00  0.00    -0.000 C 
ATOM     22  C   UNL     1      32.196 -21.791 -17.216  0.00  0.00    -0.001 C 
ATOM     23  C   UNL     1      32.034 -22.392 -15.956  0.00  0.00    +0.017 C 
ATOM     24  C   UNL     1      34.550 -22.273 -17.152  0.00  0.00    -0.001 C 
ATOM     25  C   UNL     1      33.143 -22.941 -15.281  0.00  0.00    +0.081 C 
ATOM     26  C   UNL     1      34.388 -22.870 -15.899  0.00  0.00    +0.019 C 
ATOM     27  C   UNL     1      30.780 -22.463 -15.334  0.00  0.00    +0.003 C 
ATOM     28  C   UNL     1      30.652 -23.062 -14.089  0.00  0.00    +0.021 C 
ATOM     29  C   UNL     1      31.794 -23.572 -13.506  0.00  0.00    +0.099 C 
ENDBRANCH  19  21
ENDBRANCH   1  19
TORSDOF 6
ENDMDL
