MODEL 1
REMARK VINA RESULT:     -12.9      0.000      0.000
REMARK  Name = 11560856
REMARK  5 active torsions:
REMARK  status: ('A' for Active; 'I' for Inactive)
REMARK    1  A    between atoms: C_2  and  O_24
REMARK    2  A    between atoms: C_3  and  N_10
REMARK    3  A    between atoms: C_12  and  C_16
REMARK    4  A    between atoms: C_16  and  C_18
REMARK    5  A    between atoms: O_24  and  C_28
REMARK                            x       y       z     vdW  Elec       q    Type
REMARK                         _______ _______ _______ _____ _____    ______ ____
ROOT
ATOM      1  F   UNL     1      33.033 -20.209 -20.138  0.00  0.00    -0.201 F 
ATOM      2  C   UNL     1      35.385 -19.945 -20.289  0.00  0.00    +0.173 C 
ATOM      3  C   UNL     1      35.662 -21.121 -17.798  0.00  0.00    +0.054 C 
ATOM      4  C   UNL     1      34.254 -20.365 -19.609  0.00  0.00    +0.176 C 
ATOM      5  C   UNL     1      36.652 -20.100 -19.751  0.00  0.00    +0.041 C 
ATOM      6  C   UNL     1      34.394 -20.958 -18.355  0.00  0.00    +0.047 C 
ATOM      7  C   UNL     1      36.791 -20.692 -18.496  0.00  0.00    +0.018 C 
ENDROOT
BRANCH   3  10
ATOM      8  O   UNL     1      33.599 -24.149 -13.776  0.00  0.00    -0.274 OA
ATOM      9  O   UNL     1      33.741 -22.805 -16.221  0.00  0.00    -0.252 OA
ATOM     10  N   UNL     1      35.802 -21.716 -16.543  0.00  0.00    -0.268 N 
ATOM     11  N   UNL     1      35.399 -22.915 -14.599  0.00  0.00    -0.239 N 
ATOM     12  C   UNL     1      34.737 -23.704 -13.655  0.00  0.00    +0.234 C 
ATOM     13  C   UNL     1      34.867 -22.503 -15.837  0.00  0.00    +0.310 C 
ATOM     14  H   UNL     1      36.663 -21.567 -16.092  0.00  0.00    +0.156 HD
ATOM     15  H   UNL     1      36.313 -22.621 -14.381  0.00  0.00    +0.159 HD
BRANCH  12  16
ATOM     16  C   UNL     1      35.608 -23.952 -12.438  0.00  0.00    +0.112 C 
BRANCH  16  18
ATOM     17  F   UNL     1      40.775 -25.751 -13.728  0.00  0.00    -0.204 F 
ATOM     18  C   UNL     1      36.993 -24.435 -12.782  0.00  0.00    -0.013 C 
ATOM     19  C   UNL     1      37.145 -25.577 -13.556  0.00  0.00    -0.001 C 
ATOM     20  C   UNL     1      38.095 -23.730 -12.323  0.00  0.00    -0.001 C 
ATOM     21  C   UNL     1      38.427 -26.024 -13.876  0.00  0.00    +0.029 C 
ATOM     22  C   UNL     1      39.378 -24.176 -12.643  0.00  0.00    +0.029 C 
ATOM     23  C   UNL     1      39.543 -25.322 -13.420  0.00  0.00    +0.140 C 
ENDBRANCH  16  18
ENDBRANCH  12  16
ENDBRANCH   3  10
BRANCH   2  24
ATOM     24  O   UNL     1      35.247 -19.359 -21.532  0.00  0.00    -0.451 OA
BRANCH  24  28
ATOM     25  N   UNL     1      34.575 -15.448 -23.967  0.00  0.00    -0.297 N 
ATOM     26  N   UNL     1      35.126 -15.139 -21.642  0.00  0.00    -0.229 NA
ATOM     27  C   UNL     1      34.905 -17.304 -22.771  0.00  0.00    +0.067 C 
ATOM     28  C   UNL     1      35.204 -17.994 -21.585  0.00  0.00    +0.150 C 
ATOM     29  C   UNL     1      34.886 -15.913 -22.716  0.00  0.00    +0.135 C 
ATOM     30  C   UNL     1      34.593 -17.668 -24.108  0.00  0.00    +0.022 C 
ATOM     31  C   UNL     1      34.395 -16.505 -24.820  0.00  0.00    +0.063 C 
ATOM     32  C   UNL     1      35.461 -17.239 -20.441  0.00  0.00    +0.058 C 
ATOM     33  C   UNL     1      35.409 -15.854 -20.529  0.00  0.00    +0.103 C 
ATOM     34  H   UNL     1      34.494 -14.498 -24.215  0.00  0.00    +0.154 HD
ENDBRANCH  24  28
ENDBRANCH   2  24
TORSDOF 5
ENDMDL
MODEL 2
REMARK VINA RESULT:     -12.9      3.163      5.094
REMARK  Name = 11560856
REMARK  5 active torsions:
REMARK  status: ('A' for Active; 'I' for Inactive)
REMARK    1  A    between atoms: C_2  and  O_24
REMARK    2  A    between atoms: C_3  and  N_10
REMARK    3  A    between atoms: C_12  and  C_16
REMARK    4  A    between atoms: C_16  and  C_18
REMARK    5  A    between atoms: O_24  and  C_28
REMARK                            x       y       z     vdW  Elec       q    Type
REMARK                         _______ _______ _______ _____ _____    ______ ____
ROOT
ATOM      1  F   UNL     1      37.231 -20.184 -19.839  0.00  0.00    -0.201 F 
ATOM      2  C   UNL     1      35.074 -19.481 -20.531  0.00  0.00    +0.173 C 
ATOM      3  C   UNL     1      33.947 -21.011 -18.517  0.00  0.00    +0.054 C 
ATOM      4  C   UNL     1      35.900 -20.209 -19.690  0.00  0.00    +0.176 C 
ATOM      5  C   UNL     1      33.697 -19.501 -20.387  0.00  0.00    +0.041 C 
ATOM      6  C   UNL     1      35.332 -20.979 -18.676  0.00  0.00    +0.047 C 
ATOM      7  C   UNL     1      33.129 -20.272 -19.372  0.00  0.00    +0.018 C 
ENDROOT
BRANCH   3  10
ATOM      8  O   UNL     1      34.502 -23.896 -13.938  0.00  0.00    -0.274 OA
ATOM      9  O   UNL     1      35.217 -22.328 -16.136  0.00  0.00    -0.252 OA
ATOM     10  N   UNL     1      33.379 -21.780 -17.500  0.00  0.00    -0.268 N 
ATOM     11  N   UNL     1      33.085 -23.075 -15.599  0.00  0.00    -0.239 N 
ATOM     12  C   UNL     1      33.383 -23.782 -14.431  0.00  0.00    +0.234 C 
ATOM     13  C   UNL     1      34.018 -22.382 -16.395  0.00  0.00    +0.310 C 
ATOM     14  H   UNL     1      32.408 -21.921 -17.562  0.00  0.00    +0.156 HD
ATOM     15  H   UNL     1      32.144 -23.061 -15.890  0.00  0.00    +0.159 HD
BRANCH  12  16
ATOM     16  C   UNL     1      32.136 -24.406 -13.833  0.00  0.00    +0.112 C 
BRANCH  16  18
ATOM     17  F   UNL     1      27.369 -22.121 -15.742  0.00  0.00    -0.204 F 
ATOM     18  C   UNL     1      30.858 -23.794 -14.343  0.00  0.00    -0.013 C 
ATOM     19  C   UNL     1      30.530 -22.495 -13.980  0.00  0.00    -0.001 C 
ATOM     20  C   UNL     1      30.029 -24.537 -15.171  0.00  0.00    -0.001 C 
ATOM     21  C   UNL     1      29.346 -21.929 -14.454  0.00  0.00    +0.029 C 
ATOM     22  C   UNL     1      28.845 -23.970 -15.644  0.00  0.00    +0.029 C 
ATOM     23  C   UNL     1      28.505 -22.666 -15.287  0.00  0.00    +0.140 C 
ENDBRANCH  16  18
ENDBRANCH  12  16
ENDBRANCH   3  10
BRANCH   2  24
ATOM     24  O   UNL     1      35.636 -18.718 -21.535  0.00  0.00    -0.451 OA
BRANCH  24  28
ATOM     25  N   UNL     1      34.583 -14.802 -23.824  0.00  0.00    -0.297 N 
ATOM     26  N   UNL     1      34.868 -14.566 -21.443  0.00  0.00    -0.229 NA
ATOM     27  C   UNL     1      35.090 -16.662 -22.697  0.00  0.00    +0.067 C 
ATOM     28  C   UNL     1      35.385 -17.374 -21.523  0.00  0.00    +0.150 C 
ATOM     29  C   UNL     1      34.848 -15.296 -22.574  0.00  0.00    +0.135 C 
ATOM     30  C   UNL     1      34.960 -16.981 -24.074  0.00  0.00    +0.022 C 
ATOM     31  C   UNL     1      34.647 -15.816 -24.743  0.00  0.00    +0.063 C 
ATOM     32  C   UNL     1      35.417 -16.666 -20.323  0.00  0.00    +0.058 C 
ATOM     33  C   UNL     1      35.158 -15.302 -20.345  0.00  0.00    +0.103 C 
ATOM     34  H   UNL     1      34.377 -13.861 -24.030  0.00  0.00    +0.154 HD
ENDBRANCH  24  28
ENDBRANCH   2  24
TORSDOF 5
ENDMDL
MODEL 3
REMARK VINA RESULT:     -12.7      6.228     12.899
REMARK  Name = 11560856
REMARK  5 active torsions:
REMARK  status: ('A' for Active; 'I' for Inactive)
REMARK    1  A    between atoms: C_2  and  O_24
REMARK    2  A    between atoms: C_3  and  N_10
REMARK    3  A    between atoms: C_12  and  C_16
REMARK    4  A    between atoms: C_16  and  C_18
REMARK    5  A    between atoms: O_24  and  C_28
REMARK                            x       y       z     vdW  Elec       q    Type
REMARK                         _______ _______ _______ _____ _____    ______ ____
ROOT
ATOM      1  F   UNL     1      35.685 -16.491 -19.511  0.00  0.00    -0.201 F 
ATOM      2  C   UNL     1      35.400 -16.882 -21.833  0.00  0.00    +0.173 C 
ATOM      3  C   UNL     1      34.619 -14.246 -22.166  0.00  0.00    +0.054 C 
ATOM      4  C   UNL     1      35.357 -16.044 -20.731  0.00  0.00    +0.176 C 
ATOM      5  C   UNL     1      35.061 -16.431 -23.098  0.00  0.00    +0.041 C 
ATOM      6  C   UNL     1      34.965 -14.716 -20.899  0.00  0.00    +0.047 C 
ATOM      7  C   UNL     1      34.668 -15.104 -23.265  0.00  0.00    +0.018 C 
ENDROOT
BRANCH   3  10
ATOM      8  O   UNL     1      31.085 -10.227 -21.188  0.00  0.00    -0.274 OA
ATOM      9  O   UNL     1      32.223 -12.777 -21.110  0.00  0.00    -0.252 OA
ATOM     10  N   UNL     1      34.228 -12.917 -22.334  0.00  0.00    -0.268 N 
ATOM     11  N   UNL     1      33.060 -10.917 -22.220  0.00  0.00    -0.239 N 
ATOM     12  C   UNL     1      32.069  -9.991 -21.883  0.00  0.00    +0.234 C 
ATOM     13  C   UNL     1      33.088 -12.267 -21.816  0.00  0.00    +0.310 C 
ATOM     14  H   UNL     1      34.824 -12.362 -22.885  0.00  0.00    +0.156 HD
ATOM     15  H   UNL     1      33.800 -10.600 -22.787  0.00  0.00    +0.159 HD
BRANCH  12  16
ATOM     16  C   UNL     1      32.358  -8.631 -22.491  0.00  0.00    +0.112 C 
BRANCH  16  18
ATOM     17  F   UNL     1      32.269  -4.446 -18.740  0.00  0.00    -0.204 F 
ATOM     18  C   UNL     1      32.333  -7.510 -21.485  0.00  0.00    -0.013 C 
ATOM     19  C   UNL     1      33.056  -7.634 -20.307  0.00  0.00    -0.001 C 
ATOM     20  C   UNL     1      31.589  -6.370 -21.753  0.00  0.00    -0.001 C 
ATOM     21  C   UNL     1      33.033  -6.595 -19.376  0.00  0.00    +0.029 C 
ATOM     22  C   UNL     1      31.566  -5.332 -20.821  0.00  0.00    +0.029 C 
ATOM     23  C   UNL     1      32.289  -5.444 -19.634  0.00  0.00    +0.140 C 
ENDBRANCH  16  18
ENDBRANCH  12  16
ENDBRANCH   3  10
BRANCH   2  24
ATOM     24  O   UNL     1      35.789 -18.197 -21.667  0.00  0.00    -0.451 OA
BRANCH  24  28
ATOM     25  N   UNL     1      35.408 -21.232 -18.158  0.00  0.00    -0.297 N 
ATOM     26  N   UNL     1      33.340 -20.632 -19.238  0.00  0.00    -0.229 NA
ATOM     27  C   UNL     1      35.557 -19.778 -19.846  0.00  0.00    +0.067 C 
ATOM     28  C   UNL     1      35.011 -18.990 -20.873  0.00  0.00    +0.150 C 
ATOM     29  C   UNL     1      34.675 -20.550 -19.094  0.00  0.00    +0.135 C 
ATOM     30  C   UNL     1      36.858 -20.018 -19.330  0.00  0.00    +0.022 C 
ATOM     31  C   UNL     1      36.735 -20.917 -18.292  0.00  0.00    +0.063 C 
ATOM     32  C   UNL     1      33.631 -19.037 -21.065  0.00  0.00    +0.058 C 
ATOM     33  C   UNL     1      32.869 -19.855 -20.241  0.00  0.00    +0.103 C 
ATOM     34  H   UNL     1      35.037 -21.854 -17.490  0.00  0.00    +0.154 HD
ENDBRANCH  24  28
ENDBRANCH   2  24
TORSDOF 5
ENDMDL
MODEL 4
REMARK VINA RESULT:     -12.7      2.655     10.991
REMARK  Name = 11560856
REMARK  5 active torsions:
REMARK  status: ('A' for Active; 'I' for Inactive)
REMARK    1  A    between atoms: C_2  and  O_24
REMARK    2  A    between atoms: C_3  and  N_10
REMARK    3  A    between atoms: C_12  and  C_16
REMARK    4  A    between atoms: C_16  and  C_18
REMARK    5  A    between atoms: O_24  and  C_28
REMARK                            x       y       z     vdW  Elec       q    Type
REMARK                         _______ _______ _______ _____ _____    ______ ____
ROOT
ATOM      1  F   UNL     1      32.562 -23.408 -16.008  0.00  0.00    -0.201 F 
ATOM      2  C   UNL     1      34.785 -22.685 -15.605  0.00  0.00    +0.173 C 
ATOM      3  C   UNL     1      34.760 -21.317 -18.012  0.00  0.00    +0.054 C 
ATOM      4  C   UNL     1      33.646 -22.721 -16.393  0.00  0.00    +0.176 C 
ATOM      5  C   UNL     1      35.911 -21.980 -15.994  0.00  0.00    +0.041 C 
ATOM      6  C   UNL     1      33.634 -22.031 -17.604  0.00  0.00    +0.047 C 
ATOM      7  C   UNL     1      35.899 -21.291 -17.206  0.00  0.00    +0.018 C 
ENDROOT
BRANCH   3  10
ATOM      8  O   UNL     1      37.144 -17.874 -21.485  0.00  0.00    -0.274 OA
ATOM      9  O   UNL     1      36.770 -19.424 -19.192  0.00  0.00    -0.252 OA
ATOM     10  N   UNL     1      34.747 -20.625 -19.223  0.00  0.00    -0.268 N 
ATOM     11  N   UNL     1      35.324 -19.252 -21.001  0.00  0.00    -0.239 N 
ATOM     12  C   UNL     1      36.055 -18.357 -21.787  0.00  0.00    +0.234 C 
ATOM     13  C   UNL     1      35.718 -19.742 -19.740  0.00  0.00    +0.310 C 
ATOM     14  H   UNL     1      33.957 -20.772 -19.792  0.00  0.00    +0.156 HD
ATOM     15  H   UNL     1      34.462 -19.565 -21.357  0.00  0.00    +0.159 HD
BRANCH  12  16
ATOM     16  C   UNL     1      35.331 -18.044 -23.083  0.00  0.00    +0.112 C 
BRANCH  16  18
ATOM     17  F   UNL     1      34.018 -12.608 -23.646  0.00  0.00    -0.204 F 
ATOM     18  C   UNL     1      34.978 -16.588 -23.233  0.00  0.00    -0.013 C 
ATOM     19  C   UNL     1      35.178 -15.723 -22.166  0.00  0.00    -0.001 C 
ATOM     20  C   UNL     1      34.460 -16.132 -24.437  0.00  0.00    -0.001 C 
ATOM     21  C   UNL     1      34.852 -14.374 -22.306  0.00  0.00    +0.029 C 
ATOM     22  C   UNL     1      34.134 -14.783 -24.577  0.00  0.00    +0.029 C 
ATOM     23  C   UNL     1      34.331 -13.904 -23.512  0.00  0.00    +0.140 C 
ENDBRANCH  16  18
ENDBRANCH  12  16
ENDBRANCH   3  10
BRANCH   2  24
ATOM     24  O   UNL     1      34.797 -23.367 -14.404  0.00  0.00    -0.451 OA
BRANCH  24  28
ATOM     25  N   UNL     1      38.650 -24.111 -11.898  0.00  0.00    -0.297 N 
ATOM     26  N   UNL     1      38.171 -25.769 -13.578  0.00  0.00    -0.229 NA
ATOM     27  C   UNL     1      36.809 -23.783 -13.118  0.00  0.00    +0.067 C 
ATOM     28  C   UNL     1      35.894 -24.133 -14.124  0.00  0.00    +0.150 C 
ATOM     29  C   UNL     1      37.892 -24.633 -12.913  0.00  0.00    +0.135 C 
ATOM     30  C   UNL     1      36.937 -22.720 -12.185  0.00  0.00    +0.022 C 
ATOM     31  C   UNL     1      38.079 -22.949 -11.448  0.00  0.00    +0.063 C 
ATOM     32  C   UNL     1      36.135 -25.302 -14.845  0.00  0.00    +0.058 C 
ATOM     33  C   UNL     1      37.259 -26.057 -14.535  0.00  0.00    +0.103 C 
ATOM     34  H   UNL     1      39.478 -24.511 -11.545  0.00  0.00    +0.154 HD
ENDBRANCH  24  28
ENDBRANCH   2  24
TORSDOF 5
ENDMDL
MODEL 5
REMARK VINA RESULT:     -12.7      6.063      9.511
REMARK  Name = 11560856
REMARK  5 active torsions:
REMARK  status: ('A' for Active; 'I' for Inactive)
REMARK    1  A    between atoms: C_2  and  O_24
REMARK    2  A    between atoms: C_3  and  N_10
REMARK    3  A    between atoms: C_12  and  C_16
REMARK    4  A    between atoms: C_16  and  C_18
REMARK    5  A    between atoms: O_24  and  C_28
REMARK                            x       y       z     vdW  Elec       q    Type
REMARK                         _______ _______ _______ _____ _____    ______ ____
ROOT
ATOM      1  F   UNL     1      33.783 -10.536 -23.307  0.00  0.00    -0.201 F 
ATOM      2  C   UNL     1      32.298 -11.053 -21.531  0.00  0.00    +0.173 C 
ATOM      3  C   UNL     1      33.745 -13.355 -21.011  0.00  0.00    +0.054 C 
ATOM      4  C   UNL     1      33.406 -11.347 -22.310  0.00  0.00    +0.176 C 
ATOM      5  C   UNL     1      31.898 -11.884 -20.499  0.00  0.00    +0.041 C 
ATOM      6  C   UNL     1      34.134 -12.506 -22.047  0.00  0.00    +0.047 C 
ATOM      7  C   UNL     1      32.627 -13.044 -20.237  0.00  0.00    +0.018 C 
ENDROOT
BRANCH   3  10
ATOM      8  O   UNL     1      36.166 -17.891 -22.791  0.00  0.00    -0.274 OA
ATOM      9  O   UNL     1      34.730 -15.496 -22.872  0.00  0.00    -0.252 OA
ATOM     10  N   UNL     1      34.475 -14.515 -20.748  0.00  0.00    -0.268 N 
ATOM     11  N   UNL     1      35.628 -16.513 -20.987  0.00  0.00    -0.239 N 
ATOM     12  C   UNL     1      36.201 -17.636 -21.589  0.00  0.00    +0.234 C 
ATOM     13  C   UNL     1      34.919 -15.497 -21.658  0.00  0.00    +0.310 C 
ATOM     14  H   UNL     1      34.712 -14.667 -19.805  0.00  0.00    +0.156 HD
ATOM     15  H   UNL     1      35.726 -16.425 -20.011  0.00  0.00    +0.159 HD
BRANCH  12  16
ATOM     16  C   UNL     1      36.886 -18.521 -20.565  0.00  0.00    +0.112 C 
BRANCH  16  18
ATOM     17  F   UNL     1      33.373 -22.075 -17.990  0.00  0.00    -0.204 F 
ATOM     18  C   UNL     1      35.944 -19.473 -19.874  0.00  0.00    -0.013 C 
ATOM     19  C   UNL     1      34.585 -19.409 -20.149  0.00  0.00    -0.001 C 
ATOM     20  C   UNL     1      36.450 -20.400 -18.975  0.00  0.00    -0.001 C 
ATOM     21  C   UNL     1      33.714 -20.291 -19.509  0.00  0.00    +0.029 C 
ATOM     22  C   UNL     1      35.578 -21.282 -18.335  0.00  0.00    +0.029 C 
ATOM     23  C   UNL     1      34.211 -21.228 -18.603  0.00  0.00    +0.140 C 
ENDBRANCH  16  18
ENDBRANCH  12  16
ENDBRANCH   3  10
BRANCH   2  24
ATOM     24  O   UNL     1      31.577  -9.903 -21.790  0.00  0.00    -0.451 OA
BRANCH  24  28
ATOM     25  N   UNL     1      32.361  -5.314 -21.827  0.00  0.00    -0.297 N 
ATOM     26  N   UNL     1      32.727  -6.411 -19.714  0.00  0.00    -0.229 NA
ATOM     27  C   UNL     1      31.994  -7.516 -21.776  0.00  0.00    +0.067 C 
ATOM     28  C   UNL     1      31.947  -8.764 -21.133  0.00  0.00    +0.150 C 
ATOM     29  C   UNL     1      32.383  -6.417 -21.015  0.00  0.00    +0.135 C 
ATOM     30  C   UNL     1      31.733  -7.037 -23.087  0.00  0.00    +0.022 C 
ATOM     31  C   UNL     1      31.966  -5.678 -23.088  0.00  0.00    +0.063 C 
ATOM     32  C   UNL     1      32.293  -8.814 -19.784  0.00  0.00    +0.058 C 
ATOM     33  C   UNL     1      32.665  -7.637 -19.146  0.00  0.00    +0.103 C 
ATOM     34  H   UNL     1      32.592  -4.399 -21.547  0.00  0.00    +0.154 HD
ENDBRANCH  24  28
ENDBRANCH   2  24
TORSDOF 5
ENDMDL
MODEL 6
REMARK VINA RESULT:     -12.7      2.583      3.304
REMARK  Name = 11560856
REMARK  5 active torsions:
REMARK  status: ('A' for Active; 'I' for Inactive)
REMARK    1  A    between atoms: C_2  and  O_24
REMARK    2  A    between atoms: C_3  and  N_10
REMARK    3  A    between atoms: C_12  and  C_16
REMARK    4  A    between atoms: C_16  and  C_18
REMARK    5  A    between atoms: O_24  and  C_28
REMARK                            x       y       z     vdW  Elec       q    Type
REMARK                         _______ _______ _______ _____ _____    ______ ____
ROOT
ATOM      1  F   UNL     1      38.147 -17.800 -21.474  0.00  0.00    -0.201 F 
ATOM      2  C   UNL     1      35.800 -18.141 -21.514  0.00  0.00    +0.173 C 
ATOM      3  C   UNL     1      36.056 -20.034 -19.509  0.00  0.00    +0.054 C 
ATOM      4  C   UNL     1      37.057 -18.425 -21.008  0.00  0.00    +0.176 C 
ATOM      5  C   UNL     1      34.667 -18.782 -21.040  0.00  0.00    +0.041 C 
ATOM      6  C   UNL     1      37.185 -19.378 -19.997  0.00  0.00    +0.047 C 
ATOM      7  C   UNL     1      34.797 -19.735 -20.030  0.00  0.00    +0.018 C 
ENDROOT
BRANCH   3  10
ATOM      8  O   UNL     1      37.999 -21.481 -14.638  0.00  0.00    -0.274 OA
ATOM      9  O   UNL     1      37.495 -19.890 -16.878  0.00  0.00    -0.252 OA
ATOM     10  N   UNL     1      36.185 -20.985 -18.497  0.00  0.00    -0.268 N 
ATOM     11  N   UNL     1      36.761 -22.065 -16.527  0.00  0.00    -0.239 N 
ATOM     12  C   UNL     1      37.325 -22.292 -15.269  0.00  0.00    +0.234 C 
ATOM     13  C   UNL     1      36.874 -20.874 -17.271  0.00  0.00    +0.310 C 
ATOM     14  H   UNL     1      35.737 -21.846 -18.659  0.00  0.00    +0.156 HD
ATOM     15  H   UNL     1      36.242 -22.800 -16.928  0.00  0.00    +0.159 HD
BRANCH  12  16
ATOM     16  C   UNL     1      37.003 -23.686 -14.764  0.00  0.00    +0.112 C 
BRANCH  16  18
ATOM     17  F   UNL     1      35.774 -23.836  -9.281  0.00  0.00    -0.204 F 
ATOM     18  C   UNL     1      36.673 -23.727 -13.295  0.00  0.00    -0.013 C 
ATOM     19  C   UNL     1      37.662 -24.068 -12.383  0.00  0.00    -0.001 C 
ATOM     20  C   UNL     1      35.387 -23.422 -12.876  0.00  0.00    -0.001 C 
ATOM     21  C   UNL     1      37.357 -24.106 -11.022  0.00  0.00    +0.029 C 
ATOM     22  C   UNL     1      35.081 -23.460 -11.515  0.00  0.00    +0.029 C 
ATOM     23  C   UNL     1      36.066 -23.800 -10.589  0.00  0.00    +0.140 C 
ENDBRANCH  16  18
ENDBRANCH  12  16
ENDBRANCH   3  10
BRANCH   2  24
ATOM     24  O   UNL     1      35.672 -17.197 -22.514  0.00  0.00    -0.451 OA
BRANCH  24  28
ATOM     25  N   UNL     1      33.554 -13.231 -23.725  0.00  0.00    -0.297 N 
ATOM     26  N   UNL     1      34.125 -13.431 -21.393  0.00  0.00    -0.229 NA
ATOM     27  C   UNL     1      34.572 -15.122 -23.111  0.00  0.00    +0.067 C 
ATOM     28  C   UNL     1      35.167 -15.975 -22.168  0.00  0.00    +0.150 C 
ATOM     29  C   UNL     1      34.088 -13.899 -22.654  0.00  0.00    +0.135 C 
ATOM     30  C   UNL     1      34.311 -15.172 -24.506  0.00  0.00    +0.022 C 
ATOM     31  C   UNL     1      33.683 -13.995 -24.855  0.00  0.00    +0.063 C 
ATOM     32  C   UNL     1      35.231 -15.539 -20.845  0.00  0.00    +0.058 C 
ATOM     33  C   UNL     1      34.709 -14.292 -20.527  0.00  0.00    +0.103 C 
ATOM     34  H   UNL     1      33.140 -12.338 -23.687  0.00  0.00    +0.154 HD
ENDBRANCH  24  28
ENDBRANCH   2  24
TORSDOF 5
ENDMDL
MODEL 7
REMARK VINA RESULT:     -12.7      2.730     10.754
REMARK  Name = 11560856
REMARK  5 active torsions:
REMARK  status: ('A' for Active; 'I' for Inactive)
REMARK    1  A    between atoms: C_2  and  O_24
REMARK    2  A    between atoms: C_3  and  N_10
REMARK    3  A    between atoms: C_12  and  C_16
REMARK    4  A    between atoms: C_16  and  C_18
REMARK    5  A    between atoms: O_24  and  C_28
REMARK                            x       y       z     vdW  Elec       q    Type
REMARK                         _______ _______ _______ _____ _____    ______ ____
ROOT
ATOM      1  F   UNL     1      36.799 -21.546 -18.019  0.00  0.00    -0.201 F 
ATOM      2  C   UNL     1      34.494 -21.665 -18.563  0.00  0.00    +0.173 C 
ATOM      3  C   UNL     1      34.740 -19.344 -20.052  0.00  0.00    +0.054 C 
ATOM      4  C   UNL     1      35.728 -21.043 -18.647  0.00  0.00    +0.176 C 
ATOM      5  C   UNL     1      33.380 -21.153 -19.207  0.00  0.00    +0.041 C 
ATOM      6  C   UNL     1      35.852 -19.874 -19.399  0.00  0.00    +0.047 C 
ATOM      7  C   UNL     1      33.504 -19.984 -19.957  0.00  0.00    +0.018 C 
ENDROOT
BRANCH   3  10
ATOM      8  O   UNL     1      34.762 -16.846 -24.886  0.00  0.00    -0.274 OA
ATOM      9  O   UNL     1      34.581 -18.918 -23.020  0.00  0.00    -0.252 OA
ATOM     10  N   UNL     1      34.865 -18.176 -20.805  0.00  0.00    -0.268 N 
ATOM     11  N   UNL     1      34.964 -16.672 -22.568  0.00  0.00    -0.239 N 
ATOM     12  C   UNL     1      34.943 -16.174 -23.873  0.00  0.00    +0.234 C 
ATOM     13  C   UNL     1      34.782 -18.021 -22.205  0.00  0.00    +0.310 C 
ATOM     14  H   UNL     1      35.032 -17.353 -20.293  0.00  0.00    +0.156 HD
ATOM     15  H   UNL     1      35.120 -16.027 -21.841  0.00  0.00    +0.159 HD
BRANCH  12  16
ATOM     16  C   UNL     1      35.175 -14.675 -23.894  0.00  0.00    +0.112 C 
BRANCH  16  18
ATOM     17  F   UNL     1      32.425 -11.934 -19.830  0.00  0.00    -0.204 F 
ATOM     18  C   UNL     1      34.438 -13.941 -22.805  0.00  0.00    -0.013 C 
ATOM     19  C   UNL     1      34.899 -14.015 -21.498  0.00  0.00    -0.001 C 
ATOM     20  C   UNL     1      33.309 -13.201 -23.125  0.00  0.00    -0.001 C 
ATOM     21  C   UNL     1      34.216 -13.335 -20.490  0.00  0.00    +0.029 C 
ATOM     22  C   UNL     1      32.625 -12.521 -22.116  0.00  0.00    +0.029 C 
ATOM     23  C   UNL     1      33.080 -12.587 -20.799  0.00  0.00    +0.140 C 
ENDBRANCH  16  18
ENDBRANCH  12  16
ENDBRANCH   3  10
BRANCH   2  24
ATOM     24  O   UNL     1      34.371 -22.824 -17.821  0.00  0.00    -0.451 OA
BRANCH  24  28
ATOM     25  N   UNL     1      34.832 -22.715 -13.189  0.00  0.00    -0.297 N 
ATOM     26  N   UNL     1      32.578 -22.502 -14.011  0.00  0.00    -0.229 NA
ATOM     27  C   UNL     1      34.576 -22.764 -15.407  0.00  0.00    +0.067 C 
ATOM     28  C   UNL     1      33.806 -22.721 -16.580  0.00  0.00    +0.150 C 
ATOM     29  C   UNL     1      33.903 -22.650 -14.194  0.00  0.00    +0.135 C 
ATOM     30  C   UNL     1      35.956 -22.902 -15.100  0.00  0.00    +0.022 C 
ATOM     31  C   UNL     1      36.083 -22.867 -13.727  0.00  0.00    +0.063 C 
ATOM     32  C   UNL     1      32.427 -22.569 -16.448  0.00  0.00    +0.058 C 
ATOM     33  C   UNL     1      31.885 -22.469 -15.173  0.00  0.00    +0.103 C 
ATOM     34  H   UNL     1      34.631 -22.660 -12.226  0.00  0.00    +0.154 HD
ENDBRANCH  24  28
ENDBRANCH   2  24
TORSDOF 5
ENDMDL
MODEL 8
REMARK VINA RESULT:     -12.6      2.604     10.933
REMARK  Name = 11560856
REMARK  5 active torsions:
REMARK  status: ('A' for Active; 'I' for Inactive)
REMARK    1  A    between atoms: C_2  and  O_24
REMARK    2  A    between atoms: C_3  and  N_10
REMARK    3  A    between atoms: C_12  and  C_16
REMARK    4  A    between atoms: C_16  and  C_18
REMARK    5  A    between atoms: O_24  and  C_28
REMARK                            x       y       z     vdW  Elec       q    Type
REMARK                         _______ _______ _______ _____ _____    ______ ____
ROOT
ATOM      1  F   UNL     1      33.005 -23.382 -15.997  0.00  0.00    -0.201 F 
ATOM      2  C   UNL     1      35.193 -22.951 -15.188  0.00  0.00    +0.173 C 
ATOM      3  C   UNL     1      35.660 -21.310 -17.369  0.00  0.00    +0.054 C 
ATOM      4  C   UNL     1      34.191 -22.773 -16.128  0.00  0.00    +0.176 C 
ATOM      5  C   UNL     1      36.423 -22.327 -15.315  0.00  0.00    +0.041 C 
ATOM      6  C   UNL     1      34.427 -21.946 -17.226  0.00  0.00    +0.047 C 
ATOM      7  C   UNL     1      36.658 -21.501 -16.414  0.00  0.00    +0.018 C 
ENDROOT
BRANCH   3  10
ATOM      8  O   UNL     1      33.897 -18.977 -21.957  0.00  0.00    -0.274 OA
ATOM      9  O   UNL     1      33.855 -20.538 -19.641  0.00  0.00    -0.252 OA
ATOM     10  N   UNL     1      35.894 -20.482 -18.467  0.00  0.00    -0.268 N 
ATOM     11  N   UNL     1      35.637 -19.277 -20.432  0.00  0.00    -0.239 N 
ATOM     12  C   UNL     1      35.046 -18.752 -21.585  0.00  0.00    +0.234 C 
ATOM     13  C   UNL     1      35.012 -20.145 -19.516  0.00  0.00    +0.310 C 
ATOM     14  H   UNL     1      36.791 -20.081 -18.518  0.00  0.00    +0.156 HD
ATOM     15  H   UNL     1      36.569 -19.019 -20.245  0.00  0.00    +0.159 HD
BRANCH  12  16
ATOM     16  C   UNL     1      36.010 -17.855 -22.338  0.00  0.00    +0.112 C 
BRANCH  16  18
ATOM     17  F   UNL     1      33.672 -13.050 -24.084  0.00  0.00    -0.204 F 
ATOM     18  C   UNL     1      35.385 -16.567 -22.806  0.00  0.00    -0.013 C 
ATOM     19  C   UNL     1      34.880 -16.482 -24.096  0.00  0.00    -0.001 C 
ATOM     20  C   UNL     1      35.321 -15.485 -21.940  0.00  0.00    -0.001 C 
ATOM     21  C   UNL     1      34.300 -15.290 -24.529  0.00  0.00    +0.029 C 
ATOM     22  C   UNL     1      34.741 -14.292 -22.373  0.00  0.00    +0.029 C 
ATOM     23  C   UNL     1      34.230 -14.195 -23.667  0.00  0.00    +0.140 C 
ENDBRANCH  16  18
ENDBRANCH  12  16
ENDBRANCH   3  10
BRANCH   2  24
ATOM     24  O   UNL     1      34.960 -23.769 -14.100  0.00  0.00    -0.451 OA
BRANCH  24  28
ATOM     25  N   UNL     1      39.015 -25.563 -12.680  0.00  0.00    -0.297 N 
ATOM     26  N   UNL     1      37.976 -24.015 -11.154  0.00  0.00    -0.229 NA
ATOM     27  C   UNL     1      37.068 -24.685 -13.331  0.00  0.00    +0.067 C 
ATOM     28  C   UNL     1      35.945 -23.860 -13.156  0.00  0.00    +0.150 C 
ATOM     29  C   UNL     1      38.014 -24.704 -12.309  0.00  0.00    +0.135 C 
ATOM     30  C   UNL     1      37.534 -25.567 -14.341  0.00  0.00    +0.022 C 
ATOM     31  C   UNL     1      38.735 -26.093 -13.912  0.00  0.00    +0.063 C 
ATOM     32  C   UNL     1      35.856 -23.123 -11.977  0.00  0.00    +0.058 C 
ATOM     33  C   UNL     1      36.873 -23.239 -11.038  0.00  0.00    +0.103 C 
ATOM     34  H   UNL     1      39.815 -25.767 -12.142  0.00  0.00    +0.154 HD
ENDBRANCH  24  28
ENDBRANCH   2  24
TORSDOF 5
ENDMDL
MODEL 9
REMARK VINA RESULT:     -12.4      6.965     10.462
REMARK  Name = 11560856
REMARK  5 active torsions:
REMARK  status: ('A' for Active; 'I' for Inactive)
REMARK    1  A    between atoms: C_2  and  O_24
REMARK    2  A    between atoms: C_3  and  N_10
REMARK    3  A    between atoms: C_12  and  C_16
REMARK    4  A    between atoms: C_16  and  C_18
REMARK    5  A    between atoms: O_24  and  C_28
REMARK                            x       y       z     vdW  Elec       q    Type
REMARK                         _______ _______ _______ _____ _____    ______ ____
ROOT
ATOM      1  F   UNL     1      34.438  -9.073 -24.071  0.00  0.00    -0.201 F 
ATOM      2  C   UNL     1      32.705  -9.516 -22.513  0.00  0.00    +0.173 C 
ATOM      3  C   UNL     1      33.531 -12.155 -22.368  0.00  0.00    +0.054 C 
ATOM      4  C   UNL     1      33.789  -9.929 -23.271  0.00  0.00    +0.176 C 
ATOM      5  C   UNL     1      32.026 -10.392 -21.685  0.00  0.00    +0.041 C 
ATOM      6  C   UNL     1      34.204 -11.258 -23.197  0.00  0.00    +0.047 C 
ATOM      7  C   UNL     1      32.442 -11.722 -21.611  0.00  0.00    +0.018 C 
ENDROOT
BRANCH   3  10
ATOM      8  O   UNL     1      35.727 -16.238 -19.521  0.00  0.00    -0.274 OA
ATOM      9  O   UNL     1      34.772 -13.677 -20.097  0.00  0.00    -0.252 OA
ATOM     10  N   UNL     1      33.948 -13.484 -22.293  0.00  0.00    -0.268 N 
ATOM     11  N   UNL     1      34.807 -15.500 -21.534  0.00  0.00    -0.239 N 
ATOM     12  C   UNL     1      35.383 -16.446 -20.682  0.00  0.00    +0.234 C 
ATOM     13  C   UNL     1      34.529 -14.160 -21.199  0.00  0.00    +0.310 C 
ATOM     14  H   UNL     1      33.822 -14.019 -23.108  0.00  0.00    +0.156 HD
ATOM     15  H   UNL     1      34.576 -15.795 -22.445  0.00  0.00    +0.159 HD
BRANCH  12  16
ATOM     16  C   UNL     1      35.538 -17.788 -21.373  0.00  0.00    +0.112 C 
BRANCH  16  18
ATOM     17  F   UNL     1      34.647 -22.163 -17.959  0.00  0.00    -0.204 F 
ATOM     18  C   UNL     1      35.299 -18.961 -20.459  0.00  0.00    -0.013 C 
ATOM     19  C   UNL     1      36.382 -19.596 -19.867  0.00  0.00    -0.001 C 
ATOM     20  C   UNL     1      34.001 -19.388 -20.221  0.00  0.00    -0.001 C 
ATOM     21  C   UNL     1      36.160 -20.683 -19.020  0.00  0.00    +0.029 C 
ATOM     22  C   UNL     1      33.780 -20.474 -19.374  0.00  0.00    +0.029 C 
ATOM     23  C   UNL     1      34.859 -21.120 -18.773  0.00  0.00    +0.140 C 
ENDBRANCH  16  18
ENDBRANCH  12  16
ENDBRANCH   3  10
BRANCH   2  24
ATOM     24  O   UNL     1      32.293  -8.199 -22.586  0.00  0.00    -0.451 OA
BRANCH  24  28
ATOM     25  N   UNL     1      32.222  -4.029 -20.517  0.00  0.00    -0.297 N 
ATOM     26  N   UNL     1      32.632  -5.902 -19.058  0.00  0.00    -0.229 NA
ATOM     27  C   UNL     1      32.263  -6.044 -21.478  0.00  0.00    +0.067 C 
ATOM     28  C   UNL     1      32.400  -7.441 -21.453  0.00  0.00    +0.150 C 
ATOM     29  C   UNL     1      32.389  -5.366 -20.269  0.00  0.00    +0.135 C 
ATOM     30  C   UNL     1      32.012  -5.064 -22.475  0.00  0.00    +0.022 C 
ATOM     31  C   UNL     1      31.992  -3.834 -21.853  0.00  0.00    +0.063 C 
ATOM     32  C   UNL     1      32.653  -8.049 -20.224  0.00  0.00    +0.058 C 
ATOM     33  C   UNL     1      32.756  -7.249 -19.093  0.00  0.00    +0.103 C 
ATOM     34  H   UNL     1      32.260  -3.317 -19.837  0.00  0.00    +0.154 HD
ENDBRANCH  24  28
ENDBRANCH   2  24
TORSDOF 5
ENDMDL
