MODEL 1
REMARK VINA RESULT:     -13.0      0.000      0.000
REMARK  Name = 25023705
REMARK  6 active torsions:
REMARK  status: ('A' for Active; 'I' for Inactive)
REMARK    1  A    between atoms: C_1  and  C_8
REMARK    2  A    between atoms: C_1  and  C_20
REMARK    3  A    between atoms: C_20  and  N_22
REMARK    4  A    between atoms: C_23  and  C_25
REMARK    5  A    between atoms: C_30  and  O_31
REMARK    6  A    between atoms: O_31  and  C_32
REMARK                            x       y       z     vdW  Elec       q    Type
REMARK                         _______ _______ _______ _____ _____    ______ ____
ROOT
ATOM      1  C   UNL     1      32.858 -23.267 -14.500  0.00  0.00    +0.066 C 
ATOM      2  C   UNL     1      32.348 -21.814 -14.343  0.00  0.00    +0.009 C 
ATOM      3  C   UNL     1      31.762 -24.183 -13.904  0.00  0.00    +0.009 C 
ENDROOT
BRANCH   1   8
ATOM      4  N   UNL     1      35.288 -23.665 -14.592  0.00  0.00    -0.347 NA
ATOM      5  N   UNL     1      37.560 -24.053 -14.809  0.00  0.00    -0.266 NA
ATOM      6  N   UNL     1      39.028 -24.031 -12.901  0.00  0.00    -0.316 NA
ATOM      7  N   UNL     1      39.861 -24.449 -15.049  0.00  0.00    -0.283 N 
ATOM      8  C   UNL     1      34.224 -23.389 -13.798  0.00  0.00    +0.122 C 
ATOM      9  C   UNL     1      34.301 -23.218 -12.432  0.00  0.00    +0.026 C 
ATOM     10  C   UNL     1      35.551 -23.339 -11.851  0.00  0.00    +0.001 C 
ATOM     11  C   UNL     1      36.501 -23.782 -14.036  0.00  0.00    +0.137 C 
ATOM     12  C   UNL     1      36.663 -23.623 -12.655  0.00  0.00    +0.199 C 
ATOM     13  C   UNL     1      37.952 -23.759 -12.144  0.00  0.00    +0.187 C 
ATOM     14  C   UNL     1      38.763 -24.163 -14.208  0.00  0.00    +0.207 C 
ATOM     15  H   UNL     1      39.723 -24.558 -16.017  0.00  0.00    +0.156 HD
ATOM     16  H   UNL     1      40.764 -24.541 -14.665  0.00  0.00    +0.156 HD
ATOM     17  N   UNL     1      38.168 -23.607 -10.752  0.00  0.00    -0.334 N 
ATOM     18  H   UNL     1      39.076 -23.702 -10.382  0.00  0.00    +0.144 HD
ATOM     19  H   UNL     1      37.412 -23.407 -10.155  0.00  0.00    +0.144 HD
ENDBRANCH   1   8
BRANCH   1  20
ATOM     20  C   UNL     1      32.986 -23.574 -16.019  0.00  0.00    +0.096 C 
BRANCH  20  22
ATOM     21  O   UNL     1      33.886 -23.680 -18.743  0.00  0.00    -0.270 OA
ATOM     22  N   UNL     1      33.520 -22.482 -16.791  0.00  0.00    -0.300 N 
ATOM     23  C   UNL     1      33.932 -22.629 -18.110  0.00  0.00    +0.246 C 
ATOM     24  H   UNL     1      33.596 -21.596 -16.368  0.00  0.00    +0.150 HD
BRANCH  23  25
ATOM     25  C   UNL     1      34.484 -21.412 -18.759  0.00  0.00    +0.054 C 
ATOM     26  C   UNL     1      35.860 -21.184 -18.756  0.00  0.00    +0.008 C 
ATOM     27  C   UNL     1      33.625 -20.498 -19.371  0.00  0.00    +0.008 C 
ATOM     28  C   UNL     1      36.378 -20.041 -19.365  0.00  0.00    +0.038 C 
ATOM     29  C   UNL     1      34.144 -19.356 -19.981  0.00  0.00    +0.038 C 
ATOM     30  C   UNL     1      35.520 -19.127 -19.977  0.00  0.00    +0.145 C 
BRANCH  30  31
ATOM     31  O   UNL     1      36.025 -18.011 -20.569  0.00  0.00    -0.453 OA
BRANCH  31  32
ATOM     32  C   UNL     1      35.505 -17.643 -21.799  0.00  0.00    +0.145 C 
ATOM     33  C   UNL     1      35.507 -16.302 -22.183  0.00  0.00    +0.037 C 
ATOM     34  C   UNL     1      34.979 -18.613 -22.652  0.00  0.00    +0.037 C 
ATOM     35  C   UNL     1      34.982 -15.931 -23.421  0.00  0.00    +0.003 C 
ATOM     36  C   UNL     1      34.454 -18.242 -23.890  0.00  0.00    +0.003 C 
ATOM     37  C   UNL     1      34.456 -16.901 -24.275  0.00  0.00    +0.000 C 
ENDBRANCH  31  32
ENDBRANCH  30  31
ENDBRANCH  23  25
ENDBRANCH  20  22
ENDBRANCH   1  20
TORSDOF 6
ENDMDL
MODEL 2
REMARK VINA RESULT:     -12.6      9.148     13.861
REMARK  Name = 25023705
REMARK  6 active torsions:
REMARK  status: ('A' for Active; 'I' for Inactive)
REMARK    1  A    between atoms: C_1  and  C_8
REMARK    2  A    between atoms: C_1  and  C_20
REMARK    3  A    between atoms: C_20  and  N_22
REMARK    4  A    between atoms: C_23  and  C_25
REMARK    5  A    between atoms: C_30  and  O_31
REMARK    6  A    between atoms: O_31  and  C_32
REMARK                            x       y       z     vdW  Elec       q    Type
REMARK                         _______ _______ _______ _____ _____    ______ ____
ROOT
ATOM      1  C   UNL     1      31.880 -10.622 -20.362  0.00  0.00    +0.066 C 
ATOM      2  C   UNL     1      30.394 -10.982 -20.601  0.00  0.00    +0.009 C 
ATOM      3  C   UNL     1      32.319 -11.392 -19.092  0.00  0.00    +0.009 C 
ENDROOT
BRANCH   1   8
ATOM      4  N   UNL     1      31.808  -8.375 -21.370  0.00  0.00    -0.347 NA
ATOM      5  N   UNL     1      31.710  -6.321 -22.435  0.00  0.00    -0.266 NA
ATOM      6  N   UNL     1      32.095  -4.266 -21.241  0.00  0.00    -0.316 NA
ATOM      7  N   UNL     1      31.607  -4.248 -23.531  0.00  0.00    -0.283 N 
ATOM      8  C   UNL     1      32.003  -9.091 -20.236  0.00  0.00    +0.122 C 
ATOM      9  C   UNL     1      32.300  -8.534 -19.011  0.00  0.00    +0.026 C 
ATOM     10  C   UNL     1      32.400  -7.155 -18.952  0.00  0.00    +0.001 C 
ATOM     11  C   UNL     1      31.902  -7.040 -21.322  0.00  0.00    +0.137 C 
ATOM     12  C   UNL     1      32.200  -6.397 -20.115  0.00  0.00    +0.199 C 
ATOM     13  C   UNL     1      32.284  -5.007 -20.136  0.00  0.00    +0.187 C 
ATOM     14  C   UNL     1      31.815  -4.979 -22.341  0.00  0.00    +0.207 C 
ATOM     15  H   UNL     1      31.399  -4.722 -24.368  0.00  0.00    +0.156 HD
ATOM     16  H   UNL     1      31.671  -3.266 -23.522  0.00  0.00    +0.156 HD
ATOM     17  N   UNL     1      32.583  -4.309 -18.939  0.00  0.00    -0.334 N 
ATOM     18  H   UNL     1      32.644  -3.326 -18.945  0.00  0.00    +0.144 HD
ATOM     19  H   UNL     1      32.730  -4.807 -18.103  0.00  0.00    +0.144 HD
ENDBRANCH   1   8
BRANCH   1  20
ATOM     20  C   UNL     1      32.707 -11.148 -21.569  0.00  0.00    +0.096 C 
BRANCH  20  22
ATOM     21  O   UNL     1      34.241 -12.676 -23.453  0.00  0.00    -0.270 OA
ATOM     22  N   UNL     1      33.341 -12.418 -21.331  0.00  0.00    -0.300 N 
ATOM     23  C   UNL     1      34.067 -13.087 -22.309  0.00  0.00    +0.246 C 
ATOM     24  H   UNL     1      33.257 -12.830 -20.440  0.00  0.00    +0.150 HD
BRANCH  23  25
ATOM     25  C   UNL     1      34.636 -14.401 -21.913  0.00  0.00    +0.054 C 
ATOM     26  C   UNL     1      34.751 -14.733 -20.564  0.00  0.00    +0.008 C 
ATOM     27  C   UNL     1      35.056 -15.301 -22.894  0.00  0.00    +0.008 C 
ATOM     28  C   UNL     1      35.287 -15.967 -20.194  0.00  0.00    +0.038 C 
ATOM     29  C   UNL     1      35.592 -16.535 -22.523  0.00  0.00    +0.038 C 
ATOM     30  C   UNL     1      35.708 -16.867 -21.173  0.00  0.00    +0.145 C 
BRANCH  30  31
ATOM     31  O   UNL     1      36.233 -18.069 -20.812  0.00  0.00    -0.453 OA
BRANCH  31  32
ATOM     32  C   UNL     1      35.374 -19.009 -20.266  0.00  0.00    +0.145 C 
ATOM     33  C   UNL     1      34.012 -18.965 -20.565  0.00  0.00    +0.037 C 
ATOM     34  C   UNL     1      35.870 -19.998 -19.416  0.00  0.00    +0.037 C 
ATOM     35  C   UNL     1      33.146 -19.910 -20.015  0.00  0.00    +0.003 C 
ATOM     36  C   UNL     1      35.004 -20.943 -18.866  0.00  0.00    +0.003 C 
ATOM     37  C   UNL     1      33.643 -20.899 -19.165  0.00  0.00    +0.000 C 
ENDBRANCH  31  32
ENDBRANCH  30  31
ENDBRANCH  23  25
ENDBRANCH  20  22
ENDBRANCH   1  20
TORSDOF 6
ENDMDL
MODEL 3
REMARK VINA RESULT:     -12.3      8.915     13.784
REMARK  Name = 25023705
REMARK  6 active torsions:
REMARK  status: ('A' for Active; 'I' for Inactive)
REMARK    1  A    between atoms: C_1  and  C_8
REMARK    2  A    between atoms: C_1  and  C_20
REMARK    3  A    between atoms: C_20  and  N_22
REMARK    4  A    between atoms: C_23  and  C_25
REMARK    5  A    between atoms: C_30  and  O_31
REMARK    6  A    between atoms: O_31  and  C_32
REMARK                            x       y       z     vdW  Elec       q    Type
REMARK                         _______ _______ _______ _____ _____    ______ ____
ROOT
ATOM      1  C   UNL     1      31.867 -10.756 -20.453  0.00  0.00    +0.066 C 
ATOM      2  C   UNL     1      30.448 -11.072 -19.920  0.00  0.00    +0.009 C 
ATOM      3  C   UNL     1      32.860 -11.233 -19.366  0.00  0.00    +0.009 C 
ENDROOT
BRANCH   1   8
ATOM      4  N   UNL     1      32.161  -8.429 -19.702  0.00  0.00    -0.347 NA
ATOM      5  N   UNL     1      32.451  -6.287 -18.871  0.00  0.00    -0.266 NA
ATOM      6  N   UNL     1      32.423  -4.362 -20.318  0.00  0.00    -0.316 NA
ATOM      7  N   UNL     1      32.747  -4.123 -18.011  0.00  0.00    -0.283 N 
ATOM      8  C   UNL     1      31.954  -9.249 -20.760  0.00  0.00    +0.122 C 
ATOM      9  C   UNL     1      31.821  -8.815 -22.062  0.00  0.00    +0.026 C 
ATOM     10  C   UNL     1      31.906  -7.452 -22.284  0.00  0.00    +0.001 C 
ATOM     11  C   UNL     1      32.246  -7.108 -19.909  0.00  0.00    +0.137 C 
ATOM     12  C   UNL     1      32.121  -6.587 -21.201  0.00  0.00    +0.199 C 
ATOM     13  C   UNL     1      32.218  -5.204 -21.345  0.00  0.00    +0.187 C 
ATOM     14  C   UNL     1      32.530  -4.964 -19.125  0.00  0.00    +0.207 C 
ATOM     15  H   UNL     1      32.831  -4.511 -17.111  0.00  0.00    +0.156 HD
ATOM     16  H   UNL     1      32.812  -3.148 -18.136  0.00  0.00    +0.156 HD
ATOM     17  N   UNL     1      32.099  -4.628 -22.633  0.00  0.00    -0.334 N 
ATOM     18  H   UNL     1      32.166  -3.652 -22.743  0.00  0.00    +0.144 HD
ATOM     19  H   UNL     1      31.947  -5.203 -23.418  0.00  0.00    +0.144 HD
ENDBRANCH   1   8
BRANCH   1  20
ATOM     20  C   UNL     1      32.100 -11.599 -21.739  0.00  0.00    +0.096 C 
BRANCH  20  22
ATOM     21  O   UNL     1      34.535 -12.421 -23.019  0.00  0.00    -0.270 OA
ATOM     22  N   UNL     1      32.821 -12.825 -21.509  0.00  0.00    -0.300 N 
ATOM     23  C   UNL     1      33.996 -13.138 -22.179  0.00  0.00    +0.246 C 
ATOM     24  H   UNL     1      32.466 -13.466 -20.852  0.00  0.00    +0.150 HD
BRANCH  23  25
ATOM     25  C   UNL     1      34.604 -14.453 -21.849  0.00  0.00    +0.054 C 
ATOM     26  C   UNL     1      34.751 -14.839 -20.517  0.00  0.00    +0.008 C 
ATOM     27  C   UNL     1      35.027 -15.302 -22.873  0.00  0.00    +0.008 C 
ATOM     28  C   UNL     1      35.322 -16.073 -20.208  0.00  0.00    +0.038 C 
ATOM     29  C   UNL     1      35.597 -16.536 -22.564  0.00  0.00    +0.038 C 
ATOM     30  C   UNL     1      35.746 -16.922 -21.231  0.00  0.00    +0.145 C 
BRANCH  30  31
ATOM     31  O   UNL     1      36.305 -18.125 -20.930  0.00  0.00    -0.453 OA
BRANCH  31  32
ATOM     32  C   UNL     1      35.513 -19.059 -20.282  0.00  0.00    +0.145 C 
ATOM     33  C   UNL     1      36.092 -19.973 -19.403  0.00  0.00    +0.037 C 
ATOM     34  C   UNL     1      34.137 -19.085 -20.510  0.00  0.00    +0.037 C 
ATOM     35  C   UNL     1      35.296 -20.915 -18.751  0.00  0.00    +0.003 C 
ATOM     36  C   UNL     1      33.340 -20.027 -19.859  0.00  0.00    +0.003 C 
ATOM     37  C   UNL     1      33.919 -20.942 -18.979  0.00  0.00    +0.000 C 
ENDBRANCH  31  32
ENDBRANCH  30  31
ENDBRANCH  23  25
ENDBRANCH  20  22
ENDBRANCH   1  20
TORSDOF 6
ENDMDL
MODEL 4
REMARK VINA RESULT:     -11.9      4.744     10.691
REMARK  Name = 25023705
REMARK  6 active torsions:
REMARK  status: ('A' for Active; 'I' for Inactive)
REMARK    1  A    between atoms: C_1  and  C_8
REMARK    2  A    between atoms: C_1  and  C_20
REMARK    3  A    between atoms: C_20  and  N_22
REMARK    4  A    between atoms: C_23  and  C_25
REMARK    5  A    between atoms: C_30  and  O_31
REMARK    6  A    between atoms: O_31  and  C_32
REMARK                            x       y       z     vdW  Elec       q    Type
REMARK                         _______ _______ _______ _____ _____    ______ ____
ROOT
ATOM      1  C   UNL     1      35.697 -18.545 -21.237  0.00  0.00    +0.066 C 
ATOM      2  C   UNL     1      36.896 -18.612 -20.260  0.00  0.00    +0.009 C 
ATOM      3  C   UNL     1      36.159 -19.234 -22.545  0.00  0.00    +0.009 C 
ENDROOT
BRANCH   1   8
ATOM      4  N   UNL     1      34.986 -16.680 -22.680  0.00  0.00    -0.347 NA
ATOM      5  N   UNL     1      34.320 -15.010 -24.140  0.00  0.00    -0.266 NA
ATOM      6  N   UNL     1      33.872 -12.772 -23.372  0.00  0.00    -0.316 NA
ATOM      7  N   UNL     1      33.647 -13.330 -25.635  0.00  0.00    -0.283 N 
ATOM      8  C   UNL     1      35.289 -17.070 -21.419  0.00  0.00    +0.122 C 
ATOM      9  C   UNL     1      35.254 -16.238 -20.321  0.00  0.00    +0.026 C 
ATOM     10  C   UNL     1      34.881 -14.923 -20.537  0.00  0.00    +0.001 C 
ATOM     11  C   UNL     1      34.623 -15.408 -22.899  0.00  0.00    +0.137 C 
ATOM     12  C   UNL     1      34.563 -14.500 -21.836  0.00  0.00    +0.199 C 
ATOM     13  C   UNL     1      34.180 -13.194 -22.134  0.00  0.00    +0.187 C 
ATOM     14  C   UNL     1      33.962 -13.721 -24.315  0.00  0.00    +0.207 C 
ATOM     15  H   UNL     1      33.697 -13.986 -26.367  0.00  0.00    +0.156 HD
ATOM     16  H   UNL     1      33.379 -12.401 -25.822  0.00  0.00    +0.156 HD
ATOM     17  N   UNL     1      34.103 -12.236 -21.092  0.00  0.00    -0.334 N 
ATOM     18  H   UNL     1      33.834 -11.311 -21.294  0.00  0.00    +0.144 HD
ATOM     19  H   UNL     1      34.319 -12.496 -20.168  0.00  0.00    +0.144 HD
ENDBRANCH   1   8
BRANCH   1  20
ATOM     20  C   UNL     1      34.530 -19.373 -20.629  0.00  0.00    +0.096 C 
BRANCH  20  22
ATOM     21  O   UNL     1      33.166 -21.594 -19.426  0.00  0.00    -0.270 OA
ATOM     22  N   UNL     1      34.854 -20.004 -19.376  0.00  0.00    -0.300 N 
ATOM     23  C   UNL     1      34.133 -21.079 -18.872  0.00  0.00    +0.246 C 
ATOM     24  H   UNL     1      35.617 -19.661 -18.857  0.00  0.00    +0.150 HD
BRANCH  23  25
ATOM     25  C   UNL     1      34.578 -21.601 -17.554  0.00  0.00    +0.054 C 
ATOM     26  C   UNL     1      33.693 -22.323 -16.755  0.00  0.00    +0.008 C 
ATOM     27  C   UNL     1      35.882 -21.365 -17.116  0.00  0.00    +0.008 C 
ATOM     28  C   UNL     1      34.112 -22.811 -15.517  0.00  0.00    +0.038 C 
ATOM     29  C   UNL     1      36.300 -21.854 -15.878  0.00  0.00    +0.038 C 
ATOM     30  C   UNL     1      35.415 -22.576 -15.078  0.00  0.00    +0.145 C 
BRANCH  30  31
ATOM     31  O   UNL     1      35.822 -23.051 -13.870  0.00  0.00    -0.453 OA
BRANCH  31  32
ATOM     32  C   UNL     1      36.882 -23.942 -13.852  0.00  0.00    +0.145 C 
ATOM     33  C   UNL     1      38.064 -23.605 -13.193  0.00  0.00    +0.037 C 
ATOM     34  C   UNL     1      36.768 -25.175 -14.494  0.00  0.00    +0.037 C 
ATOM     35  C   UNL     1      39.133 -24.501 -13.175  0.00  0.00    +0.003 C 
ATOM     36  C   UNL     1      37.837 -26.071 -14.477  0.00  0.00    +0.003 C 
ATOM     37  C   UNL     1      39.019 -25.734 -13.818  0.00  0.00    +0.000 C 
ENDBRANCH  31  32
ENDBRANCH  30  31
ENDBRANCH  23  25
ENDBRANCH  20  22
ENDBRANCH   1  20
TORSDOF 6
ENDMDL
MODEL 5
REMARK VINA RESULT:     -11.7      5.011      8.305
REMARK  Name = 25023705
REMARK  6 active torsions:
REMARK  status: ('A' for Active; 'I' for Inactive)
REMARK    1  A    between atoms: C_1  and  C_8
REMARK    2  A    between atoms: C_1  and  C_20
REMARK    3  A    between atoms: C_20  and  N_22
REMARK    4  A    between atoms: C_23  and  C_25
REMARK    5  A    between atoms: C_30  and  O_31
REMARK    6  A    between atoms: O_31  and  C_32
REMARK                            x       y       z     vdW  Elec       q    Type
REMARK                         _______ _______ _______ _____ _____    ______ ____
ROOT
ATOM      1  C   UNL     1      35.483 -18.260 -21.896  0.00  0.00    +0.066 C 
ATOM      2  C   UNL     1      34.198 -17.877 -22.670  0.00  0.00    +0.009 C 
ATOM      3  C   UNL     1      36.446 -18.891 -22.932  0.00  0.00    +0.009 C 
ENDROOT
BRANCH   1   8
ATOM      4  N   UNL     1      36.093 -19.539 -19.881  0.00  0.00    -0.347 NA
ATOM      5  N   UNL     1      36.790 -20.693 -17.998  0.00  0.00    -0.266 NA
ATOM      6  N   UNL     1      35.270 -22.062 -16.727  0.00  0.00    -0.316 NA
ATOM      7  N   UNL     1      37.514 -21.856 -16.093  0.00  0.00    -0.283 N 
ATOM      8  C   UNL     1      35.101 -19.207 -20.742  0.00  0.00    +0.122 C 
ATOM      9  C   UNL     1      33.804 -19.662 -20.642  0.00  0.00    +0.026 C 
ATOM     10  C   UNL     1      33.512 -20.510 -19.588  0.00  0.00    +0.001 C 
ATOM     11  C   UNL     1      35.819 -20.358 -18.857  0.00  0.00    +0.137 C 
ATOM     12  C   UNL     1      34.525 -20.865 -18.685  0.00  0.00    +0.199 C 
ATOM     13  C   UNL     1      34.311 -21.712 -17.601  0.00  0.00    +0.187 C 
ATOM     14  C   UNL     1      36.470 -21.522 -16.982  0.00  0.00    +0.207 C 
ATOM     15  H   UNL     1      38.417 -21.489 -16.233  0.00  0.00    +0.156 HD
ATOM     16  H   UNL     1      37.339 -22.458 -15.333  0.00  0.00    +0.156 HD
ATOM     17  N   UNL     1      33.018 -22.251 -17.384  0.00  0.00    -0.334 N 
ATOM     18  H   UNL     1      32.858 -22.851 -16.620  0.00  0.00    +0.144 HD
ATOM     19  H   UNL     1      32.281 -22.026 -17.996  0.00  0.00    +0.144 HD
ENDBRANCH   1   8
BRANCH   1  20
ATOM     20  C   UNL     1      36.129 -16.955 -21.352  0.00  0.00    +0.096 C 
BRANCH  20  22
ATOM     21  O   UNL     1      35.267 -15.279 -19.187  0.00  0.00    -0.270 OA
ATOM     22  N   UNL     1      35.275 -15.799 -21.447  0.00  0.00    -0.300 N 
ATOM     23  C   UNL     1      34.910 -15.046 -20.339  0.00  0.00    +0.246 C 
ATOM     24  H   UNL     1      34.937 -15.532 -22.333  0.00  0.00    +0.150 HD
BRANCH  23  25
ATOM     25  C   UNL     1      34.002 -13.900 -20.601  0.00  0.00    +0.054 C 
ATOM     26  C   UNL     1      32.911 -13.669 -19.764  0.00  0.00    +0.008 C 
ATOM     27  C   UNL     1      34.241 -13.055 -21.686  0.00  0.00    +0.008 C 
ATOM     28  C   UNL     1      32.058 -12.594 -20.011  0.00  0.00    +0.038 C 
ATOM     29  C   UNL     1      33.388 -11.979 -21.932  0.00  0.00    +0.038 C 
ATOM     30  C   UNL     1      32.296 -11.749 -21.095  0.00  0.00    +0.145 C 
BRANCH  30  31
ATOM     31  O   UNL     1      31.463 -10.701 -21.338  0.00  0.00    -0.453 OA
BRANCH  31  32
ATOM     32  C   UNL     1      31.925  -9.429 -21.043  0.00  0.00    +0.145 C 
ATOM     33  C   UNL     1      32.013  -9.011 -19.715  0.00  0.00    +0.037 C 
ATOM     34  C   UNL     1      32.299  -8.567 -22.073  0.00  0.00    +0.037 C 
ATOM     35  C   UNL     1      32.477  -7.730 -19.417  0.00  0.00    +0.003 C 
ATOM     36  C   UNL     1      32.764  -7.285 -21.775  0.00  0.00    +0.003 C 
ATOM     37  C   UNL     1      32.852  -6.867 -20.447  0.00  0.00    +0.000 C 
ENDBRANCH  31  32
ENDBRANCH  30  31
ENDBRANCH  23  25
ENDBRANCH  20  22
ENDBRANCH   1  20
TORSDOF 6
ENDMDL
MODEL 6
REMARK VINA RESULT:     -11.6      4.972     11.253
REMARK  Name = 25023705
REMARK  6 active torsions:
REMARK  status: ('A' for Active; 'I' for Inactive)
REMARK    1  A    between atoms: C_1  and  C_8
REMARK    2  A    between atoms: C_1  and  C_20
REMARK    3  A    between atoms: C_20  and  N_22
REMARK    4  A    between atoms: C_23  and  C_25
REMARK    5  A    between atoms: C_30  and  O_31
REMARK    6  A    between atoms: O_31  and  C_32
REMARK                            x       y       z     vdW  Elec       q    Type
REMARK                         _______ _______ _______ _____ _____    ______ ____
ROOT
ATOM      1  C   UNL     1      35.997 -17.681 -21.093  0.00  0.00    +0.066 C 
ATOM      2  C   UNL     1      36.027 -17.008 -19.699  0.00  0.00    +0.009 C 
ATOM      3  C   UNL     1      37.458 -18.077 -21.420  0.00  0.00    +0.009 C 
ENDROOT
BRANCH   1   8
ATOM      4  N   UNL     1      35.302 -15.400 -21.714  0.00  0.00    -0.347 NA
ATOM      5  N   UNL     1      34.694 -13.215 -22.180  0.00  0.00    -0.266 NA
ATOM      6  N   UNL     1      33.671 -12.614 -24.276  0.00  0.00    -0.316 NA
ATOM      7  N   UNL     1      34.083 -10.995 -22.635  0.00  0.00    -0.283 N 
ATOM      8  C   UNL     1      35.376 -16.696 -22.103  0.00  0.00    +0.122 C 
ATOM      9  C   UNL     1      34.934 -17.166 -23.321  0.00  0.00    +0.026 C 
ATOM     10  C   UNL     1      34.384 -16.242 -24.192  0.00  0.00    +0.001 C 
ATOM     11  C   UNL     1      34.771 -14.499 -22.552  0.00  0.00    +0.137 C 
ATOM     12  C   UNL     1      34.299 -14.896 -23.808  0.00  0.00    +0.199 C 
ATOM     13  C   UNL     1      33.759 -13.907 -24.628  0.00  0.00    +0.187 C 
ATOM     14  C   UNL     1      34.151 -12.342 -23.054  0.00  0.00    +0.207 C 
ATOM     15  H   UNL     1      34.421 -10.739 -21.746  0.00  0.00    +0.156 HD
ATOM     16  H   UNL     1      33.697 -10.313 -23.231  0.00  0.00    +0.156 HD
ATOM     17  N   UNL     1      33.268 -14.258 -25.910  0.00  0.00    -0.334 N 
ATOM     18  H   UNL     1      32.884 -13.566 -26.496  0.00  0.00    +0.144 HD
ATOM     19  H   UNL     1      33.310 -15.193 -26.214  0.00  0.00    +0.144 HD
ENDBRANCH   1   8
BRANCH   1  20
ATOM     20  C   UNL     1      35.146 -18.978 -20.987  0.00  0.00    +0.096 C 
BRANCH  20  22
ATOM     21  O   UNL     1      36.827 -21.154 -20.163  0.00  0.00    -0.270 OA
ATOM     22  N   UNL     1      35.180 -19.592 -19.685  0.00  0.00    -0.300 N 
ATOM     23  C   UNL     1      36.031 -20.646 -19.378  0.00  0.00    +0.246 C 
ATOM     24  H   UNL     1      34.576 -19.252 -18.985  0.00  0.00    +0.150 HD
BRANCH  23  25
ATOM     25  C   UNL     1      35.926 -21.187 -17.998  0.00  0.00    +0.054 C 
ATOM     26  C   UNL     1      34.766 -21.847 -17.594  0.00  0.00    +0.008 C 
ATOM     27  C   UNL     1      36.988 -21.031 -17.106  0.00  0.00    +0.008 C 
ATOM     28  C   UNL     1      34.668 -22.354 -16.298  0.00  0.00    +0.038 C 
ATOM     29  C   UNL     1      36.889 -21.539 -15.810  0.00  0.00    +0.038 C 
ATOM     30  C   UNL     1      35.729 -22.199 -15.406  0.00  0.00    +0.145 C 
BRANCH  30  31
ATOM     31  O   UNL     1      35.632 -22.691 -14.141  0.00  0.00    -0.453 OA
BRANCH  31  32
ATOM     32  C   UNL     1      36.619 -23.563 -13.712  0.00  0.00    +0.145 C 
ATOM     33  C   UNL     1      36.759 -24.810 -14.320  0.00  0.00    +0.037 C 
ATOM     34  C   UNL     1      37.471 -23.194 -12.671  0.00  0.00    +0.037 C 
ATOM     35  C   UNL     1      37.752 -25.690 -13.888  0.00  0.00    +0.003 C 
ATOM     36  C   UNL     1      38.464 -24.074 -12.239  0.00  0.00    +0.003 C 
ATOM     37  C   UNL     1      38.604 -25.321 -12.847  0.00  0.00    +0.000 C 
ENDBRANCH  31  32
ENDBRANCH  30  31
ENDBRANCH  23  25
ENDBRANCH  20  22
ENDBRANCH   1  20
TORSDOF 6
ENDMDL
MODEL 7
REMARK VINA RESULT:     -11.5      2.924      5.515
REMARK  Name = 25023705
REMARK  6 active torsions:
REMARK  status: ('A' for Active; 'I' for Inactive)
REMARK    1  A    between atoms: C_1  and  C_8
REMARK    2  A    between atoms: C_1  and  C_20
REMARK    3  A    between atoms: C_20  and  N_22
REMARK    4  A    between atoms: C_23  and  C_25
REMARK    5  A    between atoms: C_30  and  O_31
REMARK    6  A    between atoms: O_31  and  C_32
REMARK                            x       y       z     vdW  Elec       q    Type
REMARK                         _______ _______ _______ _____ _____    ______ ____
ROOT
ATOM      1  C   UNL     1      35.601 -20.768 -19.145  0.00  0.00    +0.066 C 
ATOM      2  C   UNL     1      34.165 -20.195 -19.228  0.00  0.00    +0.009 C 
ATOM      3  C   UNL     1      35.698 -21.865 -20.234  0.00  0.00    +0.009 C 
ENDROOT
BRANCH   1   8
ATOM      4  N   UNL     1      34.825 -21.967 -17.138  0.00  0.00    -0.347 NA
ATOM      5  N   UNL     1      33.981 -23.117 -15.314  0.00  0.00    -0.266 NA
ATOM      6  N   UNL     1      35.283 -23.432 -13.313  0.00  0.00    -0.316 NA
ATOM      7  N   UNL     1      33.109 -24.286 -13.475  0.00  0.00    -0.283 N 
ATOM      8  C   UNL     1      35.845 -21.286 -17.715  0.00  0.00    +0.122 C 
ATOM      9  C   UNL     1      37.055 -21.037 -17.103  0.00  0.00    +0.026 C 
ATOM     10  C   UNL     1      37.223 -21.523 -15.818  0.00  0.00    +0.001 C 
ATOM     11  C   UNL     1      34.980 -22.442 -15.895  0.00  0.00    +0.137 C 
ATOM     12  C   UNL     1      36.179 -22.232 -15.204  0.00  0.00    +0.199 C 
ATOM     13  C   UNL     1      36.273 -22.751 -13.915  0.00  0.00    +0.187 C 
ATOM     14  C   UNL     1      34.180 -23.576 -14.061  0.00  0.00    +0.207 C 
ATOM     15  H   UNL     1      32.274 -24.421 -13.979  0.00  0.00    +0.156 HD
ATOM     16  H   UNL     1      33.197 -24.644 -12.562  0.00  0.00    +0.156 HD
ATOM     17  N   UNL     1      37.466 -22.566 -13.174  0.00  0.00    -0.334 N 
ATOM     18  H   UNL     1      37.540 -22.929 -12.262  0.00  0.00    +0.144 HD
ATOM     19  H   UNL     1      38.220 -22.073 -13.571  0.00  0.00    +0.144 HD
ENDBRANCH   1   8
BRANCH   1  20
ATOM     20  C   UNL     1      36.599 -19.630 -19.501  0.00  0.00    +0.096 C 
BRANCH  20  22
ATOM     21  O   UNL     1      37.397 -17.911 -21.657  0.00  0.00    -0.270 OA
ATOM     22  N   UNL     1      35.962 -18.402 -19.902  0.00  0.00    -0.300 N 
ATOM     23  C   UNL     1      36.423 -17.633 -20.964  0.00  0.00    +0.246 C 
ATOM     24  H   UNL     1      35.170 -18.095 -19.404  0.00  0.00    +0.150 HD
BRANCH  23  25
ATOM     25  C   UNL     1      35.672 -16.380 -21.234  0.00  0.00    +0.054 C 
ATOM     26  C   UNL     1      35.164 -15.630 -20.174  0.00  0.00    +0.008 C 
ATOM     27  C   UNL     1      35.476 -15.955 -22.548  0.00  0.00    +0.008 C 
ATOM     28  C   UNL     1      34.458 -14.453 -20.429  0.00  0.00    +0.038 C 
ATOM     29  C   UNL     1      34.771 -14.778 -22.802  0.00  0.00    +0.038 C 
ATOM     30  C   UNL     1      34.262 -14.028 -21.742  0.00  0.00    +0.145 C 
BRANCH  30  31
ATOM     31  O   UNL     1      33.571 -12.882 -21.991  0.00  0.00    -0.453 OA
BRANCH  31  32
ATOM     32  C   UNL     1      33.777 -12.257 -23.210  0.00  0.00    +0.145 C 
ATOM     33  C   UNL     1      33.518 -12.943 -24.396  0.00  0.00    +0.037 C 
ATOM     34  C   UNL     1      34.245 -10.944 -23.251  0.00  0.00    +0.037 C 
ATOM     35  C   UNL     1      33.726 -12.316 -25.624  0.00  0.00    +0.003 C 
ATOM     36  C   UNL     1      34.454 -10.316 -24.479  0.00  0.00    +0.003 C 
ATOM     37  C   UNL     1      34.194 -11.002 -25.665  0.00  0.00    +0.000 C 
ENDBRANCH  31  32
ENDBRANCH  30  31
ENDBRANCH  23  25
ENDBRANCH  20  22
ENDBRANCH   1  20
TORSDOF 6
ENDMDL
MODEL 8
REMARK VINA RESULT:     -11.5      2.861      4.898
REMARK  Name = 25023705
REMARK  6 active torsions:
REMARK  status: ('A' for Active; 'I' for Inactive)
REMARK    1  A    between atoms: C_1  and  C_8
REMARK    2  A    between atoms: C_1  and  C_20
REMARK    3  A    between atoms: C_20  and  N_22
REMARK    4  A    between atoms: C_23  and  C_25
REMARK    5  A    between atoms: C_30  and  O_31
REMARK    6  A    between atoms: O_31  and  C_32
REMARK                            x       y       z     vdW  Elec       q    Type
REMARK                         _______ _______ _______ _____ _____    ______ ____
ROOT
ATOM      1  C   UNL     1      34.476 -21.441 -18.771  0.00  0.00    +0.066 C 
ATOM      2  C   UNL     1      33.183 -20.643 -19.065  0.00  0.00    +0.009 C 
ATOM      3  C   UNL     1      34.568 -22.543 -19.855  0.00  0.00    +0.009 C 
ENDROOT
BRANCH   1   8
ATOM      4  N   UNL     1      35.561 -21.992 -16.629  0.00  0.00    -0.347 NA
ATOM      5  N   UNL     1      36.696 -22.465 -14.666  0.00  0.00    -0.266 NA
ATOM      6  N   UNL     1      35.571 -23.414 -12.760  0.00  0.00    -0.316 NA
ATOM      7  N   UNL     1      37.863 -22.938 -12.685  0.00  0.00    -0.283 N 
ATOM      8  C   UNL     1      34.403 -21.986 -17.331  0.00  0.00    +0.122 C 
ATOM      9  C   UNL     1      33.195 -22.433 -16.838  0.00  0.00    +0.026 C 
ATOM     10  C   UNL     1      33.183 -22.913 -15.540  0.00  0.00    +0.001 C 
ATOM     11  C   UNL     1      35.558 -22.455 -15.371  0.00  0.00    +0.137 C 
ATOM     12  C   UNL     1      34.372 -22.926 -14.797  0.00  0.00    +0.199 C 
ATOM     13  C   UNL     1      34.441 -23.394 -13.486  0.00  0.00    +0.187 C 
ATOM     14  C   UNL     1      36.647 -22.940 -13.404  0.00  0.00    +0.207 C 
ATOM     15  H   UNL     1      38.685 -22.602 -13.110  0.00  0.00    +0.156 HD
ATOM     16  H   UNL     1      37.887 -23.273 -11.760  0.00  0.00    +0.156 HD
ATOM     17  N   UNL     1      33.267 -23.882 -12.859  0.00  0.00    -0.334 N 
ATOM     18  H   UNL     1      33.307 -24.214 -11.933  0.00  0.00    +0.144 HD
ATOM     19  H   UNL     1      32.414 -23.889 -13.349  0.00  0.00    +0.144 HD
ENDBRANCH   1   8
BRANCH   1  20
ATOM     20  C   UNL     1      35.688 -20.481 -18.939  0.00  0.00    +0.096 C 
BRANCH  20  22
ATOM     21  O   UNL     1      37.455 -18.837 -20.493  0.00  0.00    -0.270 OA
ATOM     22  N   UNL     1      35.359 -19.236 -19.584  0.00  0.00    -0.300 N 
ATOM     23  C   UNL     1      36.286 -18.507 -20.318  0.00  0.00    +0.246 C 
ATOM     24  H   UNL     1      34.442 -18.888 -19.500  0.00  0.00    +0.150 HD
BRANCH  23  25
ATOM     25  C   UNL     1      35.797 -17.229 -20.898  0.00  0.00    +0.054 C 
ATOM     26  C   UNL     1      35.705 -17.081 -22.281  0.00  0.00    +0.008 C 
ATOM     27  C   UNL     1      35.431 -16.178 -20.057  0.00  0.00    +0.008 C 
ATOM     28  C   UNL     1      35.247 -15.881 -22.825  0.00  0.00    +0.038 C 
ATOM     29  C   UNL     1      34.973 -14.978 -20.601  0.00  0.00    +0.038 C 
ATOM     30  C   UNL     1      34.882 -14.829 -21.985  0.00  0.00    +0.145 C 
BRANCH  30  31
ATOM     31  O   UNL     1      34.437 -13.658 -22.515  0.00  0.00    -0.453 OA
BRANCH  31  32
ATOM     32  C   UNL     1      33.541 -12.911 -21.768  0.00  0.00    +0.145 C 
ATOM     33  C   UNL     1      33.225 -11.610 -22.156  0.00  0.00    +0.037 C 
ATOM     34  C   UNL     1      32.957 -13.461 -20.626  0.00  0.00    +0.037 C 
ATOM     35  C   UNL     1      32.323 -10.857 -21.403  0.00  0.00    +0.003 C 
ATOM     36  C   UNL     1      32.055 -12.708 -19.873  0.00  0.00    +0.003 C 
ATOM     37  C   UNL     1      31.739 -11.407 -20.261  0.00  0.00    +0.000 C 
ENDBRANCH  31  32
ENDBRANCH  30  31
ENDBRANCH  23  25
ENDBRANCH  20  22
ENDBRANCH   1  20
TORSDOF 6
ENDMDL
MODEL 9
REMARK VINA RESULT:     -11.5      3.302      5.693
REMARK  Name = 25023705
REMARK  6 active torsions:
REMARK  status: ('A' for Active; 'I' for Inactive)
REMARK    1  A    between atoms: C_1  and  C_8
REMARK    2  A    between atoms: C_1  and  C_20
REMARK    3  A    between atoms: C_20  and  N_22
REMARK    4  A    between atoms: C_23  and  C_25
REMARK    5  A    between atoms: C_30  and  O_31
REMARK    6  A    between atoms: O_31  and  C_32
REMARK                            x       y       z     vdW  Elec       q    Type
REMARK                         _______ _______ _______ _____ _____    ______ ____
ROOT
ATOM      1  C   UNL     1      35.651 -20.724 -19.140  0.00  0.00    +0.066 C 
ATOM      2  C   UNL     1      34.198 -20.207 -19.274  0.00  0.00    +0.009 C 
ATOM      3  C   UNL     1      35.837 -21.800 -20.238  0.00  0.00    +0.009 C 
ENDROOT
BRANCH   1   8
ATOM      4  N   UNL     1      34.828 -21.953 -17.170  0.00  0.00    -0.347 NA
ATOM      5  N   UNL     1      33.942 -23.132 -15.384  0.00  0.00    -0.266 NA
ATOM      6  N   UNL     1      35.184 -23.451 -13.347  0.00  0.00    -0.316 NA
ATOM      7  N   UNL     1      33.026 -24.329 -13.585  0.00  0.00    -0.283 N 
ATOM      8  C   UNL     1      35.856 -21.254 -17.707  0.00  0.00    +0.122 C 
ATOM      9  C   UNL     1      37.043 -20.997 -17.055  0.00  0.00    +0.026 C 
ATOM     10  C   UNL     1      37.177 -21.494 -15.770  0.00  0.00    +0.001 C 
ATOM     11  C   UNL     1      34.950 -22.439 -15.927  0.00  0.00    +0.137 C 
ATOM     12  C   UNL     1      36.124 -22.221 -15.197  0.00  0.00    +0.199 C 
ATOM     13  C   UNL     1      36.184 -22.753 -13.911  0.00  0.00    +0.187 C 
ATOM     14  C   UNL     1      34.107 -23.601 -14.130  0.00  0.00    +0.207 C 
ATOM     15  H   UNL     1      32.210 -24.469 -14.116  0.00  0.00    +0.156 HD
ATOM     16  H   UNL     1      33.090 -24.696 -12.673  0.00  0.00    +0.156 HD
ATOM     17  N   UNL     1      37.351 -22.561 -13.131  0.00  0.00    -0.334 N 
ATOM     18  H   UNL     1      37.401 -22.933 -12.221  0.00  0.00    +0.144 HD
ATOM     19  H   UNL     1      38.111 -22.055 -13.499  0.00  0.00    +0.144 HD
ENDBRANCH   1   8
BRANCH   1  20
ATOM     20  C   UNL     1      36.616 -19.542 -19.438  0.00  0.00    +0.096 C 
BRANCH  20  22
ATOM     21  O   UNL     1      37.435 -17.969 -21.695  0.00  0.00    -0.270 OA
ATOM     22  N   UNL     1      35.957 -18.369 -19.952  0.00  0.00    -0.300 N 
ATOM     23  C   UNL     1      36.430 -17.670 -21.055  0.00  0.00    +0.246 C 
ATOM     24  H   UNL     1      35.141 -18.050 -19.504  0.00  0.00    +0.150 HD
BRANCH  23  25
ATOM     25  C   UNL     1      35.653 -16.464 -21.444  0.00  0.00    +0.054 C 
ATOM     26  C   UNL     1      35.274 -15.536 -20.476  0.00  0.00    +0.008 C 
ATOM     27  C   UNL     1      35.302 -16.263 -22.780  0.00  0.00    +0.008 C 
ATOM     28  C   UNL     1      34.543 -14.406 -20.842  0.00  0.00    +0.038 C 
ATOM     29  C   UNL     1      34.572 -15.132 -23.146  0.00  0.00    +0.038 C 
ATOM     30  C   UNL     1      34.192 -14.204 -22.176  0.00  0.00    +0.145 C 
BRANCH  30  31
ATOM     31  O   UNL     1      33.477 -13.103 -22.533  0.00  0.00    -0.453 OA
BRANCH  31  32
ATOM     32  C   UNL     1      32.839 -12.395 -21.528  0.00  0.00    +0.145 C 
ATOM     33  C   UNL     1      32.633 -11.023 -21.664  0.00  0.00    +0.037 C 
ATOM     34  C   UNL     1      32.405 -13.056 -20.378  0.00  0.00    +0.037 C 
ATOM     35  C   UNL     1      31.992 -10.310 -20.651  0.00  0.00    +0.003 C 
ATOM     36  C   UNL     1      31.763 -12.342 -19.365  0.00  0.00    +0.003 C 
ATOM     37  C   UNL     1      31.557 -10.970 -19.501  0.00  0.00    +0.000 C 
ENDBRANCH  31  32
ENDBRANCH  30  31
ENDBRANCH  23  25
ENDBRANCH  20  22
ENDBRANCH   1  20
TORSDOF 6
ENDMDL
