MODEL 1
REMARK VINA RESULT:      -9.6      0.000      0.000
REMARK  Name = 6957673
REMARK  9 active torsions:
REMARK  status: ('A' for Active; 'I' for Inactive)
REMARK    1  A    between atoms: C_1  and  C_4
REMARK    2  A    between atoms: C_1  and  N_17
REMARK    3  A    between atoms: C_1  and  C_26
REMARK    4  A    between atoms: N_3  and  C_6
REMARK    5  A    between atoms: C_11  and  C_13
REMARK    6  A    between atoms: C_13  and  O_14
REMARK    7  A    between atoms: C_18  and  C_20
REMARK    8  A    between atoms: C_26  and  C_27
REMARK    9  A    between atoms: C_32  and  O_33
REMARK                            x       y       z     vdW  Elec       q    Type
REMARK                         _______ _______ _______ _____ _____    ______ ____
ROOT
ATOM      1  C   UNL     1      33.208  -8.629 -22.670  0.00  0.00    +0.153 C 
ENDROOT
BRANCH   1   4
ATOM      2  O   UNL     1      34.532  -9.752 -24.346  0.00  0.00    -0.273 OA
ATOM      3  N   UNL     1      33.448 -11.031 -22.703  0.00  0.00    -0.283 N 
ATOM      4  C   UNL     1      33.802  -9.857 -23.363  0.00  0.00    +0.244 C 
ATOM      5  H   UNL     1      32.884 -10.926 -21.904  0.00  0.00    +0.155 HD
BRANCH   3   6
ATOM      6  C   UNL     1      33.806 -12.356 -23.045  0.00  0.00    +0.050 C 
ATOM      7  C   UNL     1      34.624 -13.079 -22.191  0.00  0.00    +0.015 C 
ATOM      8  C   UNL     1      33.332 -12.905 -24.225  0.00  0.00    +0.015 C 
ATOM      9  C   UNL     1      34.977 -14.385 -22.527  0.00  0.00    +0.008 C 
ATOM     10  C   UNL     1      33.684 -14.212 -24.560  0.00  0.00    +0.008 C 
ATOM     11  C   UNL     1      34.507 -14.952 -23.711  0.00  0.00    +0.076 C 
BRANCH  11  13
ATOM     12  O   UNL     1      34.428 -16.952 -25.021  0.00  0.00    -0.245 OA
ATOM     13  C   UNL     1      34.874 -16.315 -24.061  0.00  0.00    +0.338 C 
BRANCH  13  14
ATOM     14  O   UNL     1      35.788 -16.844 -23.203  0.00  0.00    -0.477 OA
ATOM     15  H   UNL     1      36.704 -16.745 -23.374  0.00  0.00    +0.295 HD
ENDBRANCH  13  14
ENDBRANCH  11  13
ENDBRANCH   3   6
ENDBRANCH   1   4
BRANCH   1  17
ATOM     16  O   UNL     1      32.728  -5.845 -22.155  0.00  0.00    -0.270 OA
ATOM     17  N   UNL     1      33.222  -7.559 -23.638  0.00  0.00    -0.295 N 
ATOM     18  C   UNL     1      32.977  -6.238 -23.293  0.00  0.00    +0.246 C 
ATOM     19  H   UNL     1      33.413  -7.775 -24.580  0.00  0.00    +0.150 HD
BRANCH  18  20
ATOM     20  C   UNL     1      33.001  -5.259 -24.409  0.00  0.00    +0.053 C 
ATOM     21  C   UNL     1      32.001  -4.312 -24.487  0.00  0.00    +0.005 C 
ATOM     22  C   UNL     1      34.022  -5.328 -25.333  0.00  0.00    +0.005 C 
ATOM     23  C   UNL     1      32.024  -3.392 -25.535  0.00  0.00    +0.000 C 
ATOM     24  C   UNL     1      34.046  -4.409 -26.383  0.00  0.00    +0.000 C 
ATOM     25  C   UNL     1      33.047  -3.441 -26.483  0.00  0.00    +0.000 C 
ENDBRANCH  18  20
ENDBRANCH   1  17
BRANCH   1  26
ATOM     26  C   UNL     1      31.780  -8.893 -22.181  0.00  0.00    +0.055 C 
BRANCH  26  27
ATOM     27  C   UNL     1      31.713  -9.370 -20.751  0.00  0.00    -0.020 C 
ATOM     28  C   UNL     1      31.035 -10.543 -20.457  0.00  0.00    -0.001 C 
ATOM     29  C   UNL     1      32.332  -8.627 -19.757  0.00  0.00    -0.001 C 
ATOM     30  C   UNL     1      30.972 -10.983 -19.135  0.00  0.00    +0.036 C 
ATOM     31  C   UNL     1      32.269  -9.069 -18.435  0.00  0.00    +0.036 C 
ATOM     32  C   UNL     1      31.590 -10.246 -18.125  0.00  0.00    +0.134 C 
BRANCH  32  33
ATOM     33  O   UNL     1      31.530 -10.677 -16.834  0.00  0.00    -0.506 OA
ATOM     34  H   UNL     1      31.918 -11.495 -16.596  0.00  0.00    +0.292 HD
ENDBRANCH  32  33
ENDBRANCH  26  27
ENDBRANCH   1  26
TORSDOF 9
ENDMDL
MODEL 2
REMARK VINA RESULT:      -9.5      1.731      2.395
REMARK  Name = 6957673
REMARK  9 active torsions:
REMARK  status: ('A' for Active; 'I' for Inactive)
REMARK    1  A    between atoms: C_1  and  C_4
REMARK    2  A    between atoms: C_1  and  N_17
REMARK    3  A    between atoms: C_1  and  C_26
REMARK    4  A    between atoms: N_3  and  C_6
REMARK    5  A    between atoms: C_11  and  C_13
REMARK    6  A    between atoms: C_13  and  O_14
REMARK    7  A    between atoms: C_18  and  C_20
REMARK    8  A    between atoms: C_26  and  C_27
REMARK    9  A    between atoms: C_32  and  O_33
REMARK                            x       y       z     vdW  Elec       q    Type
REMARK                         _______ _______ _______ _____ _____    ______ ____
ROOT
ATOM      1  C   UNL     1      33.732  -9.139 -22.996  0.00  0.00    +0.153 C 
ENDROOT
BRANCH   1   4
ATOM      2  O   UNL     1      34.022 -10.486 -24.977  0.00  0.00    -0.273 OA
ATOM      3  N   UNL     1      33.941 -11.542 -22.883  0.00  0.00    -0.283 N 
ATOM      4  C   UNL     1      33.898 -10.458 -23.755  0.00  0.00    +0.244 C 
ATOM      5  H   UNL     1      33.863 -11.331 -21.925  0.00  0.00    +0.155 HD
BRANCH   3   6
ATOM      6  C   UNL     1      34.084 -12.910 -23.211  0.00  0.00    +0.050 C 
ATOM      7  C   UNL     1      33.479 -13.398 -24.359  0.00  0.00    +0.015 C 
ATOM      8  C   UNL     1      34.827 -13.734 -22.382  0.00  0.00    +0.015 C 
ATOM      9  C   UNL     1      33.620 -14.747 -24.684  0.00  0.00    +0.008 C 
ATOM     10  C   UNL     1      34.970 -15.082 -22.708  0.00  0.00    +0.008 C 
ATOM     11  C   UNL     1      34.366 -15.589 -23.859  0.00  0.00    +0.076 C 
BRANCH  11  13
ATOM     12  O   UNL     1      34.105 -17.528 -25.236  0.00  0.00    -0.245 OA
ATOM     13  C   UNL     1      34.515 -16.995 -24.200  0.00  0.00    +0.338 C 
BRANCH  13  14
ATOM     14  O   UNL     1      35.174 -17.696 -23.237  0.00  0.00    -0.477 OA
ATOM     15  H   UNL     1      34.971 -18.600 -23.095  0.00  0.00    +0.295 HD
ENDBRANCH  13  14
ENDBRANCH  11  13
ENDBRANCH   3   6
ENDBRANCH   1   4
BRANCH   1  17
ATOM     16  O   UNL     1      35.913  -7.294 -23.282  0.00  0.00    -0.270 OA
ATOM     17  N   UNL     1      33.844  -8.082 -23.972  0.00  0.00    -0.295 N 
ATOM     18  C   UNL     1      34.942  -7.237 -24.033  0.00  0.00    +0.246 C 
ATOM     19  H   UNL     1      33.113  -7.957 -24.621  0.00  0.00    +0.150 HD
BRANCH  18  20
ATOM     20  C   UNL     1      34.893  -6.182 -25.077  0.00  0.00    +0.053 C 
ATOM     21  C   UNL     1      33.799  -5.344 -25.129  0.00  0.00    +0.005 C 
ATOM     22  C   UNL     1      35.945  -6.074 -25.964  0.00  0.00    +0.005 C 
ATOM     23  C   UNL     1      33.754  -4.354 -26.109  0.00  0.00    +0.000 C 
ATOM     24  C   UNL     1      35.901  -5.084 -26.945  0.00  0.00    +0.000 C 
ATOM     25  C   UNL     1      34.805  -4.223 -27.018  0.00  0.00    +0.000 C 
ENDBRANCH  18  20
ENDBRANCH   1  17
BRANCH   1  26
ATOM     26  C   UNL     1      32.380  -9.068 -22.280  0.00  0.00    +0.055 C 
BRANCH  26  27
ATOM     27  C   UNL     1      32.373  -8.123 -21.103  0.00  0.00    -0.020 C 
ATOM     28  C   UNL     1      32.396  -6.755 -21.330  0.00  0.00    -0.001 C 
ATOM     29  C   UNL     1      32.341  -8.639 -19.817  0.00  0.00    -0.001 C 
ATOM     30  C   UNL     1      32.390  -5.882 -20.242  0.00  0.00    +0.036 C 
ATOM     31  C   UNL     1      32.335  -7.765 -18.730  0.00  0.00    +0.036 C 
ATOM     32  C   UNL     1      32.359  -6.387 -18.943  0.00  0.00    +0.134 C 
BRANCH  32  33
ATOM     33  O   UNL     1      32.352  -5.535 -17.881  0.00  0.00    -0.506 OA
ATOM     34  H   UNL     1      32.815  -4.722 -17.931  0.00  0.00    +0.292 HD
ENDBRANCH  32  33
ENDBRANCH  26  27
ENDBRANCH   1  26
TORSDOF 9
ENDMDL
MODEL 3
REMARK VINA RESULT:      -9.4      1.731      2.143
REMARK  Name = 6957673
REMARK  9 active torsions:
REMARK  status: ('A' for Active; 'I' for Inactive)
REMARK    1  A    between atoms: C_1  and  C_4
REMARK    2  A    between atoms: C_1  and  N_17
REMARK    3  A    between atoms: C_1  and  C_26
REMARK    4  A    between atoms: N_3  and  C_6
REMARK    5  A    between atoms: C_11  and  C_13
REMARK    6  A    between atoms: C_13  and  O_14
REMARK    7  A    between atoms: C_18  and  C_20
REMARK    8  A    between atoms: C_26  and  C_27
REMARK    9  A    between atoms: C_32  and  O_33
REMARK                            x       y       z     vdW  Elec       q    Type
REMARK                         _______ _______ _______ _____ _____    ______ ____
ROOT
ATOM      1  C   UNL     1      33.697  -9.158 -22.993  0.00  0.00    +0.153 C 
ENDROOT
BRANCH   1   4
ATOM      2  O   UNL     1      33.903 -10.512 -24.979  0.00  0.00    -0.273 OA
ATOM      3  N   UNL     1      33.951 -11.556 -22.878  0.00  0.00    -0.283 N 
ATOM      4  C   UNL     1      33.843 -10.478 -23.753  0.00  0.00    +0.244 C 
ATOM      5  H   UNL     1      33.921 -11.341 -21.918  0.00  0.00    +0.155 HD
BRANCH   3   6
ATOM      6  C   UNL     1      34.099 -12.924 -23.207  0.00  0.00    +0.050 C 
ATOM      7  C   UNL     1      34.807 -13.753 -22.351  0.00  0.00    +0.015 C 
ATOM      8  C   UNL     1      33.534 -13.407 -24.375  0.00  0.00    +0.015 C 
ATOM      9  C   UNL     1      34.953 -15.102 -22.674  0.00  0.00    +0.008 C 
ATOM     10  C   UNL     1      33.679 -14.756 -24.697  0.00  0.00    +0.008 C 
ATOM     11  C   UNL     1      34.389 -15.604 -23.847  0.00  0.00    +0.076 C 
BRANCH  11  13
ATOM     12  O   UNL     1      34.117 -17.550 -25.210  0.00  0.00    -0.245 OA
ATOM     13  C   UNL     1      34.540 -17.010 -24.182  0.00  0.00    +0.338 C 
BRANCH  13  14
ATOM     14  O   UNL     1      35.216 -17.704 -23.227  0.00  0.00    -0.477 OA
ATOM     15  H   UNL     1      35.942 -17.309 -22.786  0.00  0.00    +0.295 HD
ENDBRANCH  13  14
ENDBRANCH  11  13
ENDBRANCH   3   6
ENDBRANCH   1   4
BRANCH   1  17
ATOM     16  O   UNL     1      35.852  -7.275 -23.229  0.00  0.00    -0.270 OA
ATOM     17  N   UNL     1      33.815  -8.102 -23.969  0.00  0.00    -0.295 N 
ATOM     18  C   UNL     1      34.900  -7.237 -24.004  0.00  0.00    +0.246 C 
ATOM     19  H   UNL     1      33.100  -7.992 -24.637  0.00  0.00    +0.150 HD
BRANCH  18  20
ATOM     20  C   UNL     1      34.860  -6.188 -25.054  0.00  0.00    +0.053 C 
ATOM     21  C   UNL     1      33.771  -5.343 -25.111  0.00  0.00    +0.005 C 
ATOM     22  C   UNL     1      35.914  -6.090 -25.938  0.00  0.00    +0.005 C 
ATOM     23  C   UNL     1      33.735  -4.356 -26.096  0.00  0.00    +0.000 C 
ATOM     24  C   UNL     1      35.878  -5.104 -26.924  0.00  0.00    +0.000 C 
ATOM     25  C   UNL     1      34.788  -4.237 -27.003  0.00  0.00    +0.000 C 
ENDBRANCH  18  20
ENDBRANCH   1  17
BRANCH   1  26
ATOM     26  C   UNL     1      32.349  -9.071 -22.269  0.00  0.00    +0.055 C 
BRANCH  26  27
ATOM     27  C   UNL     1      32.358  -8.121 -21.096  0.00  0.00    -0.020 C 
ATOM     28  C   UNL     1      32.369  -8.633 -19.807  0.00  0.00    -0.001 C 
ATOM     29  C   UNL     1      32.356  -6.754 -21.328  0.00  0.00    -0.001 C 
ATOM     30  C   UNL     1      32.376  -7.755 -18.723  0.00  0.00    +0.036 C 
ATOM     31  C   UNL     1      32.363  -5.878 -20.243  0.00  0.00    +0.036 C 
ATOM     32  C   UNL     1      32.373  -6.378 -18.942  0.00  0.00    +0.134 C 
BRANCH  32  33
ATOM     33  O   UNL     1      32.382  -5.521 -17.884  0.00  0.00    -0.506 OA
ATOM     34  H   UNL     1      31.682  -5.541 -17.260  0.00  0.00    +0.292 HD
ENDBRANCH  32  33
ENDBRANCH  26  27
ENDBRANCH   1  26
TORSDOF 9
ENDMDL
MODEL 4
REMARK VINA RESULT:      -9.4      2.337      3.349
REMARK  Name = 6957673
REMARK  9 active torsions:
REMARK  status: ('A' for Active; 'I' for Inactive)
REMARK    1  A    between atoms: C_1  and  C_4
REMARK    2  A    between atoms: C_1  and  N_17
REMARK    3  A    between atoms: C_1  and  C_26
REMARK    4  A    between atoms: N_3  and  C_6
REMARK    5  A    between atoms: C_11  and  C_13
REMARK    6  A    between atoms: C_13  and  O_14
REMARK    7  A    between atoms: C_18  and  C_20
REMARK    8  A    between atoms: C_26  and  C_27
REMARK    9  A    between atoms: C_32  and  O_33
REMARK                            x       y       z     vdW  Elec       q    Type
REMARK                         _______ _______ _______ _____ _____    ______ ____
ROOT
ATOM      1  C   UNL     1      33.185  -9.630 -21.937  0.00  0.00    +0.153 C 
ENDROOT
BRANCH   1   4
ATOM      2  O   UNL     1      31.974 -11.690 -21.600  0.00  0.00    -0.273 OA
ATOM      3  N   UNL     1      34.009 -11.742 -22.768  0.00  0.00    -0.283 N 
ATOM      4  C   UNL     1      32.975 -11.142 -22.055  0.00  0.00    +0.244 C 
ATOM      5  H   UNL     1      34.717 -11.142 -23.094  0.00  0.00    +0.155 HD
BRANCH   3   6
ATOM      6  C   UNL     1      34.161 -13.114 -23.079  0.00  0.00    +0.050 C 
ATOM      7  C   UNL     1      34.848 -13.935 -22.200  0.00  0.00    +0.015 C 
ATOM      8  C   UNL     1      33.620 -13.607 -24.255  0.00  0.00    +0.015 C 
ATOM      9  C   UNL     1      34.998 -15.288 -22.506  0.00  0.00    +0.008 C 
ATOM     10  C   UNL     1      33.768 -14.960 -24.560  0.00  0.00    +0.008 C 
ATOM     11  C   UNL     1      34.458 -15.800 -23.685  0.00  0.00    +0.076 C 
BRANCH  11  13
ATOM     12  O   UNL     1      35.180 -18.047 -23.292  0.00  0.00    -0.245 OA
ATOM     13  C   UNL     1      34.613 -17.210 -24.003  0.00  0.00    +0.338 C 
BRANCH  13  14
ATOM     14  O   UNL     1      34.053 -17.539 -25.200  0.00  0.00    -0.477 OA
ATOM     15  H   UNL     1      34.297 -17.073 -25.975  0.00  0.00    +0.295 HD
ENDBRANCH  13  14
ENDBRANCH  11  13
ENDBRANCH   3   6
ENDBRANCH   1   4
BRANCH   1  17
ATOM     16  O   UNL     1      35.098  -7.504 -22.178  0.00  0.00    -0.270 OA
ATOM     17  N   UNL     1      33.858  -9.210 -23.142  0.00  0.00    -0.295 N 
ATOM     18  C   UNL     1      34.772  -8.166 -23.160  0.00  0.00    +0.246 C 
ATOM     19  H   UNL     1      33.662  -9.683 -23.983  0.00  0.00    +0.150 HD
BRANCH  18  20
ATOM     20  C   UNL     1      35.359  -7.839 -24.484  0.00  0.00    +0.053 C 
ATOM     21  C   UNL     1      35.860  -8.861 -25.262  0.00  0.00    +0.005 C 
ATOM     22  C   UNL     1      35.384  -6.522 -24.893  0.00  0.00    +0.005 C 
ATOM     23  C   UNL     1      36.411  -8.554 -26.506  0.00  0.00    +0.000 C 
ATOM     24  C   UNL     1      35.935  -6.213 -26.137  0.00  0.00    +0.000 C 
ATOM     25  C   UNL     1      36.448  -7.229 -26.944  0.00  0.00    +0.000 C 
ENDBRANCH  18  20
ENDBRANCH   1  17
BRANCH   1  26
ATOM     26  C   UNL     1      31.854  -8.887 -21.778  0.00  0.00    +0.055 C 
BRANCH  26  27
ATOM     27  C   UNL     1      31.976  -7.595 -21.008  0.00  0.00    -0.020 C 
ATOM     28  C   UNL     1      32.463  -7.622 -19.710  0.00  0.00    -0.001 C 
ATOM     29  C   UNL     1      31.600  -6.406 -21.612  0.00  0.00    -0.001 C 
ATOM     30  C   UNL     1      32.575  -6.428 -18.998  0.00  0.00    +0.036 C 
ATOM     31  C   UNL     1      31.712  -5.212 -20.899  0.00  0.00    +0.036 C 
ATOM     32  C   UNL     1      32.199  -5.223 -19.592  0.00  0.00    +0.134 C 
BRANCH  32  33
ATOM     33  O   UNL     1      32.310  -4.058 -18.898  0.00  0.00    -0.506 OA
ATOM     34  H   UNL     1      32.747  -3.323 -19.282  0.00  0.00    +0.292 HD
ENDBRANCH  32  33
ENDBRANCH  26  27
ENDBRANCH   1  26
TORSDOF 9
ENDMDL
MODEL 5
REMARK VINA RESULT:      -9.4      3.656     10.709
REMARK  Name = 6957673
REMARK  9 active torsions:
REMARK  status: ('A' for Active; 'I' for Inactive)
REMARK    1  A    between atoms: C_1  and  C_4
REMARK    2  A    between atoms: C_1  and  N_17
REMARK    3  A    between atoms: C_1  and  C_26
REMARK    4  A    between atoms: N_3  and  C_6
REMARK    5  A    between atoms: C_11  and  C_13
REMARK    6  A    between atoms: C_13  and  O_14
REMARK    7  A    between atoms: C_18  and  C_20
REMARK    8  A    between atoms: C_26  and  C_27
REMARK    9  A    between atoms: C_32  and  O_33
REMARK                            x       y       z     vdW  Elec       q    Type
REMARK                         _______ _______ _______ _____ _____    ______ ____
ROOT
ATOM      1  C   UNL     1      35.787 -15.849 -21.368  0.00  0.00    +0.153 C 
ENDROOT
BRANCH   1   4
ATOM      2  O   UNL     1      33.974 -14.743 -20.223  0.00  0.00    -0.273 OA
ATOM      3  N   UNL     1      34.966 -13.691 -22.072  0.00  0.00    -0.283 N 
ATOM      4  C   UNL     1      34.783 -14.716 -21.148  0.00  0.00    +0.244 C 
ATOM      5  H   UNL     1      35.690 -13.820 -22.725  0.00  0.00    +0.155 HD
BRANCH   3   6
ATOM      6  C   UNL     1      34.233 -12.486 -22.182  0.00  0.00    +0.050 C 
ATOM      7  C   UNL     1      33.193 -12.243 -21.299  0.00  0.00    +0.015 C 
ATOM      8  C   UNL     1      34.570 -11.574 -23.168  0.00  0.00    +0.015 C 
ATOM      9  C   UNL     1      32.470 -11.055 -21.406  0.00  0.00    +0.008 C 
ATOM     10  C   UNL     1      33.848 -10.385 -23.274  0.00  0.00    +0.008 C 
ATOM     11  C   UNL     1      32.797 -10.126 -22.393  0.00  0.00    +0.076 C 
BRANCH  11  13
ATOM     12  O   UNL     1      31.224  -8.472 -21.679  0.00  0.00    -0.245 OA
ATOM     13  C   UNL     1      32.045  -8.887 -22.504  0.00  0.00    +0.338 C 
BRANCH  13  14
ATOM     14  O   UNL     1      32.340  -8.199 -23.640  0.00  0.00    -0.477 OA
ATOM     15  H   UNL     1      31.650  -7.840 -24.163  0.00  0.00    +0.295 HD
ENDBRANCH  13  14
ENDBRANCH  11  13
ENDBRANCH   3   6
ENDBRANCH   1   4
BRANCH   1  17
ATOM     16  O   UNL     1      37.148 -18.247 -20.566  0.00  0.00    -0.270 OA
ATOM     17  N   UNL     1      35.181 -17.049 -20.841  0.00  0.00    -0.295 N 
ATOM     18  C   UNL     1      35.925 -18.162 -20.480  0.00  0.00    +0.246 C 
ATOM     19  H   UNL     1      34.203 -17.077 -20.734  0.00  0.00    +0.150 HD
BRANCH  18  20
ATOM     20  C   UNL     1      35.151 -19.327 -19.979  0.00  0.00    +0.053 C 
ATOM     21  C   UNL     1      35.816 -20.331 -19.308  0.00  0.00    +0.005 C 
ATOM     22  C   UNL     1      33.790 -19.366 -20.201  0.00  0.00    +0.005 C 
ATOM     23  C   UNL     1      35.090 -21.424 -18.837  0.00  0.00    +0.000 C 
ATOM     24  C   UNL     1      33.062 -20.460 -19.731  0.00  0.00    +0.000 C 
ATOM     25  C   UNL     1      33.712 -21.488 -19.049  0.00  0.00    +0.000 C 
ENDBRANCH  18  20
ENDBRANCH   1  17
BRANCH   1  26
ATOM     26  C   UNL     1      36.122 -16.025 -22.853  0.00  0.00    +0.055 C 
BRANCH  26  27
ATOM     27  C   UNL     1      34.976 -16.575 -23.666  0.00  0.00    -0.020 C 
ATOM     28  C   UNL     1      34.238 -15.718 -24.468  0.00  0.00    -0.001 C 
ATOM     29  C   UNL     1      34.683 -17.928 -23.599  0.00  0.00    -0.001 C 
ATOM     30  C   UNL     1      33.179 -16.227 -25.220  0.00  0.00    +0.036 C 
ATOM     31  C   UNL     1      33.624 -18.436 -24.351  0.00  0.00    +0.036 C 
ATOM     32  C   UNL     1      32.872 -17.586 -25.161  0.00  0.00    +0.134 C 
BRANCH  32  33
ATOM     33  O   UNL     1      31.839 -18.083 -25.895  0.00  0.00    -0.506 OA
ATOM     34  H   UNL     1      31.096 -17.544 -26.082  0.00  0.00    +0.292 HD
ENDBRANCH  32  33
ENDBRANCH  26  27
ENDBRANCH   1  26
TORSDOF 9
ENDMDL
MODEL 6
REMARK VINA RESULT:      -9.3      1.617      5.838
REMARK  Name = 6957673
REMARK  9 active torsions:
REMARK  status: ('A' for Active; 'I' for Inactive)
REMARK    1  A    between atoms: C_1  and  C_4
REMARK    2  A    between atoms: C_1  and  N_17
REMARK    3  A    between atoms: C_1  and  C_26
REMARK    4  A    between atoms: N_3  and  C_6
REMARK    5  A    between atoms: C_11  and  C_13
REMARK    6  A    between atoms: C_13  and  O_14
REMARK    7  A    between atoms: C_18  and  C_20
REMARK    8  A    between atoms: C_26  and  C_27
REMARK    9  A    between atoms: C_32  and  O_33
REMARK                            x       y       z     vdW  Elec       q    Type
REMARK                         _______ _______ _______ _____ _____    ______ ____
ROOT
ATOM      1  C   UNL     1      33.792  -9.258 -23.793  0.00  0.00    +0.153 C 
ENDROOT
BRANCH   1   4
ATOM      2  O   UNL     1      34.598 -10.741 -25.516  0.00  0.00    -0.273 OA
ATOM      3  N   UNL     1      33.858 -11.651 -23.483  0.00  0.00    -0.283 N 
ATOM      4  C   UNL     1      34.119 -10.628 -24.391  0.00  0.00    +0.244 C 
ATOM      5  H   UNL     1      33.509 -11.375 -22.606  0.00  0.00    +0.155 HD
BRANCH   3   6
ATOM      6  C   UNL     1      34.035 -13.042 -23.675  0.00  0.00    +0.050 C 
ATOM      7  C   UNL     1      34.784 -13.761 -22.758  0.00  0.00    +0.015 C 
ATOM      8  C   UNL     1      33.455 -13.655 -24.773  0.00  0.00    +0.015 C 
ATOM      9  C   UNL     1      34.959 -15.132 -22.946  0.00  0.00    +0.008 C 
ATOM     10  C   UNL     1      33.629 -15.027 -24.960  0.00  0.00    +0.008 C 
ATOM     11  C   UNL     1      34.381 -15.765 -24.046  0.00  0.00    +0.076 C 
BRANCH  11  13
ATOM     12  O   UNL     1      34.072 -17.859 -25.160  0.00  0.00    -0.245 OA
ATOM     13  C   UNL     1      34.562 -17.194 -24.241  0.00  0.00    +0.338 C 
BRANCH  13  14
ATOM     14  O   UNL     1      35.350 -17.755 -23.283  0.00  0.00    -0.477 OA
ATOM     15  H   UNL     1      35.590 -18.658 -23.343  0.00  0.00    +0.295 HD
ENDBRANCH  13  14
ENDBRANCH  11  13
ENDBRANCH   3   6
ENDBRANCH   1   4
BRANCH   1  17
ATOM     16  O   UNL     1      31.312  -8.522 -22.547  0.00  0.00    -0.270 OA
ATOM     17  N   UNL     1      33.419  -9.484 -22.418  0.00  0.00    -0.295 N 
ATOM     18  C   UNL     1      32.191  -9.091 -21.904  0.00  0.00    +0.246 C 
ATOM     19  H   UNL     1      34.059  -9.935 -21.821  0.00  0.00    +0.150 HD
BRANCH  18  20
ATOM     20  C   UNL     1      31.969  -9.372 -20.463  0.00  0.00    +0.053 C 
ATOM     21  C   UNL     1      31.386 -10.567 -20.099  0.00  0.00    +0.005 C 
ATOM     22  C   UNL     1      32.354  -8.428 -19.533  0.00  0.00    +0.005 C 
ATOM     23  C   UNL     1      31.178 -10.832 -18.746  0.00  0.00    +0.000 C 
ATOM     24  C   UNL     1      32.146  -8.691 -18.179  0.00  0.00    +0.000 C 
ATOM     25  C   UNL     1      31.558  -9.893 -17.785  0.00  0.00    +0.000 C 
ENDBRANCH  18  20
ENDBRANCH   1  17
BRANCH   1  26
ATOM     26  C   UNL     1      34.990  -8.307 -23.874  0.00  0.00    +0.055 C 
BRANCH  26  27
ATOM     27  C   UNL     1      34.669  -6.990 -24.538  0.00  0.00    -0.020 C 
ATOM     28  C   UNL     1      35.527  -6.489 -25.505  0.00  0.00    -0.001 C 
ATOM     29  C   UNL     1      33.520  -6.306 -24.170  0.00  0.00    -0.001 C 
ATOM     30  C   UNL     1      35.229  -5.272 -26.119  0.00  0.00    +0.036 C 
ATOM     31  C   UNL     1      33.224  -5.089 -24.784  0.00  0.00    +0.036 C 
ATOM     32  C   UNL     1      34.078  -4.573 -25.758  0.00  0.00    +0.134 C 
BRANCH  32  33
ATOM     33  O   UNL     1      33.787  -3.385 -26.357  0.00  0.00    -0.506 OA
ATOM     34  H   UNL     1      33.871  -3.297 -27.286  0.00  0.00    +0.292 HD
ENDBRANCH  32  33
ENDBRANCH  26  27
ENDBRANCH   1  26
TORSDOF 9
ENDMDL
MODEL 7
REMARK VINA RESULT:      -9.2      2.651      5.497
REMARK  Name = 6957673
REMARK  9 active torsions:
REMARK  status: ('A' for Active; 'I' for Inactive)
REMARK    1  A    between atoms: C_1  and  C_4
REMARK    2  A    between atoms: C_1  and  N_17
REMARK    3  A    between atoms: C_1  and  C_26
REMARK    4  A    between atoms: N_3  and  C_6
REMARK    5  A    between atoms: C_11  and  C_13
REMARK    6  A    between atoms: C_13  and  O_14
REMARK    7  A    between atoms: C_18  and  C_20
REMARK    8  A    between atoms: C_26  and  C_27
REMARK    9  A    between atoms: C_32  and  O_33
REMARK                            x       y       z     vdW  Elec       q    Type
REMARK                         _______ _______ _______ _____ _____    ______ ____
ROOT
ATOM      1  C   UNL     1      33.655 -10.411 -23.131  0.00  0.00    +0.153 C 
ENDROOT
BRANCH   1   4
ATOM      2  O   UNL     1      32.443 -12.055 -21.847  0.00  0.00    -0.273 OA
ATOM      3  N   UNL     1      34.628 -12.543 -22.552  0.00  0.00    -0.283 N 
ATOM      4  C   UNL     1      33.490 -11.753 -22.413  0.00  0.00    +0.244 C 
ATOM      5  H   UNL     1      35.365 -12.155 -23.075  0.00  0.00    +0.155 HD
BRANCH   3   6
ATOM      6  C   UNL     1      34.847 -13.840 -22.031  0.00  0.00    +0.050 C 
ATOM      7  C   UNL     1      35.161 -14.874 -22.898  0.00  0.00    +0.015 C 
ATOM      8  C   UNL     1      34.745 -14.049 -20.666  0.00  0.00    +0.015 C 
ATOM      9  C   UNL     1      35.378 -16.153 -22.385  0.00  0.00    +0.008 C 
ATOM     10  C   UNL     1      34.964 -15.328 -20.152  0.00  0.00    +0.008 C 
ATOM     11  C   UNL     1      35.280 -16.380 -21.013  0.00  0.00    +0.076 C 
BRANCH  11  13
ATOM     12  O   UNL     1      36.421 -18.028 -19.707  0.00  0.00    -0.245 OA
ATOM     13  C   UNL     1      35.508 -17.712 -20.478  0.00  0.00    +0.338 C 
BRANCH  13  14
ATOM     14  O   UNL     1      34.588 -18.614 -20.918  0.00  0.00    -0.477 OA
ATOM     15  H   UNL     1      34.398 -18.681 -21.833  0.00  0.00    +0.295 HD
ENDBRANCH  13  14
ENDBRANCH  11  13
ENDBRANCH   3   6
ENDBRANCH   1   4
BRANCH   1  17
ATOM     16  O   UNL     1      31.313  -8.827 -22.631  0.00  0.00    -0.270 OA
ATOM     17  N   UNL     1      33.508  -9.384 -22.129  0.00  0.00    -0.295 N 
ATOM     18  C   UNL     1      32.331  -8.668 -21.962  0.00  0.00    +0.246 C 
ATOM     19  H   UNL     1      34.272  -9.183 -21.540  0.00  0.00    +0.150 HD
BRANCH  18  20
ATOM     20  C   UNL     1      32.348  -7.626 -20.904  0.00  0.00    +0.053 C 
ATOM     21  C   UNL     1      32.364  -8.018 -19.581  0.00  0.00    +0.005 C 
ATOM     22  C   UNL     1      32.348  -6.298 -21.277  0.00  0.00    +0.005 C 
ATOM     23  C   UNL     1      32.381  -7.040 -18.588  0.00  0.00    +0.000 C 
ATOM     24  C   UNL     1      32.365  -5.319 -20.284  0.00  0.00    +0.000 C 
ATOM     25  C   UNL     1      32.381  -5.690 -18.939  0.00  0.00    +0.000 C 
ENDBRANCH  18  20
ENDBRANCH   1  17
BRANCH   1  26
ATOM     26  C   UNL     1      35.022 -10.302 -23.815  0.00  0.00    +0.055 C 
BRANCH  26  27
ATOM     27  C   UNL     1      35.243  -8.980 -24.508  0.00  0.00    -0.020 C 
ATOM     28  C   UNL     1      34.676  -7.831 -23.977  0.00  0.00    -0.001 C 
ATOM     29  C   UNL     1      36.009  -8.936 -25.662  0.00  0.00    -0.001 C 
ATOM     30  C   UNL     1      34.880  -6.609 -24.617  0.00  0.00    +0.036 C 
ATOM     31  C   UNL     1      36.213  -7.713 -26.302  0.00  0.00    +0.036 C 
ATOM     32  C   UNL     1      35.648  -6.551 -25.779  0.00  0.00    +0.134 C 
BRANCH  32  33
ATOM     33  O   UNL     1      35.848  -5.358 -26.404  0.00  0.00    -0.506 OA
ATOM     34  H   UNL     1      35.446  -5.190 -27.233  0.00  0.00    +0.292 HD
ENDBRANCH  32  33
ENDBRANCH  26  27
ENDBRANCH   1  26
TORSDOF 9
ENDMDL
MODEL 8
REMARK VINA RESULT:      -9.1      2.781      4.485
REMARK  Name = 6957673
REMARK  9 active torsions:
REMARK  status: ('A' for Active; 'I' for Inactive)
REMARK    1  A    between atoms: C_1  and  C_4
REMARK    2  A    between atoms: C_1  and  N_17
REMARK    3  A    between atoms: C_1  and  C_26
REMARK    4  A    between atoms: N_3  and  C_6
REMARK    5  A    between atoms: C_11  and  C_13
REMARK    6  A    between atoms: C_13  and  O_14
REMARK    7  A    between atoms: C_18  and  C_20
REMARK    8  A    between atoms: C_26  and  C_27
REMARK    9  A    between atoms: C_32  and  O_33
REMARK                            x       y       z     vdW  Elec       q    Type
REMARK                         _______ _______ _______ _____ _____    ______ ____
ROOT
ATOM      1  C   UNL     1      33.208 -10.782 -21.727  0.00  0.00    +0.153 C 
ENDROOT
BRANCH   1   4
ATOM      2  O   UNL     1      32.169 -12.772 -20.843  0.00  0.00    -0.273 OA
ATOM      3  N   UNL     1      34.388 -12.885 -21.601  0.00  0.00    -0.283 N 
ATOM      4  C   UNL     1      33.179 -12.256 -21.315  0.00  0.00    +0.244 C 
ATOM      5  H   UNL     1      35.081 -12.324 -22.017  0.00  0.00    +0.155 HD
BRANCH   3   6
ATOM      6  C   UNL     1      34.735 -14.236 -21.365  0.00  0.00    +0.050 C 
ATOM      7  C   UNL     1      34.974 -15.072 -22.445  0.00  0.00    +0.015 C 
ATOM      8  C   UNL     1      34.831 -14.695 -20.062  0.00  0.00    +0.015 C 
ATOM      9  C   UNL     1      35.317 -16.404 -22.213  0.00  0.00    +0.008 C 
ATOM     10  C   UNL     1      35.176 -16.027 -19.831  0.00  0.00    +0.008 C 
ATOM     11  C   UNL     1      35.418 -16.881 -20.907  0.00  0.00    +0.076 C 
BRANCH  11  13
ATOM     12  O   UNL     1      36.438 -18.681 -19.706  0.00  0.00    -0.245 OA
ATOM     13  C   UNL     1      35.778 -18.269 -20.666  0.00  0.00    +0.338 C 
BRANCH  13  14
ATOM     14  O   UNL     1      35.301 -19.105 -21.629  0.00  0.00    -0.477 OA
ATOM     15  H   UNL     1      35.535 -20.012 -21.619  0.00  0.00    +0.295 HD
ENDBRANCH  13  14
ENDBRANCH  11  13
ENDBRANCH   3   6
ENDBRANCH   1   4
BRANCH   1  17
ATOM     16  O   UNL     1      34.840  -8.681 -22.807  0.00  0.00    -0.270 OA
ATOM     17  N   UNL     1      33.784 -10.732 -23.049  0.00  0.00    -0.295 N 
ATOM     18  C   UNL     1      34.563  -9.670 -23.483  0.00  0.00    +0.246 C 
ATOM     19  H   UNL     1      33.619 -11.482 -23.666  0.00  0.00    +0.150 HD
BRANCH  18  20
ATOM     20  C   UNL     1      35.061  -9.756 -24.879  0.00  0.00    +0.053 C 
ATOM     21  C   UNL     1      35.931  -8.790 -25.338  0.00  0.00    +0.005 C 
ATOM     22  C   UNL     1      34.636 -10.801 -25.674  0.00  0.00    +0.005 C 
ATOM     23  C   UNL     1      36.399  -8.871 -26.649  0.00  0.00    +0.000 C 
ATOM     24  C   UNL     1      35.104 -10.883 -26.986  0.00  0.00    +0.000 C 
ATOM     25  C   UNL     1      35.985  -9.918 -27.474  0.00  0.00    +0.000 C 
ENDBRANCH  18  20
ENDBRANCH   1  17
BRANCH   1  26
ATOM     26  C   UNL     1      31.804 -10.170 -21.729  0.00  0.00    +0.055 C 
BRANCH  26  27
ATOM     27  C   UNL     1      31.799  -8.678 -21.501  0.00  0.00    -0.020 C 
ATOM     28  C   UNL     1      32.225  -8.176 -20.280  0.00  0.00    -0.001 C 
ATOM     29  C   UNL     1      31.369  -7.836 -22.515  0.00  0.00    -0.001 C 
ATOM     30  C   UNL     1      32.220  -6.798 -20.069  0.00  0.00    +0.036 C 
ATOM     31  C   UNL     1      31.364  -6.457 -22.302  0.00  0.00    +0.036 C 
ATOM     32  C   UNL     1      31.789  -5.939 -21.080  0.00  0.00    +0.134 C 
BRANCH  32  33
ATOM     33  O   UNL     1      31.785  -4.593 -20.874  0.00  0.00    -0.506 OA
ATOM     34  H   UNL     1      32.155  -4.020 -21.516  0.00  0.00    +0.292 HD
ENDBRANCH  32  33
ENDBRANCH  26  27
ENDBRANCH   1  26
TORSDOF 9
ENDMDL
MODEL 9
REMARK VINA RESULT:      -8.5      2.494      6.213
REMARK  Name = 6957673
REMARK  9 active torsions:
REMARK  status: ('A' for Active; 'I' for Inactive)
REMARK    1  A    between atoms: C_1  and  C_4
REMARK    2  A    between atoms: C_1  and  N_17
REMARK    3  A    between atoms: C_1  and  C_26
REMARK    4  A    between atoms: N_3  and  C_6
REMARK    5  A    between atoms: C_11  and  C_13
REMARK    6  A    between atoms: C_13  and  O_14
REMARK    7  A    between atoms: C_18  and  C_20
REMARK    8  A    between atoms: C_26  and  C_27
REMARK    9  A    between atoms: C_32  and  O_33
REMARK                            x       y       z     vdW  Elec       q    Type
REMARK                         _______ _______ _______ _____ _____    ______ ____
ROOT
ATOM      1  C   UNL     1      34.622  -7.345 -24.580  0.00  0.00    +0.153 C 
ENDROOT
BRANCH   1   4
ATOM      2  O   UNL     1      36.210  -9.159 -24.676  0.00  0.00    -0.273 OA
ATOM      3  N   UNL     1      33.917  -9.654 -24.586  0.00  0.00    -0.283 N 
ATOM      4  C   UNL     1      35.030  -8.819 -24.639  0.00  0.00    +0.244 C 
ATOM      5  H   UNL     1      33.043  -9.208 -24.520  0.00  0.00    +0.155 HD
BRANCH   3   6
ATOM      6  C   UNL     1      33.897 -11.068 -24.616  0.00  0.00    +0.050 C 
ATOM      7  C   UNL     1      33.775 -11.718 -25.834  0.00  0.00    +0.015 C 
ATOM      8  C   UNL     1      34.000 -11.774 -23.429  0.00  0.00    +0.015 C 
ATOM      9  C   UNL     1      33.754 -13.112 -25.865  0.00  0.00    +0.008 C 
ATOM     10  C   UNL     1      33.982 -13.169 -23.460  0.00  0.00    +0.008 C 
ATOM     11  C   UNL     1      33.859 -13.838 -24.678  0.00  0.00    +0.076 C 
BRANCH  11  13
ATOM     12  O   UNL     1      33.226 -15.981 -25.531  0.00  0.00    -0.245 OA
ATOM     13  C   UNL     1      33.840 -15.291 -24.710  0.00  0.00    +0.338 C 
BRANCH  13  14
ATOM     14  O   UNL     1      34.589 -15.843 -23.717  0.00  0.00    -0.477 OA
ATOM     15  H   UNL     1      34.234 -16.530 -23.189  0.00  0.00    +0.295 HD
ENDBRANCH  13  14
ENDBRANCH  11  13
ENDBRANCH   3   6
ENDBRANCH   1   4
BRANCH   1  17
ATOM     16  O   UNL     1      32.081  -6.374 -23.661  0.00  0.00    -0.270 OA
ATOM     17  N   UNL     1      34.247  -7.073 -23.214  0.00  0.00    -0.295 N 
ATOM     18  C   UNL     1      32.989  -6.603 -22.865  0.00  0.00    +0.246 C 
ATOM     19  H   UNL     1      34.909  -7.227 -22.501  0.00  0.00    +0.150 HD
BRANCH  18  20
ATOM     20  C   UNL     1      32.767  -6.347 -21.420  0.00  0.00    +0.053 C 
ATOM     21  C   UNL     1      33.068  -7.342 -20.512  0.00  0.00    +0.005 C 
ATOM     22  C   UNL     1      32.268  -5.122 -21.029  0.00  0.00    +0.005 C 
ATOM     23  C   UNL     1      32.861  -7.101 -19.155  0.00  0.00    +0.000 C 
ATOM     24  C   UNL     1      32.060  -4.881 -19.671  0.00  0.00    +0.000 C 
ATOM     25  C   UNL     1      32.357  -5.870 -18.734  0.00  0.00    +0.000 C 
ENDBRANCH  18  20
ENDBRANCH   1  17
BRANCH   1  26
ATOM     26  C   UNL     1      35.768  -6.425 -25.015  0.00  0.00    +0.055 C 
BRANCH  26  27
ATOM     27  C   UNL     1      35.356  -5.396 -26.040  0.00  0.00    -0.020 C 
ATOM     28  C   UNL     1      34.066  -4.888 -26.011  0.00  0.00    -0.001 C 
ATOM     29  C   UNL     1      36.275  -4.977 -26.989  0.00  0.00    -0.001 C 
ATOM     30  C   UNL     1      33.686  -3.937 -26.958  0.00  0.00    +0.036 C 
ATOM     31  C   UNL     1      35.893  -4.026 -27.936  0.00  0.00    +0.036 C 
ATOM     32  C   UNL     1      34.599  -3.506 -27.920  0.00  0.00    +0.134 C 
BRANCH  32  33
ATOM     33  O   UNL     1      34.228  -2.578 -28.843  0.00  0.00    -0.506 OA
ATOM     34  H   UNL     1      33.543  -2.771 -29.452  0.00  0.00    +0.292 HD
ENDBRANCH  32  33
ENDBRANCH  26  27
ENDBRANCH   1  26
TORSDOF 9
ENDMDL
