MODEL 1
REMARK VINA RESULT:     -13.1      0.000      0.000
REMARK  Name = 25145656
REMARK  4 active torsions:
REMARK  status: ('A' for Active; 'I' for Inactive)
REMARK    1  A    between atoms: C_5  and  C_22
REMARK    2  A    between atoms: C_8  and  C_11
REMARK    3  A    between atoms: C_14  and  C_19
REMARK    4  A    between atoms: C_22  and  C_24
REMARK                            x       y       z     vdW  Elec       q    Type
REMARK                         _______ _______ _______ _____ _____    ______ ____
ROOT
ATOM      1  N   UNL     1      34.629 -16.598 -23.565  0.00  0.00    -0.134 N 
ATOM      2  N   UNL     1      34.601 -15.300 -23.192  0.00  0.00    -0.168 NA
ATOM      3  N   UNL     1      34.281 -18.437 -24.757  0.00  0.00    -0.178 NA
ATOM      4  N   UNL     1      33.350 -16.348 -25.548  0.00  0.00    -0.200 NA
ATOM      5  C   UNL     1      35.250 -17.612 -22.889  0.00  0.00    +0.086 C 
ATOM      6  C   UNL     1      34.048 -17.138 -24.696  0.00  0.00    +0.114 C 
ATOM      7  C   UNL     1      35.022 -18.736 -23.643  0.00  0.00    +0.124 C 
ATOM      8  C   UNL     1      33.955 -14.522 -24.008  0.00  0.00    +0.103 C 
ATOM      9  C   UNL     1      33.287 -15.095 -25.234  0.00  0.00    +0.184 C 
ENDROOT
BRANCH   8  11
ATOM     10  F   UNL     1      34.428  -9.908 -25.436  0.00  0.00    -0.204 F 
ATOM     11  C   UNL     1      33.862 -13.069 -23.734  0.00  0.00    +0.019 C 
ATOM     12  C   UNL     1      34.195 -12.150 -24.729  0.00  0.00    +0.031 C 
ATOM     13  C   UNL     1      33.442 -12.621 -22.482  0.00  0.00    +0.002 C 
ATOM     14  C   UNL     1      33.687 -10.333 -23.220  0.00  0.00    +0.081 C 
ATOM     15  C   UNL     1      34.107 -10.782 -24.471  0.00  0.00    +0.144 C 
ATOM     16  C   UNL     1      33.354 -11.253 -22.225  0.00  0.00    +0.007 C 
BRANCH  14  19
ATOM     17  O   UNL     1      34.621  -8.216 -22.835  0.00  0.00    -0.270 OA
ATOM     18  N   UNL     1      32.307  -8.364 -22.845  0.00  0.00    -0.299 N 
ATOM     19  C   UNL     1      33.593  -8.908 -22.947  0.00  0.00    +0.248 C 
ATOM     20  C   UNL     1      32.049  -6.963 -22.601  0.00  0.00    +0.111 C 
ATOM     21  H   UNL     1      31.536  -8.968 -22.943  0.00  0.00    +0.150 HD
ENDBRANCH  14  19
ENDBRANCH   8  11
BRANCH   5  22
ATOM     22  C   UNL     1      36.002 -17.411 -21.588  0.00  0.00    +0.068 C 
BRANCH  22  24
ATOM     23  N   UNL     1      35.490 -21.696 -17.928  0.00  0.00    -0.248 NA
ATOM     24  C   UNL     1      35.857 -18.540 -20.625  0.00  0.00    -0.038 C 
ATOM     25  C   UNL     1      34.592 -19.002 -20.274  0.00  0.00    +0.050 C 
ATOM     26  C   UNL     1      34.451 -20.066 -19.367  0.00  0.00    -0.004 C 
ATOM     27  C   UNL     1      36.983 -19.136 -20.071  0.00  0.00    -0.028 C 
ATOM     28  C   UNL     1      35.590 -20.676 -18.801  0.00  0.00    +0.060 C 
ATOM     29  C   UNL     1      36.843 -20.193 -19.169  0.00  0.00    +0.071 C 
ATOM     30  C   UNL     1      33.190 -20.552 -18.997  0.00  0.00    -0.001 C 
ATOM     31  C   UNL     1      33.084 -21.604 -18.097  0.00  0.00    +0.020 C 
ATOM     32  C   UNL     1      34.254 -22.136 -17.597  0.00  0.00    +0.098 C 
ENDBRANCH  22  24
ENDBRANCH   5  22
TORSDOF 4
ENDMDL
MODEL 2
REMARK VINA RESULT:     -13.1      3.956      9.267
REMARK  Name = 25145656
REMARK  4 active torsions:
REMARK  status: ('A' for Active; 'I' for Inactive)
REMARK    1  A    between atoms: C_5  and  C_22
REMARK    2  A    between atoms: C_8  and  C_11
REMARK    3  A    between atoms: C_14  and  C_19
REMARK    4  A    between atoms: C_22  and  C_24
REMARK                            x       y       z     vdW  Elec       q    Type
REMARK                         _______ _______ _______ _____ _____    ______ ____
ROOT
ATOM      1  N   UNL     1      34.705 -16.339 -23.412  0.00  0.00    -0.134 N 
ATOM      2  N   UNL     1      35.016 -16.963 -22.255  0.00  0.00    -0.168 NA
ATOM      3  N   UNL     1      34.002 -16.024 -25.493  0.00  0.00    -0.178 NA
ATOM      4  N   UNL     1      34.000 -18.271 -24.594  0.00  0.00    -0.200 NA
ATOM      5  C   UNL     1      34.823 -14.997 -23.654  0.00  0.00    +0.086 C 
ATOM      6  C   UNL     1      34.204 -16.932 -24.555  0.00  0.00    +0.114 C 
ATOM      7  C   UNL     1      34.383 -14.828 -24.943  0.00  0.00    +0.124 C 
ATOM      8  C   UNL     1      34.805 -18.245 -22.265  0.00  0.00    +0.103 C 
ATOM      9  C   UNL     1      34.287 -18.919 -23.513  0.00  0.00    +0.184 C 
ENDROOT
BRANCH   8  11
ATOM     10  F   UNL     1      33.265 -20.911 -18.514  0.00  0.00    -0.204 F 
ATOM     11  C   UNL     1      35.082 -19.055 -21.056  0.00  0.00    +0.019 C 
ATOM     12  C   UNL     1      34.027 -19.615 -20.336  0.00  0.00    +0.031 C 
ATOM     13  C   UNL     1      36.397 -19.256 -20.638  0.00  0.00    +0.002 C 
ATOM     14  C   UNL     1      35.602 -20.579 -18.778  0.00  0.00    +0.081 C 
ATOM     15  C   UNL     1      34.288 -20.377 -19.198  0.00  0.00    +0.144 C 
ATOM     16  C   UNL     1      36.657 -20.019 -19.499  0.00  0.00    +0.007 C 
BRANCH  14  19
ATOM     17  O   UNL     1      35.131 -22.316 -17.275  0.00  0.00    -0.270 OA
ATOM     18  N   UNL     1      37.022 -21.042 -16.858  0.00  0.00    -0.299 N 
ATOM     19  C   UNL     1      35.878 -21.374 -17.593  0.00  0.00    +0.248 C 
ATOM     20  C   UNL     1      37.444 -21.752 -15.671  0.00  0.00    +0.111 C 
ATOM     21  H   UNL     1      37.570 -20.284 -17.165  0.00  0.00    +0.150 HD
ENDBRANCH  14  19
ENDBRANCH   8  11
BRANCH   5  22
ATOM     22  C   UNL     1      35.343 -14.007 -22.632  0.00  0.00    +0.068 C 
BRANCH  22  24
ATOM     23  N   UNL     1      31.617  -9.980 -21.244  0.00  0.00    -0.248 NA
ATOM     24  C   UNL     1      34.359 -12.951 -22.257  0.00  0.00    -0.038 C 
ATOM     25  C   UNL     1      33.632 -13.058 -21.075  0.00  0.00    +0.050 C 
ATOM     26  C   UNL     1      32.704 -12.066 -20.719  0.00  0.00    -0.004 C 
ATOM     27  C   UNL     1      34.162 -11.853 -23.086  0.00  0.00    -0.028 C 
ATOM     28  C   UNL     1      32.498 -10.948 -21.556  0.00  0.00    +0.060 C 
ATOM     29  C   UNL     1      33.239 -10.866 -22.732  0.00  0.00    +0.071 C 
ATOM     30  C   UNL     1      31.960 -12.148 -19.534  0.00  0.00    -0.001 C 
ATOM     31  C   UNL     1      31.050 -11.151 -19.211  0.00  0.00    +0.020 C 
ATOM     32  C   UNL     1      30.918 -10.098 -20.091  0.00  0.00    +0.098 C 
ENDBRANCH  22  24
ENDBRANCH   5  22
TORSDOF 4
ENDMDL
MODEL 3
REMARK VINA RESULT:     -13.0      3.774      9.727
REMARK  Name = 25145656
REMARK  4 active torsions:
REMARK  status: ('A' for Active; 'I' for Inactive)
REMARK    1  A    between atoms: C_5  and  C_22
REMARK    2  A    between atoms: C_8  and  C_11
REMARK    3  A    between atoms: C_14  and  C_19
REMARK    4  A    between atoms: C_22  and  C_24
REMARK                            x       y       z     vdW  Elec       q    Type
REMARK                         _______ _______ _______ _____ _____    ______ ____
ROOT
ATOM      1  N   UNL     1      34.666 -16.089 -23.359  0.00  0.00    -0.134 N 
ATOM      2  N   UNL     1      34.959 -16.749 -22.217  0.00  0.00    -0.168 NA
ATOM      3  N   UNL     1      34.053 -15.717 -25.459  0.00  0.00    -0.178 NA
ATOM      4  N   UNL     1      34.161 -18.002 -24.668  0.00  0.00    -0.200 NA
ATOM      5  C   UNL     1      34.702 -14.732 -23.532  0.00  0.00    +0.086 C 
ATOM      6  C   UNL     1      34.269 -16.656 -24.555  0.00  0.00    +0.114 C 
ATOM      7  C   UNL     1      34.320 -14.527 -24.834  0.00  0.00    +0.124 C 
ATOM      8  C   UNL     1      34.840 -18.040 -22.300  0.00  0.00    +0.103 C 
ATOM      9  C   UNL     1      34.436 -18.683 -23.604  0.00  0.00    +0.184 C 
ENDROOT
BRANCH   8  11
ATOM     10  F   UNL     1      33.279 -20.856 -18.668  0.00  0.00    -0.204 F 
ATOM     11  C   UNL     1      35.109 -18.889 -21.116  0.00  0.00    +0.019 C 
ATOM     12  C   UNL     1      34.051 -19.487 -20.432  0.00  0.00    +0.031 C 
ATOM     13  C   UNL     1      36.421 -19.092 -20.687  0.00  0.00    +0.002 C 
ATOM     14  C   UNL     1      35.616 -20.489 -18.888  0.00  0.00    +0.081 C 
ATOM     15  C   UNL     1      34.305 -20.287 -19.318  0.00  0.00    +0.144 C 
ATOM     16  C   UNL     1      36.674 -19.891 -19.573  0.00  0.00    +0.007 C 
BRANCH  14  19
ATOM     17  O   UNL     1      35.151 -22.291 -17.461  0.00  0.00    -0.270 OA
ATOM     18  N   UNL     1      37.006 -20.996 -16.956  0.00  0.00    -0.299 N 
ATOM     19  C   UNL     1      35.884 -21.323 -17.727  0.00  0.00    +0.248 C 
ATOM     20  C   UNL     1      37.418 -21.742 -15.789  0.00  0.00    +0.111 C 
ATOM     21  H   UNL     1      37.543 -20.215 -17.223  0.00  0.00    +0.150 HD
ENDBRANCH  14  19
ENDBRANCH   8  11
BRANCH   5  22
ATOM     22  C   UNL     1      35.098 -13.762 -22.436  0.00  0.00    +0.068 C 
BRANCH  22  24
ATOM     23  N   UNL     1      31.433  -9.514 -21.697  0.00  0.00    -0.248 NA
ATOM     24  C   UNL     1      34.137 -12.637 -22.248  0.00  0.00    -0.038 C 
ATOM     25  C   UNL     1      34.283 -11.462 -22.980  0.00  0.00    +0.050 C 
ATOM     26  C   UNL     1      33.380 -10.400 -22.807  0.00  0.00    -0.004 C 
ATOM     27  C   UNL     1      33.091 -12.755 -21.342  0.00  0.00    -0.028 C 
ATOM     28  C   UNL     1      32.315 -10.512 -21.888  0.00  0.00    +0.060 C 
ATOM     29  C   UNL     1      32.193 -11.699 -21.169  0.00  0.00    +0.071 C 
ATOM     30  C   UNL     1      33.503  -9.207 -23.531  0.00  0.00    -0.001 C 
ATOM     31  C   UNL     1      32.594  -8.175 -23.336  0.00  0.00    +0.020 C 
ATOM     32  C   UNL     1      31.587  -8.378 -22.416  0.00  0.00    +0.098 C 
ENDBRANCH  22  24
ENDBRANCH   5  22
TORSDOF 4
ENDMDL
MODEL 4
REMARK VINA RESULT:     -12.4      3.906      9.703
REMARK  Name = 25145656
REMARK  4 active torsions:
REMARK  status: ('A' for Active; 'I' for Inactive)
REMARK    1  A    between atoms: C_5  and  C_22
REMARK    2  A    between atoms: C_8  and  C_11
REMARK    3  A    between atoms: C_14  and  C_19
REMARK    4  A    between atoms: C_22  and  C_24
REMARK                            x       y       z     vdW  Elec       q    Type
REMARK                         _______ _______ _______ _____ _____    ______ ____
ROOT
ATOM      1  N   UNL     1      34.768 -16.432 -23.050  0.00  0.00    -0.134 N 
ATOM      2  N   UNL     1      34.866 -17.136 -21.901  0.00  0.00    -0.168 NA
ATOM      3  N   UNL     1      34.471 -15.974 -25.200  0.00  0.00    -0.178 NA
ATOM      4  N   UNL     1      34.353 -18.281 -24.477  0.00  0.00    -0.200 NA
ATOM      5  C   UNL     1      34.896 -15.075 -23.171  0.00  0.00    +0.086 C 
ATOM      6  C   UNL     1      34.512 -16.946 -24.306  0.00  0.00    +0.114 C 
ATOM      7  C   UNL     1      34.708 -14.817 -24.506  0.00  0.00    +0.124 C 
ATOM      8  C   UNL     1      34.694 -18.416 -22.041  0.00  0.00    +0.103 C 
ATOM      9  C   UNL     1      34.443 -19.003 -23.409  0.00  0.00    +0.184 C 
ENDROOT
BRANCH   8  11
ATOM     10  F   UNL     1      37.238 -20.964 -18.786  0.00  0.00    -0.204 F 
ATOM     11  C   UNL     1      34.754 -19.309 -20.860  0.00  0.00    +0.019 C 
ATOM     12  C   UNL     1      35.989 -19.728 -20.365  0.00  0.00    +0.031 C 
ATOM     13  C   UNL     1      33.576 -19.729 -20.243  0.00  0.00    +0.002 C 
ATOM     14  C   UNL     1      34.868 -20.989 -18.636  0.00  0.00    +0.081 C 
ATOM     15  C   UNL     1      36.045 -20.567 -19.253  0.00  0.00    +0.144 C 
ATOM     16  C   UNL     1      33.633 -20.569 -19.131  0.00  0.00    +0.007 C 
BRANCH  14  19
ATOM     17  O   UNL     1      34.105 -22.792 -17.346  0.00  0.00    -0.270 OA
ATOM     18  N   UNL     1      35.939 -21.621 -16.545  0.00  0.00    -0.299 N 
ATOM     19  C   UNL     1      34.922 -21.864 -17.476  0.00  0.00    +0.248 C 
ATOM     20  C   UNL     1      36.139 -22.417 -15.355  0.00  0.00    +0.111 C 
ATOM     21  H   UNL     1      36.551 -20.868 -16.709  0.00  0.00    +0.150 HD
ENDBRANCH  14  19
ENDBRANCH   8  11
BRANCH   5  22
ATOM     22  C   UNL     1      35.184 -14.156 -22.001  0.00  0.00    +0.068 C 
BRANCH  22  24
ATOM     23  N   UNL     1      31.370 -10.032 -21.323  0.00  0.00    -0.248 NA
ATOM     24  C   UNL     1      34.184 -13.064 -21.829  0.00  0.00    -0.038 C 
ATOM     25  C   UNL     1      34.300 -11.886 -22.562  0.00  0.00    +0.050 C 
ATOM     26  C   UNL     1      33.360 -10.855 -22.404  0.00  0.00    -0.004 C 
ATOM     27  C   UNL     1      33.130 -13.214 -20.936  0.00  0.00    -0.028 C 
ATOM     28  C   UNL     1      32.287 -11.000 -21.499  0.00  0.00    +0.060 C 
ATOM     29  C   UNL     1      32.195 -12.188 -20.779  0.00  0.00    +0.071 C 
ATOM     30  C   UNL     1      33.453  -9.660 -23.129  0.00  0.00    -0.001 C 
ATOM     31  C   UNL     1      32.508  -8.658 -22.949  0.00  0.00    +0.020 C 
ATOM     32  C   UNL     1      31.496  -8.893 -22.043  0.00  0.00    +0.098 C 
ENDBRANCH  22  24
ENDBRANCH   5  22
TORSDOF 4
ENDMDL
MODEL 5
REMARK VINA RESULT:     -11.7      5.876     10.525
REMARK  Name = 25145656
REMARK  4 active torsions:
REMARK  status: ('A' for Active; 'I' for Inactive)
REMARK    1  A    between atoms: C_5  and  C_22
REMARK    2  A    between atoms: C_8  and  C_11
REMARK    3  A    between atoms: C_14  and  C_19
REMARK    4  A    between atoms: C_22  and  C_24
REMARK                            x       y       z     vdW  Elec       q    Type
REMARK                         _______ _______ _______ _____ _____    ______ ____
ROOT
ATOM      1  N   UNL     1      32.826 -23.283 -14.420  0.00  0.00    -0.134 N 
ATOM      2  N   UNL     1      33.533 -22.544 -15.303  0.00  0.00    -0.168 NA
ATOM      3  N   UNL     1      31.189 -24.507 -13.559  0.00  0.00    -0.178 NA
ATOM      4  N   UNL     1      30.934 -23.640 -15.804  0.00  0.00    -0.200 NA
ATOM      5  C   UNL     1      33.230 -23.624 -13.157  0.00  0.00    +0.086 C 
ATOM      6  C   UNL     1      31.578 -23.836 -14.628  0.00  0.00    +0.114 C 
ATOM      7  C   UNL     1      32.204 -24.379 -12.647  0.00  0.00    +0.124 C 
ATOM      8  C   UNL     1      32.942 -22.364 -16.445  0.00  0.00    +0.103 C 
ATOM      9  C   UNL     1      31.565 -22.934 -16.684  0.00  0.00    +0.184 C 
ENDROOT
BRANCH   8  11
ATOM     10  F   UNL     1      36.971 -20.842 -18.681  0.00  0.00    -0.204 F 
ATOM     11  C   UNL     1      33.611 -21.589 -17.516  0.00  0.00    +0.019 C 
ATOM     12  C   UNL     1      35.002 -21.576 -17.600  0.00  0.00    +0.031 C 
ATOM     13  C   UNL     1      32.848 -20.875 -18.440  0.00  0.00    +0.002 C 
ATOM     14  C   UNL     1      34.871 -20.132 -19.533  0.00  0.00    +0.081 C 
ATOM     15  C   UNL     1      35.632 -20.848 -18.609  0.00  0.00    +0.144 C 
ATOM     16  C   UNL     1      33.479 -20.146 -19.448  0.00  0.00    +0.007 C 
BRANCH  14  19
ATOM     17  O   UNL     1      36.719 -19.044 -20.482  0.00  0.00    -0.270 OA
ATOM     18  N   UNL     1      34.754 -19.056 -21.712  0.00  0.00    -0.299 N 
ATOM     19  C   UNL     1      35.524 -19.372 -20.587  0.00  0.00    +0.248 C 
ATOM     20  C   UNL     1      35.266 -18.328 -22.851  0.00  0.00    +0.111 C 
ATOM     21  H   UNL     1      33.814 -19.345 -21.730  0.00  0.00    +0.150 HD
ENDBRANCH  14  19
ENDBRANCH   8  11
BRANCH   5  22
ATOM     22  C   UNL     1      34.556 -23.197 -12.561  0.00  0.00    +0.068 C 
BRANCH  22  24
ATOM     23  N   UNL     1      38.997 -25.968 -14.711  0.00  0.00    -0.248 NA
ATOM     24  C   UNL     1      35.733 -23.922 -13.121  0.00  0.00    -0.038 C 
ATOM     25  C   UNL     1      37.016 -23.631 -12.667  0.00  0.00    +0.050 C 
ATOM     26  C   UNL     1      38.127 -24.312 -13.192  0.00  0.00    -0.004 C 
ATOM     27  C   UNL     1      35.555 -24.892 -14.100  0.00  0.00    -0.028 C 
ATOM     28  C   UNL     1      37.955 -25.298 -14.187  0.00  0.00    +0.060 C 
ATOM     29  C   UNL     1      36.660 -25.568 -14.622  0.00  0.00    +0.071 C 
ATOM     30  C   UNL     1      39.429 -24.040 -12.752  0.00  0.00    -0.001 C 
ATOM     31  C   UNL     1      40.507 -24.729 -13.291  0.00  0.00    +0.020 C 
ATOM     32  C   UNL     1      40.239 -25.675 -14.259  0.00  0.00    +0.098 C 
ENDBRANCH  22  24
ENDBRANCH   5  22
TORSDOF 4
ENDMDL
MODEL 6
REMARK VINA RESULT:     -11.5      5.625     11.386
REMARK  Name = 25145656
REMARK  4 active torsions:
REMARK  status: ('A' for Active; 'I' for Inactive)
REMARK    1  A    between atoms: C_5  and  C_22
REMARK    2  A    between atoms: C_8  and  C_11
REMARK    3  A    between atoms: C_14  and  C_19
REMARK    4  A    between atoms: C_22  and  C_24
REMARK                            x       y       z     vdW  Elec       q    Type
REMARK                         _______ _______ _______ _____ _____    ______ ____
ROOT
ATOM      1  N   UNL     1      34.300 -20.240 -19.219  0.00  0.00    -0.134 N 
ATOM      2  N   UNL     1      35.286 -20.636 -18.384  0.00  0.00    -0.168 NA
ATOM      3  N   UNL     1      32.303 -20.097 -20.176  0.00  0.00    -0.178 NA
ATOM      4  N   UNL     1      32.619 -21.687 -18.378  0.00  0.00    -0.200 NA
ATOM      5  C   UNL     1      34.412 -19.284 -20.193  0.00  0.00    +0.086 C 
ATOM      6  C   UNL     1      33.003 -20.714 -19.240  0.00  0.00    +0.114 C 
ATOM      7  C   UNL     1      33.168 -19.215 -20.768  0.00  0.00    +0.124 C 
ATOM      8  C   UNL     1      34.931 -21.553 -17.535  0.00  0.00    +0.103 C 
ATOM      9  C   UNL     1      33.527 -22.107 -17.559  0.00  0.00    +0.184 C 
ENDROOT
BRANCH   8  11
ATOM     10  F   UNL     1      36.065 -24.502 -13.852  0.00  0.00    -0.204 F 
ATOM     11  C   UNL     1      35.905 -22.067 -16.544  0.00  0.00    +0.019 C 
ATOM     12  C   UNL     1      35.524 -23.061 -15.644  0.00  0.00    +0.031 C 
ATOM     13  C   UNL     1      37.203 -21.556 -16.513  0.00  0.00    +0.002 C 
ATOM     14  C   UNL     1      37.739 -23.035 -14.679  0.00  0.00    +0.081 C 
ATOM     15  C   UNL     1      36.442 -23.545 -14.712  0.00  0.00    +0.144 C 
ATOM     16  C   UNL     1      38.120 -22.041 -15.580  0.00  0.00    +0.007 C 
BRANCH  14  19
ATOM     17  O   UNL     1      38.656 -23.163 -12.525  0.00  0.00    -0.270 OA
ATOM     18  N   UNL     1      39.639 -24.467 -14.170  0.00  0.00    -0.299 N 
ATOM     19  C   UNL     1      38.699 -23.538 -13.709  0.00  0.00    +0.248 C 
ATOM     20  C   UNL     1      40.642 -25.075 -13.324  0.00  0.00    +0.111 C 
ATOM     21  H   UNL     1      39.618 -24.720 -15.121  0.00  0.00    +0.150 HD
ENDBRANCH  14  19
ENDBRANCH   8  11
BRANCH   5  22
ATOM     22  C   UNL     1      35.695 -18.531 -20.480  0.00  0.00    +0.068 C 
BRANCH  22  24
ATOM     23  N   UNL     1      34.931 -13.660 -23.258  0.00  0.00    -0.248 NA
ATOM     24  C   UNL     1      35.491 -17.243 -21.203  0.00  0.00    -0.038 C 
ATOM     25  C   UNL     1      35.103 -16.102 -20.506  0.00  0.00    +0.050 C 
ATOM     26  C   UNL     1      34.910 -14.887 -21.183  0.00  0.00    -0.004 C 
ATOM     27  C   UNL     1      35.688 -17.173 -22.577  0.00  0.00    -0.028 C 
ATOM     28  C   UNL     1      35.108 -14.808 -22.578  0.00  0.00    +0.060 C 
ATOM     29  C   UNL     1      35.496 -15.964 -23.250  0.00  0.00    +0.071 C 
ATOM     30  C   UNL     1      34.520 -13.723 -20.506  0.00  0.00    -0.001 C 
ATOM     31  C   UNL     1      34.337 -12.538 -21.205  0.00  0.00    +0.020 C 
ATOM     32  C   UNL     1      34.554 -12.559 -22.567  0.00  0.00    +0.098 C 
ENDBRANCH  22  24
ENDBRANCH   5  22
TORSDOF 4
ENDMDL
MODEL 7
REMARK VINA RESULT:     -11.0      3.517      6.639
REMARK  Name = 25145656
REMARK  4 active torsions:
REMARK  status: ('A' for Active; 'I' for Inactive)
REMARK    1  A    between atoms: C_5  and  C_22
REMARK    2  A    between atoms: C_8  and  C_11
REMARK    3  A    between atoms: C_14  and  C_19
REMARK    4  A    between atoms: C_22  and  C_24
REMARK                            x       y       z     vdW  Elec       q    Type
REMARK                         _______ _______ _______ _____ _____    ______ ____
ROOT
ATOM      1  N   UNL     1      32.710 -10.956 -21.408  0.00  0.00    -0.134 N 
ATOM      2  N   UNL     1      32.772  -9.795 -22.097  0.00  0.00    -0.168 NA
ATOM      3  N   UNL     1      32.222 -12.411 -19.807  0.00  0.00    -0.178 NA
ATOM      4  N   UNL     1      31.511 -10.113 -19.543  0.00  0.00    -0.200 NA
ATOM      5  C   UNL     1      33.234 -12.155 -21.811  0.00  0.00    +0.086 C 
ATOM      6  C   UNL     1      32.104 -11.151 -20.182  0.00  0.00    +0.114 C 
ATOM      7  C   UNL     1      32.919 -13.036 -20.807  0.00  0.00    +0.124 C 
ATOM      8  C   UNL     1      32.189  -8.793 -21.511  0.00  0.00    +0.103 C 
ATOM      9  C   UNL     1      31.546  -8.976 -20.157  0.00  0.00    +0.184 C 
ENDROOT
BRANCH   8  11
ATOM     10  F   UNL     1      32.471  -3.955 -21.267  0.00  0.00    -0.204 F 
ATOM     11  C   UNL     1      32.160  -7.463 -22.163  0.00  0.00    +0.019 C 
ATOM     12  C   UNL     1      32.331  -6.309 -21.398  0.00  0.00    +0.031 C 
ATOM     13  C   UNL     1      31.963  -7.366 -23.540  0.00  0.00    +0.002 C 
ATOM     14  C   UNL     1      32.107  -4.958 -23.389  0.00  0.00    +0.081 C 
ATOM     15  C   UNL     1      32.305  -5.057 -22.012  0.00  0.00    +0.144 C 
ATOM     16  C   UNL     1      31.936  -6.113 -24.153  0.00  0.00    +0.007 C 
BRANCH  14  19
ATOM     17  O   UNL     1      33.139  -3.081 -24.342  0.00  0.00    -0.270 OA
ATOM     18  N   UNL     1      30.821  -3.105 -24.299  0.00  0.00    -0.299 N 
ATOM     19  C   UNL     1      32.080  -3.655 -24.032  0.00  0.00    +0.248 C 
ATOM     20  C   UNL     1      30.628  -1.831 -24.954  0.00  0.00    +0.111 C 
ATOM     21  H   UNL     1      30.023  -3.612 -24.027  0.00  0.00    +0.150 HD
ENDBRANCH  14  19
ENDBRANCH   8  11
BRANCH   5  22
ATOM     22  C   UNL     1      33.982 -12.342 -23.115  0.00  0.00    +0.068 C 
BRANCH  22  24
ATOM     23  N   UNL     1      34.221 -17.709 -24.893  0.00  0.00    -0.248 NA
ATOM     24  C   UNL     1      34.050 -13.759 -23.575  0.00  0.00    -0.038 C 
ATOM     25  C   UNL     1      34.678 -14.721 -22.789  0.00  0.00    +0.050 C 
ATOM     26  C   UNL     1      34.744 -16.057 -23.219  0.00  0.00    -0.004 C 
ATOM     27  C   UNL     1      33.487 -14.127 -24.791  0.00  0.00    -0.028 C 
ATOM     28  C   UNL     1      34.175 -16.439 -24.452  0.00  0.00    +0.060 C 
ATOM     29  C   UNL     1      33.553 -15.456 -25.218  0.00  0.00    +0.071 C 
ATOM     30  C   UNL     1      35.369 -17.046 -22.447  0.00  0.00    -0.001 C 
ATOM     31  C   UNL     1      35.418 -18.357 -22.900  0.00  0.00    +0.020 C 
ATOM     32  C   UNL     1      34.834 -18.634 -24.118  0.00  0.00    +0.098 C 
ENDBRANCH  22  24
ENDBRANCH   5  22
TORSDOF 4
ENDMDL
MODEL 8
REMARK VINA RESULT:     -11.0      4.600      9.200
REMARK  Name = 25145656
REMARK  4 active torsions:
REMARK  status: ('A' for Active; 'I' for Inactive)
REMARK    1  A    between atoms: C_5  and  C_22
REMARK    2  A    between atoms: C_8  and  C_11
REMARK    3  A    between atoms: C_14  and  C_19
REMARK    4  A    between atoms: C_22  and  C_24
REMARK                            x       y       z     vdW  Elec       q    Type
REMARK                         _______ _______ _______ _____ _____    ______ ____
ROOT
ATOM      1  N   UNL     1      35.566 -22.553 -15.753  0.00  0.00    -0.134 N 
ATOM      2  N   UNL     1      35.264 -21.999 -16.948  0.00  0.00    -0.168 NA
ATOM      3  N   UNL     1      36.630 -22.965 -13.851  0.00  0.00    -0.178 NA
ATOM      4  N   UNL     1      37.550 -21.313 -15.362  0.00  0.00    -0.200 NA
ATOM      5  C   UNL     1      34.839 -23.520 -15.112  0.00  0.00    +0.086 C 
ATOM      6  C   UNL     1      36.650 -22.241 -14.956  0.00  0.00    +0.114 C 
ATOM      7  C   UNL     1      35.515 -23.756 -13.942  0.00  0.00    +0.124 C 
ATOM      8  C   UNL     1      36.103 -21.090 -17.344  0.00  0.00    +0.103 C 
ATOM      9  C   UNL     1      37.311 -20.755 -16.503  0.00  0.00    +0.184 C 
ENDROOT
BRANCH   8  11
ATOM     10  F   UNL     1      37.756 -18.395 -21.025  0.00  0.00    -0.204 F 
ATOM     11  C   UNL     1      35.885 -20.384 -18.628  0.00  0.00    +0.019 C 
ATOM     12  C   UNL     1      36.940 -19.707 -19.238  0.00  0.00    +0.031 C 
ATOM     13  C   UNL     1      34.624 -20.397 -19.225  0.00  0.00    +0.002 C 
ATOM     14  C   UNL     1      35.475 -19.054 -21.045  0.00  0.00    +0.081 C 
ATOM     15  C   UNL     1      36.734 -19.042 -20.447  0.00  0.00    +0.144 C 
ATOM     16  C   UNL     1      34.420 -19.731 -20.434  0.00  0.00    +0.007 C 
BRANCH  14  19
ATOM     17  O   UNL     1      35.041 -19.004 -23.349  0.00  0.00    -0.270 OA
ATOM     18  N   UNL     1      35.279 -16.964 -22.275  0.00  0.00    -0.299 N 
ATOM     19  C   UNL     1      35.256 -18.363 -22.306  0.00  0.00    +0.248 C 
ATOM     20  C   UNL     1      35.055 -16.135 -23.438  0.00  0.00    +0.111 C 
ATOM     21  H   UNL     1      35.456 -16.519 -21.415  0.00  0.00    +0.150 HD
ENDBRANCH  14  19
ENDBRANCH   8  11
BRANCH   5  22
ATOM     22  C   UNL     1      33.570 -24.123 -15.680  0.00  0.00    +0.068 C 
BRANCH  22  24
ATOM     23  N   UNL     1      28.874 -21.359 -14.154  0.00  0.00    -0.248 NA
ATOM     24  C   UNL     1      32.327 -23.399 -15.285  0.00  0.00    -0.038 C 
ATOM     25  C   UNL     1      31.166 -23.539 -16.040  0.00  0.00    +0.050 C 
ATOM     26  C   UNL     1      29.993 -22.859 -15.672  0.00  0.00    -0.004 C 
ATOM     27  C   UNL     1      32.322 -22.579 -14.163  0.00  0.00    -0.028 C 
ATOM     28  C   UNL     1      29.980 -22.025 -14.534  0.00  0.00    +0.060 C 
ATOM     29  C   UNL     1      31.155 -21.903 -13.798  0.00  0.00    +0.071 C 
ATOM     30  C   UNL     1      28.810 -22.983 -16.412  0.00  0.00    -0.001 C 
ATOM     31  C   UNL     1      27.668 -22.297 -16.023  0.00  0.00    +0.020 C 
ATOM     32  C   UNL     1      27.752 -21.506 -14.897  0.00  0.00    +0.098 C 
ENDBRANCH  22  24
ENDBRANCH   5  22
TORSDOF 4
ENDMDL
MODEL 9
REMARK VINA RESULT:     -11.0      3.260     10.335
REMARK  Name = 25145656
REMARK  4 active torsions:
REMARK  status: ('A' for Active; 'I' for Inactive)
REMARK    1  A    between atoms: C_5  and  C_22
REMARK    2  A    between atoms: C_8  and  C_11
REMARK    3  A    between atoms: C_14  and  C_19
REMARK    4  A    between atoms: C_22  and  C_24
REMARK                            x       y       z     vdW  Elec       q    Type
REMARK                         _______ _______ _______ _____ _____    ______ ____
ROOT
ATOM      1  N   UNL     1      34.151 -12.606 -24.271  0.00  0.00    -0.134 N 
ATOM      2  N   UNL     1      34.468 -13.499 -23.307  0.00  0.00    -0.168 NA
ATOM      3  N   UNL     1      33.626 -11.779 -26.261  0.00  0.00    -0.178 NA
ATOM      4  N   UNL     1      34.036 -14.156 -26.063  0.00  0.00    -0.200 NA
ATOM      5  C   UNL     1      33.988 -11.259 -24.092  0.00  0.00    +0.086 C 
ATOM      6  C   UNL     1      33.926 -12.885 -25.604  0.00  0.00    +0.114 C 
ATOM      7  C   UNL     1      33.664 -10.772 -25.333  0.00  0.00    +0.124 C 
ATOM      8  C   UNL     1      34.556 -14.727 -23.723  0.00  0.00    +0.103 C 
ATOM      9  C   UNL     1      34.343 -15.050 -25.181  0.00  0.00    +0.184 C 
ENDROOT
BRANCH   8  11
ATOM     10  F   UNL     1      35.312 -19.422 -22.758  0.00  0.00    -0.204 F 
ATOM     11  C   UNL     1      34.876 -15.814 -22.769  0.00  0.00    +0.019 C 
ATOM     12  C   UNL     1      34.946 -17.133 -23.215  0.00  0.00    +0.031 C 
ATOM     13  C   UNL     1      35.108 -15.518 -21.426  0.00  0.00    +0.002 C 
ATOM     14  C   UNL     1      35.479 -17.863 -20.974  0.00  0.00    +0.081 C 
ATOM     15  C   UNL     1      35.247 -18.157 -22.318  0.00  0.00    +0.144 C 
ATOM     16  C   UNL     1      35.409 -16.543 -20.529  0.00  0.00    +0.007 C 
BRANCH  14  19
ATOM     17  O   UNL     1      36.912 -18.980 -19.492  0.00  0.00    -0.270 OA
ATOM     18  N   UNL     1      34.783 -19.856 -19.765  0.00  0.00    -0.299 N 
ATOM     19  C   UNL     1      35.795 -18.927 -20.036  0.00  0.00    +0.248 C 
ATOM     20  C   UNL     1      34.935 -20.955 -18.839  0.00  0.00    +0.111 C 
ATOM     21  H   UNL     1      33.922 -19.756 -20.231  0.00  0.00    +0.150 HD
ENDBRANCH  14  19
ENDBRANCH   8  11
BRANCH   5  22
ATOM     22  C   UNL     1      34.155 -10.569 -22.753  0.00  0.00    +0.068 C 
BRANCH  22  24
ATOM     23  N   UNL     1      31.337  -5.683 -22.304  0.00  0.00    -0.248 NA
ATOM     24  C   UNL     1      33.418  -9.277 -22.642  0.00  0.00    -0.038 C 
ATOM     25  C   UNL     1      33.753  -8.207 -23.466  0.00  0.00    +0.050 C 
ATOM     26  C   UNL     1      33.062  -6.989 -23.366  0.00  0.00    -0.004 C 
ATOM     27  C   UNL     1      32.393  -9.134 -21.715  0.00  0.00    -0.028 C 
ATOM     28  C   UNL     1      32.019  -6.836 -22.427  0.00  0.00    +0.060 C 
ATOM     29  C   UNL     1      31.705  -7.923 -21.615  0.00  0.00    +0.071 C 
ATOM     30  C   UNL     1      33.377  -5.896 -24.184  0.00  0.00    -0.001 C 
ATOM     31  C   UNL     1      32.675  -4.704 -24.059  0.00  0.00    +0.020 C 
ATOM     32  C   UNL     1      31.673  -4.651 -23.113  0.00  0.00    +0.098 C 
ENDBRANCH  22  24
ENDBRANCH   5  22
TORSDOF 4
ENDMDL
