MODEL 1
REMARK VINA RESULT:     -11.8      0.000      0.000
REMARK  Name = 6918388
REMARK  5 active torsions:
REMARK  status: ('A' for Active; 'I' for Inactive)
REMARK    1  A    between atoms: N_1  and  C_4
REMARK    2  A    between atoms: N_1  and  C_15
REMARK    3  A    between atoms: C_4  and  C_6
REMARK    4  A    between atoms: C_15  and  C_17
REMARK    5  A    between atoms: C_19  and  C_23
REMARK                            x       y       z     vdW  Elec       q    Type
REMARK                         _______ _______ _______ _____ _____    ______ ____
ROOT
ATOM      1  N   UNL     1      33.806 -22.899 -17.127  0.00  0.00    +0.389 N 
ATOM      2  H   UNL     1      33.453 -23.767 -17.528  0.00  0.00    -0.084 HD
ATOM      3  H   UNL     1      34.825 -22.911 -17.092  0.00  0.00    -0.084 HD
ENDROOT
BRANCH   1   4
ATOM      4  C   UNL     1      33.297 -22.761 -15.770  0.00  0.00    -0.037 C 
BRANCH   4   6
ATOM      5  O   UNL     1      35.180 -24.101 -15.189  0.00  0.00    -0.482 OA
ATOM      6  C   UNL     1      34.405 -22.977 -14.746  0.00  0.00    +0.145 C 
ATOM      7  C   UNL     1      33.821 -23.220 -13.356  0.00  0.00    +0.046 C 
ATOM      8  C   UNL     1      34.959 -23.377 -12.356  0.00  0.00    +0.033 C 
ATOM      9  C   UNL     1      36.016 -24.294 -12.903  0.00  0.00    +0.012 C 
ATOM     10  C   UNL     1      36.073 -24.590 -14.271  0.00  0.00    +0.134 C 
ATOM     11  C   UNL     1      36.978 -24.842 -12.045  0.00  0.00    -0.001 C 
ATOM     12  C   UNL     1      37.053 -25.455 -14.764  0.00  0.00    +0.037 C 
ATOM     13  C   UNL     1      37.964 -25.695 -12.541  0.00  0.00    -0.000 C 
ATOM     14  C   UNL     1      37.999 -26.004 -13.899  0.00  0.00    +0.003 C 
ENDBRANCH   4   6
ENDBRANCH   1   4
BRANCH   1  15
ATOM     15  C   UNL     1      33.383 -21.782 -17.959  0.00  0.00    -0.053 C 
BRANCH  15  17
ATOM     16  N   UNL     1      36.924 -20.648 -18.567  0.00  0.00    -0.243 NA
ATOM     17  C   UNL     1      34.555 -21.045 -18.550  0.00  0.00    -0.025 C 
ATOM     18  C   UNL     1      34.365 -20.130 -19.566  0.00  0.00    -0.003 C 
ATOM     19  C   UNL     1      35.467 -19.466 -20.092  0.00  0.00    +0.019 C 
ATOM     20  C   UNL     1      35.829 -21.275 -18.082  0.00  0.00    +0.092 C 
ATOM     21  C   UNL     1      36.714 -19.758 -19.563  0.00  0.00    +0.099 C 
BRANCH  19  23
ATOM     22  F   UNL     1      34.896 -15.745 -24.206  0.00  0.00    -0.204 F 
ATOM     23  C   UNL     1      35.318 -18.501 -21.156  0.00  0.00    +0.002 C 
ATOM     24  C   UNL     1      34.785 -18.893 -22.386  0.00  0.00    +0.002 C 
ATOM     25  C   UNL     1      35.709 -17.176 -20.961  0.00  0.00    +0.002 C 
ATOM     26  C   UNL     1      34.643 -17.962 -23.416  0.00  0.00    +0.030 C 
ATOM     27  C   UNL     1      35.566 -16.245 -21.991  0.00  0.00    +0.030 C 
ATOM     28  C   UNL     1      35.033 -16.639 -23.217  0.00  0.00    +0.140 C 
ENDBRANCH  19  23
ENDBRANCH  15  17
ENDBRANCH   1  15
TORSDOF 5
ENDMDL
MODEL 2
REMARK VINA RESULT:     -11.7      3.579      9.107
REMARK  Name = 6918388
REMARK  5 active torsions:
REMARK  status: ('A' for Active; 'I' for Inactive)
REMARK    1  A    between atoms: N_1  and  C_4
REMARK    2  A    between atoms: N_1  and  C_15
REMARK    3  A    between atoms: C_4  and  C_6
REMARK    4  A    between atoms: C_15  and  C_17
REMARK    5  A    between atoms: C_19  and  C_23
REMARK                            x       y       z     vdW  Elec       q    Type
REMARK                         _______ _______ _______ _____ _____    ______ ____
ROOT
ATOM      1  N   UNL     1      33.783 -22.600 -17.297  0.00  0.00    +0.389 N 
ATOM      2  H   UNL     1      34.673 -22.239 -16.957  0.00  0.00    -0.084 HD
ATOM      3  H   UNL     1      33.893 -23.554 -17.641  0.00  0.00    -0.084 HD
ENDROOT
BRANCH   1   4
ATOM      4  C   UNL     1      33.315 -21.763 -18.392  0.00  0.00    -0.037 C 
BRANCH   4   6
ATOM      5  O   UNL     1      34.032 -20.198 -20.040  0.00  0.00    -0.482 OA
ATOM      6  C   UNL     1      34.329 -20.675 -18.719  0.00  0.00    +0.145 C 
ATOM      7  C   UNL     1      35.755 -21.216 -18.632  0.00  0.00    +0.046 C 
ATOM      8  C   UNL     1      36.737 -20.086 -18.912  0.00  0.00    +0.033 C 
ATOM      9  C   UNL     1      36.299 -19.296 -20.113  0.00  0.00    +0.012 C 
ATOM     10  C   UNL     1      34.988 -19.387 -20.595  0.00  0.00    +0.134 C 
ATOM     11  C   UNL     1      37.202 -18.433 -20.748  0.00  0.00    -0.001 C 
ATOM     12  C   UNL     1      34.599 -18.656 -21.720  0.00  0.00    +0.037 C 
ATOM     13  C   UNL     1      36.808 -17.694 -21.864  0.00  0.00    -0.000 C 
ATOM     14  C   UNL     1      35.508 -17.809 -22.352  0.00  0.00    +0.003 C 
ENDBRANCH   4   6
ENDBRANCH   1   4
BRANCH   1  15
ATOM     15  C   UNL     1      32.823 -22.611 -16.201  0.00  0.00    -0.053 C 
BRANCH  15  17
ATOM     16  N   UNL     1      33.241 -23.351 -12.531  0.00  0.00    -0.243 NA
ATOM     17  C   UNL     1      33.465 -22.996 -14.895  0.00  0.00    -0.025 C 
ATOM     18  C   UNL     1      34.803 -23.334 -14.848  0.00  0.00    -0.003 C 
ATOM     19  C   UNL     1      35.369 -23.686 -13.628  0.00  0.00    +0.019 C 
ATOM     20  C   UNL     1      32.726 -23.015 -13.734  0.00  0.00    +0.092 C 
ATOM     21  C   UNL     1      34.552 -23.679 -12.508  0.00  0.00    +0.099 C 
BRANCH  19  23
ATOM     22  F   UNL     1      40.754 -25.081 -13.241  0.00  0.00    -0.204 F 
ATOM     23  C   UNL     1      36.764 -24.048 -13.529  0.00  0.00    +0.002 C 
ATOM     24  C   UNL     1      37.214 -24.810 -12.449  0.00  0.00    +0.002 C 
ATOM     25  C   UNL     1      37.666 -23.636 -14.511  0.00  0.00    +0.002 C 
ATOM     26  C   UNL     1      38.561 -25.158 -12.352  0.00  0.00    +0.030 C 
ATOM     27  C   UNL     1      39.014 -23.985 -14.414  0.00  0.00    +0.030 C 
ATOM     28  C   UNL     1      39.460 -24.746 -13.334  0.00  0.00    +0.140 C 
ENDBRANCH  19  23
ENDBRANCH  15  17
ENDBRANCH   1  15
TORSDOF 5
ENDMDL
MODEL 3
REMARK VINA RESULT:     -11.6      1.656      2.471
REMARK  Name = 6918388
REMARK  5 active torsions:
REMARK  status: ('A' for Active; 'I' for Inactive)
REMARK    1  A    between atoms: N_1  and  C_4
REMARK    2  A    between atoms: N_1  and  C_15
REMARK    3  A    between atoms: C_4  and  C_6
REMARK    4  A    between atoms: C_15  and  C_17
REMARK    5  A    between atoms: C_19  and  C_23
REMARK                            x       y       z     vdW  Elec       q    Type
REMARK                         _______ _______ _______ _____ _____    ______ ____
ROOT
ATOM      1  N   UNL     1      36.386 -21.337 -17.271  0.00  0.00    +0.389 N 
ATOM      2  H   UNL     1      35.477 -20.950 -17.021  0.00  0.00    -0.084 HD
ATOM      3  H   UNL     1      36.355 -22.356 -17.263  0.00  0.00    -0.084 HD
ENDROOT
BRANCH   1   4
ATOM      4  C   UNL     1      37.376 -20.895 -16.299  0.00  0.00    -0.037 C 
BRANCH   4   6
ATOM      5  O   UNL     1      38.207 -22.711 -14.999  0.00  0.00    -0.482 OA
ATOM      6  C   UNL     1      37.232 -21.658 -14.988  0.00  0.00    +0.145 C 
ATOM      7  C   UNL     1      35.817 -22.214 -14.835  0.00  0.00    +0.046 C 
ATOM      8  C   UNL     1      35.701 -22.922 -13.491  0.00  0.00    +0.033 C 
ATOM      9  C   UNL     1      36.892 -23.808 -13.260  0.00  0.00    +0.012 C 
ATOM     10  C   UNL     1      38.064 -23.647 -14.008  0.00  0.00    +0.134 C 
ATOM     11  C   UNL     1      36.846 -24.793 -12.265  0.00  0.00    -0.001 C 
ATOM     12  C   UNL     1      39.159 -24.488 -13.792  0.00  0.00    +0.037 C 
ATOM     13  C   UNL     1      37.945 -25.623 -12.041  0.00  0.00    -0.000 C 
ATOM     14  C   UNL     1      39.099 -25.473 -12.807  0.00  0.00    +0.003 C 
ENDBRANCH   4   6
ENDBRANCH   1   4
BRANCH   1  15
ATOM     15  C   UNL     1      36.739 -20.894 -18.613  0.00  0.00    -0.053 C 
BRANCH  15  17
ATOM     16  N   UNL     1      33.164 -20.358 -19.674  0.00  0.00    -0.243 NA
ATOM     17  C   UNL     1      35.546 -20.367 -19.364  0.00  0.00    -0.025 C 
ATOM     18  C   UNL     1      35.711 -19.453 -20.386  0.00  0.00    -0.003 C 
ATOM     19  C   UNL     1      34.591 -18.984 -21.060  0.00  0.00    +0.019 C 
ATOM     20  C   UNL     1      34.277 -20.792 -19.041  0.00  0.00    +0.092 C 
ATOM     21  C   UNL     1      33.350 -19.463 -20.670  0.00  0.00    +0.099 C 
BRANCH  19  23
ATOM     22  F   UNL     1      35.061 -15.284 -25.206  0.00  0.00    -0.204 F 
ATOM     23  C   UNL     1      34.713 -18.027 -22.135  0.00  0.00    +0.002 C 
ATOM     24  C   UNL     1      35.297 -16.780 -21.898  0.00  0.00    +0.002 C 
ATOM     25  C   UNL     1      34.247 -18.342 -23.412  0.00  0.00    +0.002 C 
ATOM     26  C   UNL     1      35.415 -15.855 -22.936  0.00  0.00    +0.030 C 
ATOM     27  C   UNL     1      34.364 -17.417 -24.449  0.00  0.00    +0.030 C 
ATOM     28  C   UNL     1      34.948 -16.173 -24.210  0.00  0.00    +0.140 C 
ENDBRANCH  19  23
ENDBRANCH  15  17
ENDBRANCH   1  15
TORSDOF 5
ENDMDL
MODEL 4
REMARK VINA RESULT:     -11.5      4.078      9.769
REMARK  Name = 6918388
REMARK  5 active torsions:
REMARK  status: ('A' for Active; 'I' for Inactive)
REMARK    1  A    between atoms: N_1  and  C_4
REMARK    2  A    between atoms: N_1  and  C_15
REMARK    3  A    between atoms: C_4  and  C_6
REMARK    4  A    between atoms: C_15  and  C_17
REMARK    5  A    between atoms: C_19  and  C_23
REMARK                            x       y       z     vdW  Elec       q    Type
REMARK                         _______ _______ _______ _____ _____    ______ ____
ROOT
ATOM      1  N   UNL     1      35.198 -19.787 -19.306  0.00  0.00    +0.389 N 
ATOM      2  H   UNL     1      34.454 -19.416 -19.895  0.00  0.00    -0.084 HD
ATOM      3  H   UNL     1      35.152 -19.377 -18.373  0.00  0.00    -0.084 HD
ENDROOT
BRANCH   1   4
ATOM      4  C   UNL     1      36.487 -19.453 -19.896  0.00  0.00    -0.037 C 
BRANCH   4   6
ATOM      5  O   UNL     1      35.716 -17.199 -19.968  0.00  0.00    -0.482 OA
ATOM      6  C   UNL     1      36.385 -18.197 -20.752  0.00  0.00    +0.145 C 
ATOM      7  C   UNL     1      35.629 -18.483 -22.049  0.00  0.00    +0.046 C 
ATOM      8  C   UNL     1      35.597 -17.218 -22.898  0.00  0.00    +0.033 C 
ATOM      9  C   UNL     1      35.233 -16.029 -22.055  0.00  0.00    +0.012 C 
ATOM     10  C   UNL     1      35.322 -16.083 -20.658  0.00  0.00    +0.134 C 
ATOM     11  C   UNL     1      34.823 -14.838 -22.668  0.00  0.00    -0.001 C 
ATOM     12  C   UNL     1      34.967 -14.973 -19.887  0.00  0.00    +0.037 C 
ATOM     13  C   UNL     1      34.481 -13.727 -21.896  0.00  0.00    -0.000 C 
ATOM     14  C   UNL     1      34.549 -13.796 -20.507  0.00  0.00    +0.003 C 
ENDBRANCH   4   6
ENDBRANCH   1   4
BRANCH   1  15
ATOM     15  C   UNL     1      35.038 -21.230 -19.186  0.00  0.00    -0.053 C 
BRANCH  15  17
ATOM     16  N   UNL     1      35.964 -21.980 -15.612  0.00  0.00    -0.243 NA
ATOM     17  C   UNL     1      34.917 -21.665 -17.750  0.00  0.00    -0.025 C 
ATOM     18  C   UNL     1      33.712 -22.129 -17.261  0.00  0.00    -0.003 C 
ATOM     19  C   UNL     1      33.630 -22.523 -15.930  0.00  0.00    +0.019 C 
ATOM     20  C   UNL     1      36.005 -21.605 -16.910  0.00  0.00    +0.092 C 
ATOM     21  C   UNL     1      34.774 -22.430 -15.154  0.00  0.00    +0.099 C 
BRANCH  19  23
ATOM     22  F   UNL     1      28.851 -24.428 -13.779  0.00  0.00    -0.204 F 
ATOM     23  C   UNL     1      32.391 -23.015 -15.373  0.00  0.00    +0.002 C 
ATOM     24  C   UNL     1      32.413 -23.887 -14.282  0.00  0.00    +0.002 C 
ATOM     25  C   UNL     1      31.170 -22.623 -15.923  0.00  0.00    +0.002 C 
ATOM     26  C   UNL     1      31.217 -24.364 -13.744  0.00  0.00    +0.030 C 
ATOM     27  C   UNL     1      29.974 -23.100 -15.385  0.00  0.00    +0.030 C 
ATOM     28  C   UNL     1      29.998 -23.970 -14.296  0.00  0.00    +0.140 C 
ENDBRANCH  19  23
ENDBRANCH  15  17
ENDBRANCH   1  15
TORSDOF 5
ENDMDL
MODEL 5
REMARK VINA RESULT:     -11.4      3.545      9.005
REMARK  Name = 6918388
REMARK  5 active torsions:
REMARK  status: ('A' for Active; 'I' for Inactive)
REMARK    1  A    between atoms: N_1  and  C_4
REMARK    2  A    between atoms: N_1  and  C_15
REMARK    3  A    between atoms: C_4  and  C_6
REMARK    4  A    between atoms: C_15  and  C_17
REMARK    5  A    between atoms: C_19  and  C_23
REMARK                            x       y       z     vdW  Elec       q    Type
REMARK                         _______ _______ _______ _____ _____    ______ ____
ROOT
ATOM      1  N   UNL     1      33.259 -22.072 -16.820  0.00  0.00    +0.389 N 
ATOM      2  H   UNL     1      32.504 -21.519 -17.225  0.00  0.00    -0.084 HD
ATOM      3  H   UNL     1      33.854 -21.488 -16.234  0.00  0.00    -0.084 HD
ENDROOT
BRANCH   1   4
ATOM      4  C   UNL     1      34.069 -22.631 -17.893  0.00  0.00    -0.037 C 
BRANCH   4   6
ATOM      5  O   UNL     1      35.511 -21.039 -18.924  0.00  0.00    -0.482 OA
ATOM      6  C   UNL     1      34.214 -21.641 -19.041  0.00  0.00    +0.145 C 
ATOM      7  C   UNL     1      33.107 -20.589 -18.994  0.00  0.00    +0.046 C 
ATOM      8  C   UNL     1      33.256 -19.652 -20.187  0.00  0.00    +0.033 C 
ATOM      9  C   UNL     1      34.690 -19.236 -20.351  0.00  0.00    +0.012 C 
ATOM     10  C   UNL     1      35.723 -19.949 -19.729  0.00  0.00    +0.134 C 
ATOM     11  C   UNL     1      35.010 -18.137 -21.159  0.00  0.00    -0.001 C 
ATOM     12  C   UNL     1      37.051 -19.542 -19.880  0.00  0.00    +0.037 C 
ATOM     13  C   UNL     1      36.338 -17.741 -21.320  0.00  0.00    -0.000 C 
ATOM     14  C   UNL     1      37.357 -18.441 -20.677  0.00  0.00    +0.003 C 
ENDBRANCH   4   6
ENDBRANCH   1   4
BRANCH   1  15
ATOM     15  C   UNL     1      32.686 -23.127 -15.995  0.00  0.00    -0.053 C 
BRANCH  15  17
ATOM     16  N   UNL     1      33.420 -23.191 -12.300  0.00  0.00    -0.243 NA
ATOM     17  C   UNL     1      33.434 -23.295 -14.699  0.00  0.00    -0.025 C 
ATOM     18  C   UNL     1      34.759 -23.686 -14.703  0.00  0.00    -0.003 C 
ATOM     19  C   UNL     1      35.423 -23.833 -13.492  0.00  0.00    +0.019 C 
ATOM     20  C   UNL     1      32.807 -23.059 -13.497  0.00  0.00    +0.092 C 
ATOM     21  C   UNL     1      34.716 -23.576 -12.328  0.00  0.00    +0.099 C 
BRANCH  19  23
ATOM     22  F   UNL     1      40.768 -25.415 -13.312  0.00  0.00    -0.204 F 
ATOM     23  C   UNL     1      36.808 -24.241 -13.445  0.00  0.00    +0.002 C 
ATOM     24  C   UNL     1      37.298 -25.160 -14.376  0.00  0.00    +0.002 C 
ATOM     25  C   UNL     1      37.660 -23.722 -12.469  0.00  0.00    +0.002 C 
ATOM     26  C   UNL     1      38.635 -25.556 -14.331  0.00  0.00    +0.030 C 
ATOM     27  C   UNL     1      38.997 -24.118 -12.424  0.00  0.00    +0.030 C 
ATOM     28  C   UNL     1      39.484 -25.035 -13.355  0.00  0.00    +0.140 C 
ENDBRANCH  19  23
ENDBRANCH  15  17
ENDBRANCH   1  15
TORSDOF 5
ENDMDL
MODEL 6
REMARK VINA RESULT:     -11.3      1.224      1.725
REMARK  Name = 6918388
REMARK  5 active torsions:
REMARK  status: ('A' for Active; 'I' for Inactive)
REMARK    1  A    between atoms: N_1  and  C_4
REMARK    2  A    between atoms: N_1  and  C_15
REMARK    3  A    between atoms: C_4  and  C_6
REMARK    4  A    between atoms: C_15  and  C_17
REMARK    5  A    between atoms: C_19  and  C_23
REMARK                            x       y       z     vdW  Elec       q    Type
REMARK                         _______ _______ _______ _____ _____    ______ ____
ROOT
ATOM      1  N   UNL     1      33.864 -22.611 -17.511  0.00  0.00    +0.389 N 
ATOM      2  H   UNL     1      33.312 -23.416 -17.803  0.00  0.00    -0.084 HD
ATOM      3  H   UNL     1      34.852 -22.762 -17.717  0.00  0.00    -0.084 HD
ENDROOT
BRANCH   1   4
ATOM      4  C   UNL     1      33.714 -22.425 -16.075  0.00  0.00    -0.037 C 
BRANCH   4   6
ATOM      5  O   UNL     1      34.553 -23.058 -13.936  0.00  0.00    -0.482 OA
ATOM      6  C   UNL     1      34.915 -22.984 -15.323  0.00  0.00    +0.145 C 
ATOM      7  C   UNL     1      36.145 -22.101 -15.530  0.00  0.00    +0.046 C 
ATOM      8  C   UNL     1      37.334 -22.722 -14.807  0.00  0.00    +0.033 C 
ATOM      9  C   UNL     1      36.939 -23.159 -13.426  0.00  0.00    +0.012 C 
ATOM     10  C   UNL     1      35.591 -23.311 -13.077  0.00  0.00    +0.134 C 
ATOM     11  C   UNL     1      37.927 -23.446 -12.475  0.00  0.00    -0.001 C 
ATOM     12  C   UNL     1      35.238 -23.705 -11.783  0.00  0.00    +0.037 C 
ATOM     13  C   UNL     1      37.573 -23.853 -11.188  0.00  0.00    -0.000 C 
ATOM     14  C   UNL     1      36.230 -23.978 -10.842  0.00  0.00    +0.003 C 
ENDBRANCH   4   6
ENDBRANCH   1   4
BRANCH   1  15
ATOM     15  C   UNL     1      33.414 -21.433 -18.240  0.00  0.00    -0.053 C 
BRANCH  15  17
ATOM     16  N   UNL     1      36.920 -20.247 -18.942  0.00  0.00    -0.243 NA
ATOM     17  C   UNL     1      34.561 -20.690 -18.870  0.00  0.00    -0.025 C 
ATOM     18  C   UNL     1      34.335 -19.806 -19.907  0.00  0.00    -0.003 C 
ATOM     19  C   UNL     1      35.413 -19.134 -20.470  0.00  0.00    +0.019 C 
ATOM     20  C   UNL     1      35.847 -20.882 -18.420  0.00  0.00    +0.092 C 
ATOM     21  C   UNL     1      36.675 -19.388 -19.956  0.00  0.00    +0.099 C 
BRANCH  19  23
ATOM     22  F   UNL     1      34.695 -15.535 -24.668  0.00  0.00    -0.204 F 
ATOM     23  C   UNL     1      35.226 -18.201 -21.556  0.00  0.00    +0.002 C 
ATOM     24  C   UNL     1      34.716 -18.643 -22.779  0.00  0.00    +0.002 C 
ATOM     25  C   UNL     1      35.557 -16.855 -21.390  0.00  0.00    +0.002 C 
ATOM     26  C   UNL     1      34.537 -17.743 -23.829  0.00  0.00    +0.030 C 
ATOM     27  C   UNL     1      35.378 -15.955 -22.440  0.00  0.00    +0.030 C 
ATOM     28  C   UNL     1      34.868 -16.399 -23.659  0.00  0.00    +0.140 C 
ENDBRANCH  19  23
ENDBRANCH  15  17
ENDBRANCH   1  15
TORSDOF 5
ENDMDL
MODEL 7
REMARK VINA RESULT:     -11.3      1.630      3.261
REMARK  Name = 6918388
REMARK  5 active torsions:
REMARK  status: ('A' for Active; 'I' for Inactive)
REMARK    1  A    between atoms: N_1  and  C_4
REMARK    2  A    between atoms: N_1  and  C_15
REMARK    3  A    between atoms: C_4  and  C_6
REMARK    4  A    between atoms: C_15  and  C_17
REMARK    5  A    between atoms: C_19  and  C_23
REMARK                            x       y       z     vdW  Elec       q    Type
REMARK                         _______ _______ _______ _____ _____    ______ ____
ROOT
ATOM      1  N   UNL     1      36.691 -20.965 -16.374  0.00  0.00    +0.389 N 
ATOM      2  H   UNL     1      37.172 -20.100 -16.132  0.00  0.00    -0.084 HD
ATOM      3  H   UNL     1      35.691 -20.881 -16.188  0.00  0.00    -0.084 HD
ENDROOT
BRANCH   1   4
ATOM      4  C   UNL     1      37.223 -22.050 -15.563  0.00  0.00    -0.037 C 
BRANCH   4   6
ATOM      5  O   UNL     1      34.866 -22.398 -15.508  0.00  0.00    -0.482 OA
ATOM      6  C   UNL     1      36.099 -22.874 -14.948  0.00  0.00    +0.145 C 
ATOM      7  C   UNL     1      36.103 -22.748 -13.425  0.00  0.00    +0.046 C 
ATOM      8  C   UNL     1      35.000 -23.627 -12.848  0.00  0.00    +0.033 C 
ATOM      9  C   UNL     1      33.725 -23.444 -13.620  0.00  0.00    +0.012 C 
ATOM     10  C   UNL     1      33.731 -22.859 -14.893  0.00  0.00    +0.134 C 
ATOM     11  C   UNL     1      32.511 -23.888 -13.078  0.00  0.00    -0.001 C 
ATOM     12  C   UNL     1      32.535 -22.683 -15.593  0.00  0.00    +0.037 C 
ATOM     13  C   UNL     1      31.319 -23.723 -13.785  0.00  0.00    -0.000 C 
ATOM     14  C   UNL     1      31.332 -23.118 -15.040  0.00  0.00    +0.003 C 
ENDBRANCH   4   6
ENDBRANCH   1   4
BRANCH   1  15
ATOM     15  C   UNL     1      36.877 -21.234 -17.793  0.00  0.00    -0.053 C 
BRANCH  15  17
ATOM     16  N   UNL     1      33.364 -20.878 -19.107  0.00  0.00    -0.243 NA
ATOM     17  C   UNL     1      35.711 -20.752 -18.615  0.00  0.00    -0.025 C 
ATOM     18  C   UNL     1      35.893 -19.790 -19.588  0.00  0.00    -0.003 C 
ATOM     19  C   UNL     1      34.798 -19.364 -20.330  0.00  0.00    +0.019 C 
ATOM     20  C   UNL     1      34.452 -21.266 -18.405  0.00  0.00    +0.092 C 
ATOM     21  C   UNL     1      33.565 -19.934 -20.053  0.00  0.00    +0.099 C 
BRANCH  19  23
ATOM     22  F   UNL     1      35.337 -15.482 -24.297  0.00  0.00    -0.204 F 
ATOM     23  C   UNL     1      34.939 -18.360 -21.358  0.00  0.00    +0.002 C 
ATOM     24  C   UNL     1      35.438 -17.095 -21.038  0.00  0.00    +0.002 C 
ATOM     25  C   UNL     1      34.574 -18.647 -22.675  0.00  0.00    +0.002 C 
ATOM     26  C   UNL     1      35.572 -16.124 -22.030  0.00  0.00    +0.030 C 
ATOM     27  C   UNL     1      34.709 -17.676 -23.667  0.00  0.00    +0.030 C 
ATOM     28  C   UNL     1      35.208 -16.414 -23.344  0.00  0.00    +0.140 C 
ENDBRANCH  19  23
ENDBRANCH  15  17
ENDBRANCH   1  15
TORSDOF 5
ENDMDL
MODEL 8
REMARK VINA RESULT:     -11.2      4.864     10.721
REMARK  Name = 6918388
REMARK  5 active torsions:
REMARK  status: ('A' for Active; 'I' for Inactive)
REMARK    1  A    between atoms: N_1  and  C_4
REMARK    2  A    between atoms: N_1  and  C_15
REMARK    3  A    between atoms: C_4  and  C_6
REMARK    4  A    between atoms: C_15  and  C_17
REMARK    5  A    between atoms: C_19  and  C_23
REMARK                            x       y       z     vdW  Elec       q    Type
REMARK                         _______ _______ _______ _____ _____    ______ ____
ROOT
ATOM      1  N   UNL     1      35.435 -15.465 -22.889  0.00  0.00    +0.389 N 
ATOM      2  H   UNL     1      36.418 -15.269 -23.073  0.00  0.00    -0.084 HD
ATOM      3  H   UNL     1      34.840 -14.948 -23.536  0.00  0.00    -0.084 HD
ENDROOT
BRANCH   1   4
ATOM      4  C   UNL     1      35.112 -15.052 -21.530  0.00  0.00    -0.037 C 
BRANCH   4   6
ATOM      5  O   UNL     1      33.515 -13.556 -20.588  0.00  0.00    -0.482 OA
ATOM      6  C   UNL     1      34.621 -13.610 -21.501  0.00  0.00    +0.145 C 
ATOM      7  C   UNL     1      34.211 -13.147 -22.898  0.00  0.00    +0.046 C 
ATOM      8  C   UNL     1      33.778 -11.687 -22.833  0.00  0.00    +0.033 C 
ATOM      9  C   UNL     1      32.865 -11.462 -21.662  0.00  0.00    +0.012 C 
ATOM     10  C   UNL     1      32.795 -12.390 -20.615  0.00  0.00    +0.134 C 
ATOM     11  C   UNL     1      32.090 -10.297 -21.595  0.00  0.00    -0.001 C 
ATOM     12  C   UNL     1      31.930 -12.173 -19.539  0.00  0.00    +0.037 C 
ATOM     13  C   UNL     1      31.237 -10.076 -20.513  0.00  0.00    -0.000 C 
ATOM     14  C   UNL     1      31.155 -11.016 -19.488  0.00  0.00    +0.003 C 
ENDBRANCH   4   6
ENDBRANCH   1   4
BRANCH   1  15
ATOM     15  C   UNL     1      35.191 -16.890 -23.072  0.00  0.00    -0.053 C 
BRANCH  15  17
ATOM     16  N   UNL     1      37.842 -18.362 -20.836  0.00  0.00    -0.243 NA
ATOM     17  C   UNL     1      35.839 -17.714 -21.993  0.00  0.00    -0.025 C 
ATOM     18  C   UNL     1      35.076 -18.546 -21.197  0.00  0.00    -0.003 C 
ATOM     19  C   UNL     1      35.702 -19.295 -20.207  0.00  0.00    +0.019 C 
ATOM     20  C   UNL     1      37.198 -17.649 -21.787  0.00  0.00    +0.092 C 
ATOM     21  C   UNL     1      37.075 -19.169 -20.069  0.00  0.00    +0.099 C 
BRANCH  19  23
ATOM     22  F   UNL     1      32.787 -22.710 -16.900  0.00  0.00    -0.204 F 
ATOM     23  C   UNL     1      34.946 -20.178 -19.350  0.00  0.00    +0.002 C 
ATOM     24  C   UNL     1      35.608 -21.010 -18.445  0.00  0.00    +0.002 C 
ATOM     25  C   UNL     1      33.553 -20.206 -19.425  0.00  0.00    +0.002 C 
ATOM     26  C   UNL     1      34.879 -21.865 -17.618  0.00  0.00    +0.030 C 
ATOM     27  C   UNL     1      32.824 -21.061 -18.598  0.00  0.00    +0.030 C 
ATOM     28  C   UNL     1      33.487 -21.890 -17.695  0.00  0.00    +0.140 C 
ENDBRANCH  19  23
ENDBRANCH  15  17
ENDBRANCH   1  15
TORSDOF 5
ENDMDL
MODEL 9
REMARK VINA RESULT:     -11.2      3.887     10.409
REMARK  Name = 6918388
REMARK  5 active torsions:
REMARK  status: ('A' for Active; 'I' for Inactive)
REMARK    1  A    between atoms: N_1  and  C_4
REMARK    2  A    between atoms: N_1  and  C_15
REMARK    3  A    between atoms: C_4  and  C_6
REMARK    4  A    between atoms: C_15  and  C_17
REMARK    5  A    between atoms: C_19  and  C_23
REMARK                            x       y       z     vdW  Elec       q    Type
REMARK                         _______ _______ _______ _____ _____    ______ ____
ROOT
ATOM      1  N   UNL     1      35.670 -18.929 -20.077  0.00  0.00    +0.389 N 
ATOM      2  H   UNL     1      34.886 -19.076 -20.711  0.00  0.00    -0.084 HD
ATOM      3  H   UNL     1      35.380 -18.370 -19.274  0.00  0.00    -0.084 HD
ENDROOT
BRANCH   1   4
ATOM      4  C   UNL     1      36.726 -18.215 -20.781  0.00  0.00    -0.037 C 
BRANCH   4   6
ATOM      5  O   UNL     1      35.757 -16.312 -21.839  0.00  0.00    -0.482 OA
ATOM      6  C   UNL     1      36.215 -17.647 -22.099  0.00  0.00    +0.145 C 
ATOM      7  C   UNL     1      35.095 -18.517 -22.669  0.00  0.00    +0.046 C 
ATOM      8  C   UNL     1      34.650 -17.945 -24.009  0.00  0.00    +0.033 C 
ATOM      9  C   UNL     1      34.479 -16.456 -23.914  0.00  0.00    +0.012 C 
ATOM     10  C   UNL     1      35.043 -15.733 -22.856  0.00  0.00    +0.134 C 
ATOM     11  C   UNL     1      33.768 -15.770 -24.908  0.00  0.00    -0.001 C 
ATOM     12  C   UNL     1      34.863 -14.349 -22.773  0.00  0.00    +0.037 C 
ATOM     13  C   UNL     1      33.602 -14.387 -24.831  0.00  0.00    -0.000 C 
ATOM     14  C   UNL     1      34.145 -13.679 -23.762  0.00  0.00    +0.003 C 
ENDBRANCH   4   6
ENDBRANCH   1   4
BRANCH   1  15
ATOM     15  C   UNL     1      36.144 -20.220 -19.596  0.00  0.00    -0.053 C 
BRANCH  15  17
ATOM     16  N   UNL     1      32.845 -21.651 -18.472  0.00  0.00    -0.243 NA
ATOM     17  C   UNL     1      35.115 -20.915 -18.746  0.00  0.00    -0.025 C 
ATOM     18  C   UNL     1      35.462 -21.435 -17.515  0.00  0.00    -0.003 C 
ATOM     19  C   UNL     1      34.490 -22.073 -16.752  0.00  0.00    +0.019 C 
ATOM     20  C   UNL     1      33.816 -21.039 -19.186  0.00  0.00    +0.092 C 
ATOM     21  C   UNL     1      33.208 -22.154 -17.271  0.00  0.00    +0.099 C 
BRANCH  19  23
ATOM     22  F   UNL     1      35.705 -24.232 -11.756  0.00  0.00    -0.204 F 
ATOM     23  C   UNL     1      34.806 -22.633 -15.459  0.00  0.00    +0.002 C 
ATOM     24  C   UNL     1      33.781 -23.062 -14.613  0.00  0.00    +0.002 C 
ATOM     25  C   UNL     1      36.135 -22.745 -15.049  0.00  0.00    +0.002 C 
ATOM     26  C   UNL     1      34.084 -23.602 -13.363  0.00  0.00    +0.030 C 
ATOM     27  C   UNL     1      36.439 -23.285 -13.798  0.00  0.00    +0.030 C 
ATOM     28  C   UNL     1      35.413 -23.713 -12.956  0.00  0.00    +0.140 C 
ENDBRANCH  19  23
ENDBRANCH  15  17
ENDBRANCH   1  15
TORSDOF 5
ENDMDL
