MODEL 1
REMARK VINA RESULT:     -12.6      0.000      0.000
REMARK  Name = 24778473
REMARK  2 active torsions:
REMARK  status: ('A' for Active; 'I' for Inactive)
REMARK    1  A    between atoms: C_11  and  C_22
REMARK    2  A    between atoms: C_17  and  N_29
REMARK                            x       y       z     vdW  Elec       q    Type
REMARK                         _______ _______ _______ _____ _____    ______ ____
ROOT
ATOM      1  O   UNL     1      33.044 -21.826 -17.518  0.00  0.00    -0.270 OA
ATOM      2  O   UNL     1      37.177 -22.214 -15.536  0.00  0.00    -0.270 OA
ATOM      3  N   UNL     1      31.567 -24.257 -13.083  0.00  0.00    -0.353 N 
ATOM      4  N   UNL     1      35.268 -21.849 -16.826  0.00  0.00    -0.248 N 
ATOM      5  C   UNL     1      32.586 -23.251 -14.801  0.00  0.00    +0.022 A 
ATOM      6  C   UNL     1      33.737 -22.767 -15.435  0.00  0.00    +0.060 C 
ATOM      7  C   UNL     1      32.793 -23.847 -13.546  0.00  0.00    +0.057 A 
ATOM      8  C   UNL     1      31.179 -23.322 -15.075  0.00  0.00    +0.018 A 
ATOM      9  C   UNL     1      34.992 -22.880 -14.838  0.00  0.00    +0.058 C 
ATOM     10  C   UNL     1      30.576 -23.954 -13.984  0.00  0.00    +0.057 A 
ATOM     11  C   UNL     1      35.184 -23.467 -13.608  0.00  0.00    +0.007 C 
ATOM     12  C   UNL     1      34.063 -23.964 -12.938  0.00  0.00    +0.017 C 
ATOM     13  C   UNL     1      33.919 -22.098 -16.722  0.00  0.00    +0.252 C 
ATOM     14  C   UNL     1      35.980 -22.288 -15.738  0.00  0.00    +0.252 C 
ATOM     15  C   UNL     1      30.345 -22.915 -16.139  0.00  0.00    +0.016 C 
ATOM     16  C   UNL     1      29.199 -24.196 -13.906  0.00  0.00    +0.018 C 
ATOM     17  C   UNL     1      28.966 -23.150 -16.077  0.00  0.00    +0.051 C 
ATOM     18  C   UNL     1      28.402 -23.782 -14.974  0.00  0.00    +0.016 C 
ATOM     19  H   UNL     1      31.418 -24.708 -12.221  0.00  0.00    +0.166 HD
ATOM     20  H   UNL     1      35.680 -21.402 -17.600  0.00  0.00    +0.158 HD
ENDROOT
BRANCH  11  22
ATOM     21 CL   UNL     1      36.954 -25.841 -14.464  0.00  0.00    -0.082 Cl
ATOM     22  C   UNL     1      36.488 -23.582 -12.991  0.00  0.00    +0.011 C 
ATOM     23  C   UNL     1      37.364 -24.619 -13.311  0.00  0.00    +0.058 C 
ATOM     24  C   UNL     1      36.860 -22.617 -12.055  0.00  0.00    +0.001 C 
ATOM     25  C   UNL     1      38.613 -24.693 -12.694  0.00  0.00    +0.011 C 
ATOM     26  C   UNL     1      38.108 -22.692 -11.437  0.00  0.00    +0.000 C 
ATOM     27  C   UNL     1      38.984 -23.729 -11.757  0.00  0.00    +0.001 C 
ENDBRANCH  11  22
BRANCH  17  29
ATOM     28  O   UNL     1      26.972 -20.873 -16.287  0.00  0.00    -0.265 OA
ATOM     29  N   UNL     1      28.149 -22.744 -17.133  0.00  0.00    -0.277 N 
ATOM     30  C   UNL     1      27.251 -21.683 -17.161  0.00  0.00    +0.303 C 
ATOM     31  H   UNL     1      28.217 -23.274 -17.959  0.00  0.00    +0.155 HD
ENDBRANCH  17  29
TORSDOF 2
ENDMDL
MODEL 2
REMARK VINA RESULT:     -11.5      2.370      7.530
REMARK  Name = 24778473
REMARK  2 active torsions:
REMARK  status: ('A' for Active; 'I' for Inactive)
REMARK    1  A    between atoms: C_11  and  C_22
REMARK    2  A    between atoms: C_17  and  N_29
REMARK                            x       y       z     vdW  Elec       q    Type
REMARK                         _______ _______ _______ _____ _____    ______ ____
ROOT
ATOM      1  O   UNL     1      36.230 -22.410 -16.482  0.00  0.00    -0.270 OA
ATOM      2  O   UNL     1      31.735 -21.855 -17.291  0.00  0.00    -0.270 OA
ATOM      3  N   UNL     1      34.376 -24.161 -11.871  0.00  0.00    -0.353 N 
ATOM      4  N   UNL     1      34.062 -21.998 -17.230  0.00  0.00    -0.248 N 
ATOM      5  C   UNL     1      34.752 -23.358 -13.923  0.00  0.00    +0.022 A 
ATOM      6  C   UNL     1      34.298 -22.845 -15.145  0.00  0.00    +0.060 C 
ATOM      7  C   UNL     1      33.749 -23.680 -12.994  0.00  0.00    +0.057 A 
ATOM      8  C   UNL     1      36.012 -23.666 -13.310  0.00  0.00    +0.018 A 
ATOM      9  C   UNL     1      32.937 -22.676 -15.397  0.00  0.00    +0.058 C 
ATOM     10  C   UNL     1      35.739 -24.164 -12.033  0.00  0.00    +0.057 A 
ATOM     11  C   UNL     1      31.963 -22.994 -14.478  0.00  0.00    +0.007 C 
ATOM     12  C   UNL     1      32.369 -23.510 -13.245  0.00  0.00    +0.017 C 
ATOM     13  C   UNL     1      35.024 -22.405 -16.335  0.00  0.00    +0.252 C 
ATOM     14  C   UNL     1      32.786 -22.128 -16.743  0.00  0.00    +0.252 C 
ATOM     15  C   UNL     1      37.365 -23.575 -13.703  0.00  0.00    +0.016 C 
ATOM     16  C   UNL     1      36.740 -24.570 -11.141  0.00  0.00    +0.018 C 
ATOM     17  C   UNL     1      38.377 -23.977 -12.823  0.00  0.00    +0.051 C 
ATOM     18  C   UNL     1      38.067 -24.468 -11.559  0.00  0.00    +0.016 C 
ATOM     19  H   UNL     1      33.910 -24.464 -11.059  0.00  0.00    +0.166 HD
ATOM     20  H   UNL     1      34.267 -21.649 -18.127  0.00  0.00    +0.158 HD
ENDROOT
BRANCH  11  22
ATOM     21 CL   UNL     1      30.419 -25.411 -15.609  0.00  0.00    -0.082 Cl
ATOM     22  C   UNL     1      30.551 -22.819 -14.742  0.00  0.00    +0.011 C 
ATOM     23  C   UNL     1      29.764 -23.851 -15.253  0.00  0.00    +0.058 C 
ATOM     24  C   UNL     1      29.980 -21.576 -14.469  0.00  0.00    +0.001 C 
ATOM     25  C   UNL     1      28.406 -23.641 -15.492  0.00  0.00    +0.011 C 
ATOM     26  C   UNL     1      28.622 -21.365 -14.708  0.00  0.00    +0.000 C 
ATOM     27  C   UNL     1      27.835 -22.397 -15.219  0.00  0.00    +0.001 C 
ENDBRANCH  11  22
BRANCH  17  29
ATOM     28  O   UNL     1      40.263 -26.062 -13.963  0.00  0.00    -0.265 OA
ATOM     29  N   UNL     1      39.713 -23.884 -13.218  0.00  0.00    -0.277 N 
ATOM     30  C   UNL     1      40.523 -24.888 -13.737  0.00  0.00    +0.303 C 
ATOM     31  H   UNL     1      40.132 -22.999 -13.119  0.00  0.00    +0.155 HD
ENDBRANCH  17  29
TORSDOF 2
ENDMDL
MODEL 3
REMARK VINA RESULT:     -11.1      3.204      5.694
REMARK  Name = 24778473
REMARK  2 active torsions:
REMARK  status: ('A' for Active; 'I' for Inactive)
REMARK    1  A    between atoms: C_11  and  C_22
REMARK    2  A    between atoms: C_17  and  N_29
REMARK                            x       y       z     vdW  Elec       q    Type
REMARK                         _______ _______ _______ _____ _____    ______ ____
ROOT
ATOM      1  O   UNL     1      32.377 -21.973 -17.586  0.00  0.00    -0.270 OA
ATOM      2  O   UNL     1      33.565 -24.145 -13.708  0.00  0.00    -0.270 OA
ATOM      3  N   UNL     1      37.505 -20.766 -17.546  0.00  0.00    -0.353 N 
ATOM      4  N   UNL     1      32.613 -23.172 -15.602  0.00  0.00    -0.248 N 
ATOM      5  C   UNL     1      35.417 -21.485 -17.201  0.00  0.00    +0.022 A 
ATOM      6  C   UNL     1      34.467 -22.190 -16.450  0.00  0.00    +0.060 C 
ATOM      7  C   UNL     1      36.724 -21.499 -16.687  0.00  0.00    +0.057 A 
ATOM      8  C   UNL     1      35.445 -20.710 -18.408  0.00  0.00    +0.018 A 
ATOM      9  C   UNL     1      34.822 -22.851 -15.275  0.00  0.00    +0.058 C 
ATOM     10  C   UNL     1      36.762 -20.279 -18.592  0.00  0.00    +0.057 A 
ATOM     11  C   UNL     1      36.106 -22.857 -14.780  0.00  0.00    +0.007 C 
ATOM     12  C   UNL     1      37.087 -22.167 -15.496  0.00  0.00    +0.017 C 
ATOM     13  C   UNL     1      33.036 -22.400 -16.659  0.00  0.00    +0.252 C 
ATOM     14  C   UNL     1      33.623 -23.484 -14.728  0.00  0.00    +0.252 C 
ATOM     15  C   UNL     1      34.489 -20.325 -19.373  0.00  0.00    +0.016 C 
ATOM     16  C   UNL     1      37.164 -19.491 -19.678  0.00  0.00    +0.018 C 
ATOM     17  C   UNL     1      34.875 -19.538 -20.465  0.00  0.00    +0.051 C 
ATOM     18  C   UNL     1      36.195 -19.127 -20.614  0.00  0.00    +0.016 C 
ATOM     19  H   UNL     1      38.470 -20.611 -17.427  0.00  0.00    +0.166 HD
ATOM     20  H   UNL     1      31.682 -23.470 -15.485  0.00  0.00    +0.158 HD
ENDROOT
BRANCH  11  22
ATOM     21 CL   UNL     1      36.888 -25.830 -15.007  0.00  0.00    -0.082 Cl
ATOM     22  C   UNL     1      36.471 -23.545 -13.560  0.00  0.00    +0.011 C 
ATOM     23  C   UNL     1      36.842 -24.890 -13.557  0.00  0.00    +0.058 C 
ATOM     24  C   UNL     1      36.448 -22.825 -12.366  0.00  0.00    +0.001 C 
ATOM     25  C   UNL     1      37.188 -25.515 -12.359  0.00  0.00    +0.011 C 
ATOM     26  C   UNL     1      36.794 -23.450 -11.168  0.00  0.00    +0.000 C 
ATOM     27  C   UNL     1      37.165 -24.795 -11.165  0.00  0.00    +0.001 C 
ENDBRANCH  11  22
BRANCH  17  29
ATOM     28  O   UNL     1      35.196 -18.481 -23.290  0.00  0.00    -0.265 OA
ATOM     29  N   UNL     1      33.923 -19.161 -21.414  0.00  0.00    -0.277 N 
ATOM     30  C   UNL     1      34.143 -18.681 -22.701  0.00  0.00    +0.303 C 
ATOM     31  H   UNL     1      32.982 -19.245 -21.139  0.00  0.00    +0.155 HD
ENDBRANCH  17  29
TORSDOF 2
ENDMDL
MODEL 4
REMARK VINA RESULT:     -10.7     13.459     15.583
REMARK  Name = 24778473
REMARK  2 active torsions:
REMARK  status: ('A' for Active; 'I' for Inactive)
REMARK    1  A    between atoms: C_11  and  C_22
REMARK    2  A    between atoms: C_17  and  N_29
REMARK                            x       y       z     vdW  Elec       q    Type
REMARK                         _______ _______ _______ _____ _____    ______ ____
ROOT
ATOM      1  O   UNL     1      30.867  -9.804 -19.791  0.00  0.00    -0.270 OA
ATOM      2  O   UNL     1      32.464 -14.091 -20.277  0.00  0.00    -0.270 OA
ATOM      3  N   UNL     1      34.028  -9.003 -23.930  0.00  0.00    -0.353 N 
ATOM      4  N   UNL     1      31.457 -12.058 -19.739  0.00  0.00    -0.248 N 
ATOM      5  C   UNL     1      32.822  -9.747 -22.199  0.00  0.00    +0.022 A 
ATOM      6  C   UNL     1      32.406 -10.772 -21.341  0.00  0.00    +0.060 C 
ATOM      7  C   UNL     1      33.739 -10.126 -23.193  0.00  0.00    +0.057 A 
ATOM      8  C   UNL     1      32.571  -8.343 -22.369  0.00  0.00    +0.018 A 
ATOM      9  C   UNL     1      32.886 -12.073 -21.484  0.00  0.00    +0.058 C 
ATOM     10  C   UNL     1      33.338  -7.915 -23.456  0.00  0.00    +0.057 A 
ATOM     11  C   UNL     1      33.785 -12.434 -22.461  0.00  0.00    +0.007 C 
ATOM     12  C   UNL     1      34.228 -11.443 -23.342  0.00  0.00    +0.017 C 
ATOM     13  C   UNL     1      31.480 -10.765 -20.209  0.00  0.00    +0.252 C 
ATOM     14  C   UNL     1      32.272 -12.902 -20.449  0.00  0.00    +0.252 C 
ATOM     15  C   UNL     1      31.770  -7.384 -21.713  0.00  0.00    +0.016 C 
ATOM     16  C   UNL     1      33.344  -6.590 -23.912  0.00  0.00    +0.018 C 
ATOM     17  C   UNL     1      31.765  -6.056 -22.157  0.00  0.00    +0.051 C 
ATOM     18  C   UNL     1      32.542  -5.666 -23.243  0.00  0.00    +0.016 C 
ATOM     19  H   UNL     1      34.646  -8.982 -24.695  0.00  0.00    +0.166 HD
ATOM     20  H   UNL     1      30.911 -12.347 -18.972  0.00  0.00    +0.158 HD
ENDROOT
BRANCH  11  22
ATOM     21 CL   UNL     1      33.149 -13.899 -25.098  0.00  0.00    -0.082 Cl
ATOM     22  C   UNL     1      34.280 -13.786 -22.609  0.00  0.00    +0.011 C 
ATOM     23  C   UNL     1      34.047 -14.533 -23.763  0.00  0.00    +0.058 C 
ATOM     24  C   UNL     1      35.011 -14.337 -21.556  0.00  0.00    +0.001 C 
ATOM     25  C   UNL     1      34.544 -15.832 -23.865  0.00  0.00    +0.011 C 
ATOM     26  C   UNL     1      35.507 -15.637 -21.658  0.00  0.00    +0.000 C 
ATOM     27  C   UNL     1      35.274 -16.384 -22.812  0.00  0.00    +0.001 C 
ENDBRANCH  11  22
BRANCH  17  29
ATOM     28  O   UNL     1      32.054  -4.764 -19.428  0.00  0.00    -0.265 OA
ATOM     29  N   UNL     1      30.970  -5.113 -21.503  0.00  0.00    -0.277 N 
ATOM     30  C   UNL     1      31.164  -4.560 -20.242  0.00  0.00    +0.303 C 
ATOM     31  H   UNL     1      30.177  -4.801 -21.994  0.00  0.00    +0.155 HD
ENDBRANCH  17  29
TORSDOF 2
ENDMDL
MODEL 5
REMARK VINA RESULT:     -10.6      9.588     11.918
REMARK  Name = 24778473
REMARK  2 active torsions:
REMARK  status: ('A' for Active; 'I' for Inactive)
REMARK    1  A    between atoms: C_11  and  C_22
REMARK    2  A    between atoms: C_17  and  N_29
REMARK                            x       y       z     vdW  Elec       q    Type
REMARK                         _______ _______ _______ _____ _____    ______ ____
ROOT
ATOM      1  O   UNL     1      34.424 -15.635 -25.590  0.00  0.00    -0.270 OA
ATOM      2  O   UNL     1      35.110 -19.563 -23.295  0.00  0.00    -0.270 OA
ATOM      3  N   UNL     1      34.691 -13.662 -20.712  0.00  0.00    -0.353 N 
ATOM      4  N   UNL     1      34.755 -17.790 -24.769  0.00  0.00    -0.248 N 
ATOM      5  C   UNL     1      34.640 -14.874 -22.590  0.00  0.00    +0.022 A 
ATOM      6  C   UNL     1      34.713 -16.099 -23.265  0.00  0.00    +0.060 C 
ATOM      7  C   UNL     1      34.790 -14.944 -21.195  0.00  0.00    +0.057 A 
ATOM      8  C   UNL     1      34.444 -13.493 -22.926  0.00  0.00    +0.018 A 
ATOM      9  C   UNL     1      34.922 -17.293 -22.575  0.00  0.00    +0.058 C 
ATOM     10  C   UNL     1      34.482 -12.767 -21.732  0.00  0.00    +0.057 A 
ATOM     11  C   UNL     1      35.067 -17.349 -21.207  0.00  0.00    +0.007 C 
ATOM     12  C   UNL     1      35.002 -16.151 -20.492  0.00  0.00    +0.017 C 
ATOM     13  C   UNL     1      34.605 -16.425 -24.686  0.00  0.00    +0.252 C 
ATOM     14  C   UNL     1      34.948 -18.383 -23.547  0.00  0.00    +0.252 C 
ATOM     15  C   UNL     1      34.237 -12.774 -24.123  0.00  0.00    +0.016 C 
ATOM     16  C   UNL     1      34.325 -11.376 -21.677  0.00  0.00    +0.018 C 
ATOM     17  C   UNL     1      34.078 -11.383 -24.085  0.00  0.00    +0.051 C 
ATOM     18  C   UNL     1      34.122 -10.695 -22.877  0.00  0.00    +0.016 C 
ATOM     19  H   UNL     1      34.760 -13.418 -19.761  0.00  0.00    +0.166 HD
ATOM     20  H   UNL     1      34.726 -18.289 -25.616  0.00  0.00    +0.158 HD
ENDROOT
BRANCH  11  22
ATOM     21 CL   UNL     1      37.979 -18.306 -20.880  0.00  0.00    -0.082 Cl
ATOM     22  C   UNL     1      35.285 -18.589 -20.494  0.00  0.00    +0.011 C 
ATOM     23  C   UNL     1      36.564 -19.107 -20.291  0.00  0.00    +0.058 C 
ATOM     24  C   UNL     1      34.171 -19.269 -20.000  0.00  0.00    +0.001 C 
ATOM     25  C   UNL     1      36.731 -20.305 -19.597  0.00  0.00    +0.011 C 
ATOM     26  C   UNL     1      34.338 -20.467 -19.306  0.00  0.00    +0.000 C 
ATOM     27  C   UNL     1      35.617 -20.985 -19.104  0.00  0.00    +0.001 C 
ENDBRANCH  11  22
BRANCH  17  29
ATOM     28  O   UNL     1      35.954  -9.641 -25.713  0.00  0.00    -0.265 OA
ATOM     29  N   UNL     1      33.873 -10.680 -25.274  0.00  0.00    -0.277 N 
ATOM     30  C   UNL     1      34.786  -9.895 -25.970  0.00  0.00    +0.303 C 
ATOM     31  H   UNL     1      32.974 -10.748 -25.666  0.00  0.00    +0.155 HD
ENDBRANCH  17  29
TORSDOF 2
ENDMDL
MODEL 6
REMARK VINA RESULT:     -10.3      5.146      8.250
REMARK  Name = 24778473
REMARK  2 active torsions:
REMARK  status: ('A' for Active; 'I' for Inactive)
REMARK    1  A    between atoms: C_11  and  C_22
REMARK    2  A    between atoms: C_17  and  N_29
REMARK                            x       y       z     vdW  Elec       q    Type
REMARK                         _______ _______ _______ _____ _____    ______ ____
ROOT
ATOM      1  O   UNL     1      37.459 -21.251 -17.447  0.00  0.00    -0.270 OA
ATOM      2  O   UNL     1      37.550 -18.509 -21.140  0.00  0.00    -0.270 OA
ATOM      3  N   UNL     1      32.284 -21.064 -18.420  0.00  0.00    -0.353 N 
ATOM      4  N   UNL     1      37.881 -19.859 -19.267  0.00  0.00    -0.248 N 
ATOM      5  C   UNL     1      34.511 -20.888 -18.347  0.00  0.00    +0.022 A 
ATOM      6  C   UNL     1      35.723 -20.393 -18.847  0.00  0.00    +0.060 C 
ATOM      7  C   UNL     1      33.361 -20.489 -19.048  0.00  0.00    +0.057 A 
ATOM      8  C   UNL     1      34.078 -21.728 -17.267  0.00  0.00    +0.018 A 
ATOM      9  C   UNL     1      35.757 -19.563 -19.966  0.00  0.00    +0.058 C 
ATOM     10  C   UNL     1      32.686 -21.816 -17.345  0.00  0.00    +0.057 A 
ATOM     11  C   UNL     1      34.623 -19.178 -20.645  0.00  0.00    +0.007 C 
ATOM     12  C   UNL     1      33.392 -19.648 -20.182  0.00  0.00    +0.017 C 
ATOM     13  C   UNL     1      37.100 -20.583 -18.396  0.00  0.00    +0.252 C 
ATOM     14  C   UNL     1      37.151 -19.218 -20.236  0.00  0.00    +0.252 C 
ATOM     15  C   UNL     1      34.723 -22.430 -16.225  0.00  0.00    +0.016 C 
ATOM     16  C   UNL     1      31.916 -22.561 -16.442  0.00  0.00    +0.018 C 
ATOM     17  C   UNL     1      33.967 -23.179 -15.315  0.00  0.00    +0.051 C 
ATOM     18  C   UNL     1      32.582 -23.243 -15.423  0.00  0.00    +0.016 C 
ATOM     19  H   UNL     1      31.348 -20.952 -18.704  0.00  0.00    +0.166 HD
ATOM     20  H   UNL     1      38.862 -19.805 -19.202  0.00  0.00    +0.158 HD
ENDROOT
BRANCH  11  22
ATOM     21 CL   UNL     1      35.250 -16.195 -20.183  0.00  0.00    -0.082 Cl
ATOM     22  C   UNL     1      34.662 -18.317 -21.808  0.00  0.00    +0.011 C 
ATOM     23  C   UNL     1      34.938 -16.954 -21.705  0.00  0.00    +0.058 C 
ATOM     24  C   UNL     1      34.416 -18.887 -23.057  0.00  0.00    +0.001 C 
ATOM     25  C   UNL     1      34.967 -16.159 -22.851  0.00  0.00    +0.011 C 
ATOM     26  C   UNL     1      34.444 -18.092 -24.203  0.00  0.00    +0.000 C 
ATOM     27  C   UNL     1      34.720 -16.729 -24.100  0.00  0.00    +0.001 C 
ENDBRANCH  11  22
BRANCH  17  29
ATOM     28  O   UNL     1      35.970 -25.456 -15.400  0.00  0.00    -0.265 OA
ATOM     29  N   UNL     1      34.611 -23.869 -14.287  0.00  0.00    -0.277 N 
ATOM     30  C   UNL     1      35.526 -24.911 -14.399  0.00  0.00    +0.303 C 
ATOM     31  H   UNL     1      34.392 -23.583 -13.371  0.00  0.00    +0.155 HD
ENDBRANCH  17  29
TORSDOF 2
ENDMDL
MODEL 7
REMARK VINA RESULT:     -10.2     12.108     14.779
REMARK  Name = 24778473
REMARK  2 active torsions:
REMARK  status: ('A' for Active; 'I' for Inactive)
REMARK    1  A    between atoms: C_11  and  C_22
REMARK    2  A    between atoms: C_17  and  N_29
REMARK                            x       y       z     vdW  Elec       q    Type
REMARK                         _______ _______ _______ _____ _____    ______ ____
ROOT
ATOM      1  O   UNL     1      34.292 -14.837 -25.724  0.00  0.00    -0.270 OA
ATOM      2  O   UNL     1      33.392 -10.336 -26.037  0.00  0.00    -0.270 OA
ATOM      3  N   UNL     1      34.758 -13.583 -20.627  0.00  0.00    -0.353 N 
ATOM      4  N   UNL     1      33.799 -12.623 -26.254  0.00  0.00    -0.248 N 
ATOM      5  C   UNL     1      34.475 -13.701 -22.842  0.00  0.00    +0.022 A 
ATOM      6  C   UNL     1      34.191 -13.107 -24.079  0.00  0.00    +0.060 C 
ATOM      7  C   UNL     1      34.461 -12.832 -21.738  0.00  0.00    +0.057 A 
ATOM      8  C   UNL     1      34.795 -15.009 -22.347  0.00  0.00    +0.018 A 
ATOM      9  C   UNL     1      33.916 -11.744 -24.180  0.00  0.00    +0.058 C 
ATOM     10  C   UNL     1      34.964 -14.898 -20.964  0.00  0.00    +0.057 A 
ATOM     11  C   UNL     1      33.906 -10.902 -23.091  0.00  0.00    +0.007 C 
ATOM     12  C   UNL     1      34.184 -11.451 -21.836  0.00  0.00    +0.017 C 
ATOM     13  C   UNL     1      34.114 -13.674 -25.424  0.00  0.00    +0.252 C 
ATOM     14  C   UNL     1      33.664 -11.432 -25.585  0.00  0.00    +0.252 C 
ATOM     15  C   UNL     1      34.961 -16.286 -22.927  0.00  0.00    +0.016 C 
ATOM     16  C   UNL     1      35.287 -15.986 -20.143  0.00  0.00    +0.018 C 
ATOM     17  C   UNL     1      35.283 -17.384 -22.119  0.00  0.00    +0.051 C 
ATOM     18  C   UNL     1      35.444 -17.234 -20.746  0.00  0.00    +0.016 C 
ATOM     19  H   UNL     1      34.815 -13.225 -19.712  0.00  0.00    +0.166 HD
ATOM     20  H   UNL     1      33.682 -12.714 -27.227  0.00  0.00    +0.158 HD
ENDROOT
BRANCH  11  22
ATOM     21 CL   UNL     1      36.131  -9.083 -24.208  0.00  0.00    -0.082 Cl
ATOM     22  C   UNL     1      33.619  -9.488 -23.198  0.00  0.00    +0.011 C 
ATOM     23  C   UNL     1      34.558  -8.582 -23.692  0.00  0.00    +0.058 C 
ATOM     24  C   UNL     1      32.362  -9.039 -22.794  0.00  0.00    +0.001 C 
ATOM     25  C   UNL     1      34.241  -7.227 -23.781  0.00  0.00    +0.011 C 
ATOM     26  C   UNL     1      32.045  -7.683 -22.882  0.00  0.00    +0.000 C 
ATOM     27  C   UNL     1      32.984  -6.778 -23.376  0.00  0.00    +0.001 C 
ENDBRANCH  11  22
BRANCH  17  29
ATOM     28  O   UNL     1      34.126 -18.563 -24.663  0.00  0.00    -0.265 OA
ATOM     29  N   UNL     1      35.446 -18.642 -22.701  0.00  0.00    -0.277 N 
ATOM     30  C   UNL     1      34.881 -19.120 -23.878  0.00  0.00    +0.303 C 
ATOM     31  H   UNL     1      36.033 -19.268 -22.218  0.00  0.00    +0.155 HD
ENDBRANCH  17  29
TORSDOF 2
ENDMDL
MODEL 8
REMARK VINA RESULT:      -9.8      4.649      8.444
REMARK  Name = 24778473
REMARK  2 active torsions:
REMARK  status: ('A' for Active; 'I' for Inactive)
REMARK    1  A    between atoms: C_11  and  C_22
REMARK    2  A    between atoms: C_17  and  N_29
REMARK                            x       y       z     vdW  Elec       q    Type
REMARK                         _______ _______ _______ _____ _____    ______ ____
ROOT
ATOM      1  O   UNL     1      32.670 -22.165 -17.089  0.00  0.00    -0.270 OA
ATOM      2  O   UNL     1      32.488 -19.552 -20.871  0.00  0.00    -0.270 OA
ATOM      3  N   UNL     1      37.770 -20.877 -17.404  0.00  0.00    -0.353 N 
ATOM      4  N   UNL     1      32.207 -20.922 -19.004  0.00  0.00    -0.248 N 
ATOM      5  C   UNL     1      35.566 -21.187 -17.622  0.00  0.00    +0.022 A 
ATOM      6  C   UNL     1      34.354 -20.971 -18.291  0.00  0.00    +0.060 C 
ATOM      7  C   UNL     1      36.687 -20.555 -18.185  0.00  0.00    +0.057 A 
ATOM      8  C   UNL     1      36.022 -21.905 -16.466  0.00  0.00    +0.018 A 
ATOM      9  C   UNL     1      34.293 -20.179 -19.437  0.00  0.00    +0.058 C 
ATOM     10  C   UNL     1      37.398 -21.689 -16.361  0.00  0.00    +0.057 A 
ATOM     11  C   UNL     1      35.399 -19.566 -19.980  0.00  0.00    +0.007 C 
ATOM     12  C   UNL     1      36.629 -19.752 -19.346  0.00  0.00    +0.017 C 
ATOM     13  C   UNL     1      33.002 -21.450 -18.013  0.00  0.00    +0.252 C 
ATOM     14  C   UNL     1      32.906 -20.149 -19.896  0.00  0.00    +0.252 C 
ATOM     15  C   UNL     1      35.410 -22.721 -15.490  0.00  0.00    +0.016 C 
ATOM     16  C   UNL     1      38.183 -22.242 -15.341  0.00  0.00    +0.018 C 
ATOM     17  C   UNL     1      36.181 -23.281 -14.463  0.00  0.00    +0.051 C 
ATOM     18  C   UNL     1      37.549 -23.044 -14.392  0.00  0.00    +0.016 C 
ATOM     19  H   UNL     1      38.689 -20.567 -17.569  0.00  0.00    +0.166 HD
ATOM     20  H   UNL     1      31.238 -21.081 -19.066  0.00  0.00    +0.158 HD
ENDROOT
BRANCH  11  22
ATOM     21 CL   UNL     1      35.532 -16.509 -19.601  0.00  0.00    -0.082 Cl
ATOM     22  C   UNL     1      35.331 -18.743 -21.169  0.00  0.00    +0.011 C 
ATOM     23  C   UNL     1      35.385 -17.351 -21.104  0.00  0.00    +0.058 C 
ATOM     24  C   UNL     1      35.213 -19.380 -22.404  0.00  0.00    +0.001 C 
ATOM     25  C   UNL     1      35.319 -16.595 -22.275  0.00  0.00    +0.011 C 
ATOM     26  C   UNL     1      35.146 -18.624 -23.575  0.00  0.00    +0.000 C 
ATOM     27  C   UNL     1      35.199 -17.232 -23.510  0.00  0.00    +0.001 C 
ENDBRANCH  11  22
BRANCH  17  29
ATOM     28  O   UNL     1      35.839 -22.899 -11.474  0.00  0.00    -0.265 OA
ATOM     29  N   UNL     1      35.568 -24.087 -13.502  0.00  0.00    -0.277 N 
ATOM     30  C   UNL     1      35.447 -23.848 -12.138  0.00  0.00    +0.303 C 
ATOM     31  H   UNL     1      35.174 -24.927 -13.831  0.00  0.00    +0.155 HD
ENDBRANCH  17  29
TORSDOF 2
ENDMDL
