MODEL 1
REMARK VINA RESULT:     -11.8      0.000      0.000
REMARK  Name = 25134248
REMARK  7 active torsions:
REMARK  status: ('A' for Active; 'I' for Inactive)
REMARK    1  A    between atoms: N_2  and  C_20
REMARK    2  A    between atoms: C_3  and  C_7
REMARK    3  A    between atoms: C_11  and  C_12
REMARK    4  A    between atoms: C_12  and  C_13
REMARK    5  A    between atoms: C_13  and  C_14
REMARK    6  A    between atoms: C_20  and  C_21
REMARK    7  A    between atoms: C_26  and  C_29
REMARK                            x       y       z     vdW  Elec       q    Type
REMARK                         _______ _______ _______ _____ _____    ______ ____
ROOT
ATOM      1  O   UNL     1      35.835 -23.210 -12.615  0.00  0.00    -0.273 OA
ATOM      2  N   UNL     1      34.140 -24.239 -13.833  0.00  0.00    -0.299 N 
ATOM      3  C   UNL     1      35.454 -23.906 -13.552  0.00  0.00    +0.241 C 
ATOM      4  H   UNL     1      33.958 -24.807 -14.617  0.00  0.00    +0.150 HD
ENDROOT
BRANCH   3   7
ATOM      5  O   UNL     1      38.866 -21.916 -15.382  0.00  0.00    -0.275 OA
ATOM      6  N   UNL     1      37.610 -23.678 -14.570  0.00  0.00    -0.273 N 
ATOM      7  C   UNL     1      36.416 -24.517 -14.526  0.00  0.00    +0.152 C 
ATOM      8  C   UNL     1      36.916 -25.865 -14.015  0.00  0.00    +0.031 C 
ATOM      9  C   UNL     1      38.721 -24.310 -13.872  0.00  0.00    +0.094 C 
ATOM     10  C   UNL     1      38.108 -25.492 -13.139  0.00  0.00    +0.024 C 
ATOM     11  C   UNL     1      37.787 -22.503 -15.284  0.00  0.00    +0.226 C 
BRANCH  11  12
ATOM     12  C   UNL     1      36.560 -21.948 -15.963  0.00  0.00    +0.085 C 
BRANCH  12  13
ATOM     13  C   UNL     1      36.952 -21.138 -17.187  0.00  0.00    +0.010 C 
BRANCH  13  14
ATOM     14  C   UNL     1      35.907 -21.200 -18.300  0.00  0.00    +0.000 C 
ATOM     15  C   UNL     1      34.511 -21.460 -17.718  0.00  0.00    +0.000 C 
ATOM     16  C   UNL     1      35.921 -19.910 -19.130  0.00  0.00    +0.000 C 
ATOM     17  C   UNL     1      33.441 -21.474 -18.807  0.00  0.00    +0.000 C 
ATOM     18  C   UNL     1      34.849 -19.927 -20.216  0.00  0.00    +0.000 C 
ATOM     19  C   UNL     1      33.464 -20.194 -19.635  0.00  0.00    +0.000 C 
ENDBRANCH  13  14
ENDBRANCH  12  13
ENDBRANCH  11  12
ENDBRANCH   3   7
BRANCH   2  20
ATOM     20  C   UNL     1      33.023 -23.796 -13.031  0.00  0.00    +0.116 C 
BRANCH  20  21
ATOM     21  C   UNL     1      31.794 -23.561 -13.860  0.00  0.00    -0.003 C 
ATOM     22  C   UNL     1      31.810 -22.603 -14.875  0.00  0.00    -0.003 C 
ATOM     23  C   UNL     1      30.636 -24.301 -13.619  0.00  0.00    -0.003 C 
ATOM     24  C   UNL     1      30.669 -22.385 -15.647  0.00  0.00    +0.002 C 
ATOM     25  C   UNL     1      29.495 -24.083 -14.390  0.00  0.00    +0.002 C 
ATOM     26  C   UNL     1      29.511 -23.126 -15.405  0.00  0.00    +0.031 C 
BRANCH  26  29
ATOM     27  N   UNL     1      27.662 -21.671 -16.198  0.00  0.00    -0.343 N 
ATOM     28  N   UNL     1      27.847 -23.869 -16.971  0.00  0.00    -0.285 NA
ATOM     29  C   UNL     1      28.322 -22.898 -16.210  0.00  0.00    +0.117 C 
ATOM     30  H   UNL     1      26.859 -21.539 -16.752  0.00  0.00    +0.144 HD
ATOM     31  H   UNL     1      27.998 -20.937 -15.636  0.00  0.00    +0.144 HD
ATOM     32  H   UNL     1      27.042 -23.717 -17.517  0.00  0.00    +0.188 HD
ENDBRANCH  26  29
ENDBRANCH  20  21
ENDBRANCH   2  20
TORSDOF 7
ENDMDL
MODEL 2
REMARK VINA RESULT:     -11.1      2.967      6.210
REMARK  Name = 25134248
REMARK  7 active torsions:
REMARK  status: ('A' for Active; 'I' for Inactive)
REMARK    1  A    between atoms: N_2  and  C_20
REMARK    2  A    between atoms: C_3  and  C_7
REMARK    3  A    between atoms: C_11  and  C_12
REMARK    4  A    between atoms: C_12  and  C_13
REMARK    5  A    between atoms: C_13  and  C_14
REMARK    6  A    between atoms: C_20  and  C_21
REMARK    7  A    between atoms: C_26  and  C_29
REMARK                            x       y       z     vdW  Elec       q    Type
REMARK                         _______ _______ _______ _____ _____    ______ ____
ROOT
ATOM      1  O   UNL     1      35.261 -24.220 -15.557  0.00  0.00    -0.273 OA
ATOM      2  N   UNL     1      34.900 -22.037 -16.279  0.00  0.00    -0.299 N 
ATOM      3  C   UNL     1      35.359 -23.006 -15.403  0.00  0.00    +0.241 C 
ATOM      4  H   UNL     1      35.037 -21.090 -16.044  0.00  0.00    +0.150 HD
ENDROOT
BRANCH   3   7
ATOM      5  O   UNL     1      35.042 -24.434 -11.303  0.00  0.00    -0.275 OA
ATOM      6  N   UNL     1      36.007 -23.401 -13.131  0.00  0.00    -0.273 N 
ATOM      7  C   UNL     1      36.037 -22.412 -14.205  0.00  0.00    +0.152 C 
ATOM      8  C   UNL     1      37.523 -22.194 -14.480  0.00  0.00    +0.031 C 
ATOM      9  C   UNL     1      37.320 -24.000 -12.932  0.00  0.00    +0.094 C 
ATOM     10  C   UNL     1      38.151 -23.537 -14.118  0.00  0.00    +0.024 C 
ATOM     11  C   UNL     1      34.954 -23.680 -12.274  0.00  0.00    +0.226 C 
BRANCH  11  12
ATOM     12  C   UNL     1      33.646 -22.998 -12.586  0.00  0.00    +0.085 C 
BRANCH  12  13
ATOM     13  C   UNL     1      32.541 -24.026 -12.764  0.00  0.00    +0.010 C 
BRANCH  13  14
ATOM     14  C   UNL     1      31.800 -23.876 -14.091  0.00  0.00    +0.000 C 
ATOM     15  C   UNL     1      30.379 -24.447 -13.986  0.00  0.00    +0.000 C 
ATOM     16  C   UNL     1      31.767 -22.406 -14.531  0.00  0.00    +0.000 C 
ATOM     17  C   UNL     1      29.599 -24.260 -15.285  0.00  0.00    +0.000 C 
ATOM     18  C   UNL     1      30.985 -22.223 -15.828  0.00  0.00    +0.000 C 
ATOM     19  C   UNL     1      29.576 -22.800 -15.723  0.00  0.00    +0.000 C 
ENDBRANCH  13  14
ENDBRANCH  12  13
ENDBRANCH  11  12
ENDBRANCH   3   7
BRANCH   2  20
ATOM     20  C   UNL     1      34.230 -22.348 -17.521  0.00  0.00    +0.116 C 
BRANCH  20  21
ATOM     21  C   UNL     1      34.470 -21.298 -18.567  0.00  0.00    -0.003 C 
ATOM     22  C   UNL     1      33.388 -20.667 -19.183  0.00  0.00    -0.003 C 
ATOM     23  C   UNL     1      35.773 -20.950 -18.921  0.00  0.00    -0.003 C 
ATOM     24  C   UNL     1      33.610 -19.691 -20.154  0.00  0.00    +0.002 C 
ATOM     25  C   UNL     1      35.996 -19.974 -19.892  0.00  0.00    +0.002 C 
ATOM     26  C   UNL     1      34.914 -19.344 -20.508  0.00  0.00    +0.031 C 
BRANCH  26  29
ATOM     27  N   UNL     1      35.686 -17.084 -21.189  0.00  0.00    -0.343 N 
ATOM     28  N   UNL     1      34.838 -18.569 -22.782  0.00  0.00    -0.285 NA
ATOM     29  C   UNL     1      35.146 -18.325 -21.520  0.00  0.00    +0.117 C 
ATOM     30  H   UNL     1      35.835 -16.409 -21.890  0.00  0.00    +0.144 HD
ATOM     31  H   UNL     1      35.919 -16.883 -20.254  0.00  0.00    +0.144 HD
ATOM     32  H   UNL     1      34.994 -17.881 -23.468  0.00  0.00    +0.188 HD
ENDBRANCH  26  29
ENDBRANCH  20  21
ENDBRANCH   2  20
TORSDOF 7
ENDMDL
MODEL 3
REMARK VINA RESULT:     -10.2      9.029     12.580
REMARK  Name = 25134248
REMARK  7 active torsions:
REMARK  status: ('A' for Active; 'I' for Inactive)
REMARK    1  A    between atoms: N_2  and  C_20
REMARK    2  A    between atoms: C_3  and  C_7
REMARK    3  A    between atoms: C_11  and  C_12
REMARK    4  A    between atoms: C_12  and  C_13
REMARK    5  A    between atoms: C_13  and  C_14
REMARK    6  A    between atoms: C_20  and  C_21
REMARK    7  A    between atoms: C_26  and  C_29
REMARK                            x       y       z     vdW  Elec       q    Type
REMARK                         _______ _______ _______ _____ _____    ______ ____
ROOT
ATOM      1  O   UNL     1      34.162 -14.396 -20.461  0.00  0.00    -0.273 OA
ATOM      2  N   UNL     1      33.056 -12.745 -21.673  0.00  0.00    -0.299 N 
ATOM      3  C   UNL     1      34.012 -13.727 -21.480  0.00  0.00    +0.241 C 
ATOM      4  H   UNL     1      33.034 -12.275 -22.538  0.00  0.00    +0.150 HD
ENDROOT
BRANCH   3   7
ATOM      5  O   UNL     1      34.644 -17.484 -23.587  0.00  0.00    -0.275 OA
ATOM      6  N   UNL     1      34.493 -15.195 -23.311  0.00  0.00    -0.273 N 
ATOM      7  C   UNL     1      34.872 -13.927 -22.692  0.00  0.00    +0.152 C 
ATOM      8  C   UNL     1      34.560 -12.876 -23.753  0.00  0.00    +0.031 C 
ATOM      9  C   UNL     1      33.728 -14.974 -24.531  0.00  0.00    +0.094 C 
ATOM     10  C   UNL     1      33.399 -13.490 -24.530  0.00  0.00    +0.024 C 
ATOM     11  C   UNL     1      34.895 -16.467 -22.937  0.00  0.00    +0.226 C 
BRANCH  11  12
ATOM     12  C   UNL     1      35.683 -16.564 -21.655  0.00  0.00    +0.085 C 
BRANCH  12  13
ATOM     13  C   UNL     1      36.275 -17.955 -21.500  0.00  0.00    +0.010 C 
BRANCH  13  14
ATOM     14  C   UNL     1      35.692 -18.719 -20.313  0.00  0.00    +0.000 C 
ATOM     15  C   UNL     1      34.344 -19.351 -20.684  0.00  0.00    +0.000 C 
ATOM     16  C   UNL     1      36.677 -19.786 -19.817  0.00  0.00    +0.000 C 
ATOM     17  C   UNL     1      33.765 -20.165 -19.530  0.00  0.00    +0.000 C 
ATOM     18  C   UNL     1      36.095 -20.599 -18.664  0.00  0.00    +0.000 C 
ATOM     19  C   UNL     1      34.750 -21.218 -19.034  0.00  0.00    +0.000 C 
ENDBRANCH  13  14
ENDBRANCH  12  13
ENDBRANCH  11  12
ENDBRANCH   3   7
BRANCH   2  20
ATOM     20  C   UNL     1      32.087 -12.376 -20.666  0.00  0.00    +0.116 C 
BRANCH  20  21
ATOM     21  C   UNL     1      32.122 -10.906 -20.365  0.00  0.00    -0.003 C 
ATOM     22  C   UNL     1      32.034 -10.463 -19.045  0.00  0.00    -0.003 C 
ATOM     23  C   UNL     1      32.244  -9.983 -21.403  0.00  0.00    -0.003 C 
ATOM     24  C   UNL     1      32.068  -9.097 -18.763  0.00  0.00    +0.002 C 
ATOM     25  C   UNL     1      32.277  -8.617 -21.122  0.00  0.00    +0.002 C 
ATOM     26  C   UNL     1      32.190  -8.174 -19.802  0.00  0.00    +0.031 C 
BRANCH  26  29
ATOM     27  N   UNL     1      31.750  -5.810 -20.421  0.00  0.00    -0.343 N 
ATOM     28  N   UNL     1      32.719  -6.327 -18.358  0.00  0.00    -0.285 NA
ATOM     29  C   UNL     1      32.225  -6.750 -19.509  0.00  0.00    +0.117 C 
ATOM     30  H   UNL     1      31.783  -4.851 -20.201  0.00  0.00    +0.144 HD
ATOM     31  H   UNL     1      31.381  -6.105 -21.284  0.00  0.00    +0.144 HD
ATOM     32  H   UNL     1      32.744  -5.364 -18.157  0.00  0.00    +0.188 HD
ENDBRANCH  26  29
ENDBRANCH  20  21
ENDBRANCH   2  20
TORSDOF 7
ENDMDL
MODEL 4
REMARK VINA RESULT:     -10.0      3.546      7.280
REMARK  Name = 25134248
REMARK  7 active torsions:
REMARK  status: ('A' for Active; 'I' for Inactive)
REMARK    1  A    between atoms: N_2  and  C_20
REMARK    2  A    between atoms: C_3  and  C_7
REMARK    3  A    between atoms: C_11  and  C_12
REMARK    4  A    between atoms: C_12  and  C_13
REMARK    5  A    between atoms: C_13  and  C_14
REMARK    6  A    between atoms: C_20  and  C_21
REMARK    7  A    between atoms: C_26  and  C_29
REMARK                            x       y       z     vdW  Elec       q    Type
REMARK                         _______ _______ _______ _____ _____    ______ ____
ROOT
ATOM      1  O   UNL     1      34.568 -22.882 -16.912  0.00  0.00    -0.273 OA
ATOM      2  N   UNL     1      35.988 -21.220 -17.710  0.00  0.00    -0.299 N 
ATOM      3  C   UNL     1      35.393 -21.992 -16.727  0.00  0.00    +0.241 C 
ATOM      4  H   UNL     1      36.638 -20.532 -17.437  0.00  0.00    +0.150 HD
ENDROOT
BRANCH   3   7
ATOM      5  O   UNL     1      34.660 -24.258 -13.084  0.00  0.00    -0.275 OA
ATOM      6  N   UNL     1      35.781 -22.837 -14.520  0.00  0.00    -0.273 N 
ATOM      7  C   UNL     1      35.887 -21.643 -15.355  0.00  0.00    +0.152 C 
ATOM      8  C   UNL     1      37.380 -21.329 -15.384  0.00  0.00    +0.031 C 
ATOM      9  C   UNL     1      37.092 -23.425 -14.277  0.00  0.00    +0.094 C 
ATOM     10  C   UNL     1      38.034 -22.699 -15.224  0.00  0.00    +0.024 C 
ATOM     11  C   UNL     1      34.649 -23.320 -13.883  0.00  0.00    +0.226 C 
BRANCH  11  12
ATOM     12  C   UNL     1      33.352 -22.627 -14.217  0.00  0.00    +0.085 C 
BRANCH  12  13
ATOM     13  C   UNL     1      32.389 -22.710 -13.045  0.00  0.00    +0.010 C 
BRANCH  13  14
ATOM     14  C   UNL     1      30.946 -22.960 -13.480  0.00  0.00    +0.000 C 
ATOM     15  C   UNL     1      30.582 -22.079 -14.682  0.00  0.00    +0.000 C 
ATOM     16  C   UNL     1      30.728 -24.444 -13.805  0.00  0.00    +0.000 C 
ATOM     17  C   UNL     1      29.160 -22.350 -15.169  0.00  0.00    +0.000 C 
ATOM     18  C   UNL     1      29.306 -24.711 -14.293  0.00  0.00    +0.000 C 
ATOM     19  C   UNL     1      28.944 -23.826 -15.482  0.00  0.00    +0.000 C 
ENDBRANCH  13  14
ENDBRANCH  12  13
ENDBRANCH  11  12
ENDBRANCH   3   7
BRANCH   2  20
ATOM     20  C   UNL     1      35.701 -21.374 -19.118  0.00  0.00    +0.116 C 
BRANCH  20  21
ATOM     21  C   UNL     1      35.637 -20.051 -19.827  0.00  0.00    -0.003 C 
ATOM     22  C   UNL     1      36.794 -19.288 -19.983  0.00  0.00    -0.003 C 
ATOM     23  C   UNL     1      34.423 -19.587 -20.331  0.00  0.00    -0.003 C 
ATOM     24  C   UNL     1      36.736 -18.060 -20.641  0.00  0.00    +0.002 C 
ATOM     25  C   UNL     1      34.364 -18.360 -20.990  0.00  0.00    +0.002 C 
ATOM     26  C   UNL     1      35.521 -17.596 -21.145  0.00  0.00    +0.031 C 
BRANCH  26  29
ATOM     27  N   UNL     1      35.750 -16.209 -23.193  0.00  0.00    -0.343 N 
ATOM     28  N   UNL     1      35.129 -15.225 -21.166  0.00  0.00    -0.285 NA
ATOM     29  C   UNL     1      35.460 -16.316 -21.833  0.00  0.00    +0.117 C 
ATOM     30  H   UNL     1      35.703 -15.332 -23.638  0.00  0.00    +0.144 HD
ATOM     31  H   UNL     1      36.002 -17.010 -23.706  0.00  0.00    +0.144 HD
ATOM     32  H   UNL     1      35.087 -14.357 -21.630  0.00  0.00    +0.188 HD
ENDBRANCH  26  29
ENDBRANCH  20  21
ENDBRANCH   2  20
TORSDOF 7
ENDMDL
MODEL 5
REMARK VINA RESULT:      -9.8      3.004      7.308
REMARK  Name = 25134248
REMARK  7 active torsions:
REMARK  status: ('A' for Active; 'I' for Inactive)
REMARK    1  A    between atoms: N_2  and  C_20
REMARK    2  A    between atoms: C_3  and  C_7
REMARK    3  A    between atoms: C_11  and  C_12
REMARK    4  A    between atoms: C_12  and  C_13
REMARK    5  A    between atoms: C_13  and  C_14
REMARK    6  A    between atoms: C_20  and  C_21
REMARK    7  A    between atoms: C_26  and  C_29
REMARK                            x       y       z     vdW  Elec       q    Type
REMARK                         _______ _______ _______ _____ _____    ______ ____
ROOT
ATOM      1  O   UNL     1      37.262 -19.334 -18.327  0.00  0.00    -0.273 OA
ATOM      2  N   UNL     1      36.841 -21.325 -17.198  0.00  0.00    -0.299 N 
ATOM      3  C   UNL     1      36.740 -20.444 -18.260  0.00  0.00    +0.241 C 
ATOM      4  H   UNL     1      36.374 -22.191 -17.261  0.00  0.00    +0.150 HD
ENDROOT
BRANCH   3   7
ATOM      5  O   UNL     1      32.395 -20.670 -18.392  0.00  0.00    -0.275 OA
ATOM      6  N   UNL     1      34.547 -20.523 -19.220  0.00  0.00    -0.273 N 
ATOM      7  C   UNL     1      35.917 -21.000 -19.383  0.00  0.00    +0.152 C 
ATOM      8  C   UNL     1      36.367 -20.418 -20.721  0.00  0.00    +0.031 C 
ATOM      9  C   UNL     1      34.233 -19.486 -20.195  0.00  0.00    +0.094 C 
ATOM     10  C   UNL     1      35.565 -19.125 -20.832  0.00  0.00    +0.024 C 
ATOM     11  C   UNL     1      33.571 -21.037 -18.381  0.00  0.00    +0.226 C 
BRANCH  11  12
ATOM     12  C   UNL     1      34.021 -22.106 -17.418  0.00  0.00    +0.085 C 
BRANCH  12  13
ATOM     13  C   UNL     1      32.837 -22.944 -16.964  0.00  0.00    +0.010 C 
BRANCH  13  14
ATOM     14  C   UNL     1      32.309 -22.532 -15.592  0.00  0.00    +0.000 C 
ATOM     15  C   UNL     1      30.779 -22.640 -15.545  0.00  0.00    +0.000 C 
ATOM     16  C   UNL     1      32.951 -23.382 -14.486  0.00  0.00    +0.000 C 
ATOM     17  C   UNL     1      30.231 -22.284 -14.165  0.00  0.00    +0.000 C 
ATOM     18  C   UNL     1      32.399 -23.024 -13.109  0.00  0.00    +0.000 C 
ATOM     19  C   UNL     1      30.877 -23.124 -13.069  0.00  0.00    +0.000 C 
ENDBRANCH  13  14
ENDBRANCH  12  13
ENDBRANCH  11  12
ENDBRANCH   3   7
BRANCH   2  20
ATOM     20  C   UNL     1      37.598 -21.037 -16.001  0.00  0.00    +0.116 C 
BRANCH  20  21
ATOM     21  C   UNL     1      37.484 -22.138 -14.986  0.00  0.00    -0.003 C 
ATOM     22  C   UNL     1      38.474 -23.118 -14.907  0.00  0.00    -0.003 C 
ATOM     23  C   UNL     1      36.392 -22.180 -14.120  0.00  0.00    -0.003 C 
ATOM     24  C   UNL     1      38.370 -24.141 -13.964  0.00  0.00    +0.002 C 
ATOM     25  C   UNL     1      36.287 -23.202 -13.177  0.00  0.00    +0.002 C 
ATOM     26  C   UNL     1      37.277 -24.182 -13.098  0.00  0.00    +0.031 C 
BRANCH  26  29
ATOM     27  N   UNL     1      37.414 -26.577 -12.455  0.00  0.00    -0.343 N 
ATOM     28  N   UNL     1      36.830 -24.962 -10.870  0.00  0.00    -0.285 NA
ATOM     29  C   UNL     1      37.169 -25.247 -12.114  0.00  0.00    +0.117 C 
ATOM     30  H   UNL     1      37.336 -27.281 -11.773  0.00  0.00    +0.144 HD
ATOM     31  H   UNL     1      37.665 -26.809 -13.378  0.00  0.00    +0.144 HD
ATOM     32  H   UNL     1      36.757 -25.682 -10.202  0.00  0.00    +0.188 HD
ENDBRANCH  26  29
ENDBRANCH  20  21
ENDBRANCH   2  20
TORSDOF 7
ENDMDL
MODEL 6
REMARK VINA RESULT:      -9.8      3.337      7.425
REMARK  Name = 25134248
REMARK  7 active torsions:
REMARK  status: ('A' for Active; 'I' for Inactive)
REMARK    1  A    between atoms: N_2  and  C_20
REMARK    2  A    between atoms: C_3  and  C_7
REMARK    3  A    between atoms: C_11  and  C_12
REMARK    4  A    between atoms: C_12  and  C_13
REMARK    5  A    between atoms: C_13  and  C_14
REMARK    6  A    between atoms: C_20  and  C_21
REMARK    7  A    between atoms: C_26  and  C_29
REMARK                            x       y       z     vdW  Elec       q    Type
REMARK                         _______ _______ _______ _____ _____    ______ ____
ROOT
ATOM      1  O   UNL     1      35.530 -21.449 -15.189  0.00  0.00    -0.273 OA
ATOM      2  N   UNL     1      35.652 -21.868 -17.475  0.00  0.00    -0.299 N 
ATOM      3  C   UNL     1      35.181 -22.069 -16.190  0.00  0.00    +0.241 C 
ATOM      4  H   UNL     1      35.294 -22.432 -18.200  0.00  0.00    +0.150 HD
ENDROOT
BRANCH   3   7
ATOM      5  O   UNL     1      33.615 -23.925 -12.577  0.00  0.00    -0.275 OA
ATOM      6  N   UNL     1      33.613 -23.191 -14.768  0.00  0.00    -0.273 N 
ATOM      7  C   UNL     1      34.140 -23.147 -16.129  0.00  0.00    +0.152 C 
ATOM      8  C   UNL     1      32.936 -22.782 -16.992  0.00  0.00    +0.031 C 
ATOM      9  C   UNL     1      32.276 -22.616 -14.704  0.00  0.00    +0.094 C 
ATOM     10  C   UNL     1      32.066 -21.949 -16.054  0.00  0.00    +0.024 C 
ATOM     11  C   UNL     1      34.180 -23.813 -13.666  0.00  0.00    +0.226 C 
BRANCH  11  12
ATOM     12  C   UNL     1      35.568 -24.369 -13.859  0.00  0.00    +0.085 C 
BRANCH  12  13
ATOM     13  C   UNL     1      36.469 -23.959 -12.707  0.00  0.00    +0.010 C 
BRANCH  13  14
ATOM     14  C   UNL     1      37.933 -23.821 -13.119  0.00  0.00    +0.000 C 
ATOM     15  C   UNL     1      38.723 -25.082 -12.743  0.00  0.00    +0.000 C 
ATOM     16  C   UNL     1      38.049 -23.532 -14.621  0.00  0.00    +0.000 C 
ATOM     17  C   UNL     1      40.180 -24.990 -13.193  0.00  0.00    +0.000 C 
ATOM     18  C   UNL     1      39.506 -23.442 -15.068  0.00  0.00    +0.000 C 
ATOM     19  C   UNL     1      40.290 -24.693 -14.684  0.00  0.00    +0.000 C 
ENDBRANCH  13  14
ENDBRANCH  12  13
ENDBRANCH  11  12
ENDBRANCH   3   7
BRANCH   2  20
ATOM     20  C   UNL     1      36.644 -20.870 -17.807  0.00  0.00    +0.116 C 
BRANCH  20  21
ATOM     21  C   UNL     1      36.263 -20.083 -19.027  0.00  0.00    -0.003 C 
ATOM     22  C   UNL     1      34.966 -20.168 -19.535  0.00  0.00    -0.003 C 
ATOM     23  C   UNL     1      37.204 -19.265 -19.652  0.00  0.00    -0.003 C 
ATOM     24  C   UNL     1      34.611 -19.436 -20.667  0.00  0.00    +0.002 C 
ATOM     25  C   UNL     1      36.849 -18.533 -20.785  0.00  0.00    +0.002 C 
ATOM     26  C   UNL     1      35.553 -18.618 -21.293  0.00  0.00    +0.031 C 
BRANCH  26  29
ATOM     27  N   UNL     1      35.769 -16.622 -22.754  0.00  0.00    -0.343 N 
ATOM     28  N   UNL     1      34.268 -18.326 -23.303  0.00  0.00    -0.285 NA
ATOM     29  C   UNL     1      35.182 -17.854 -22.473  0.00  0.00    +0.117 C 
ATOM     30  H   UNL     1      35.503 -16.122 -23.559  0.00  0.00    +0.144 HD
ATOM     31  H   UNL     1      36.450 -16.252 -22.146  0.00  0.00    +0.144 HD
ATOM     32  H   UNL     1      34.016 -17.811 -24.103  0.00  0.00    +0.188 HD
ENDBRANCH  26  29
ENDBRANCH  20  21
ENDBRANCH   2  20
TORSDOF 7
ENDMDL
MODEL 7
REMARK VINA RESULT:      -9.8      2.326      6.555
REMARK  Name = 25134248
REMARK  7 active torsions:
REMARK  status: ('A' for Active; 'I' for Inactive)
REMARK    1  A    between atoms: N_2  and  C_20
REMARK    2  A    between atoms: C_3  and  C_7
REMARK    3  A    between atoms: C_11  and  C_12
REMARK    4  A    between atoms: C_12  and  C_13
REMARK    5  A    between atoms: C_13  and  C_14
REMARK    6  A    between atoms: C_20  and  C_21
REMARK    7  A    between atoms: C_26  and  C_29
REMARK                            x       y       z     vdW  Elec       q    Type
REMARK                         _______ _______ _______ _____ _____    ______ ____
ROOT
ATOM      1  O   UNL     1      32.960 -24.637 -13.420  0.00  0.00    -0.273 OA
ATOM      2  N   UNL     1      34.202 -22.917 -12.463  0.00  0.00    -0.299 N 
ATOM      3  C   UNL     1      33.213 -23.444 -13.275  0.00  0.00    +0.241 C 
ATOM      4  H   UNL     1      34.309 -21.938 -12.431  0.00  0.00    +0.150 HD
ENDROOT
BRANCH   3   7
ATOM      5  O   UNL     1      32.711 -23.039 -17.580  0.00  0.00    -0.275 OA
ATOM      6  N   UNL     1      32.173 -22.828 -15.343  0.00  0.00    -0.273 N 
ATOM      7  C   UNL     1      32.426 -22.378 -13.977  0.00  0.00    +0.152 C 
ATOM      8  C   UNL     1      31.038 -22.238 -13.358  0.00  0.00    +0.031 C 
ATOM      9  C   UNL     1      30.784 -23.236 -15.512  0.00  0.00    +0.094 C 
ATOM     10  C   UNL     1      30.210 -23.280 -14.105  0.00  0.00    +0.024 C 
ATOM     11  C   UNL     1      33.037 -22.764 -16.424  0.00  0.00    +0.226 C 
BRANCH  11  12
ATOM     12  C   UNL     1      34.448 -22.326 -16.120  0.00  0.00    +0.085 C 
BRANCH  12  13
ATOM     13  C   UNL     1      35.296 -22.355 -17.381  0.00  0.00    +0.010 C 
BRANCH  13  14
ATOM     14  C   UNL     1      35.323 -21.013 -18.109  0.00  0.00    +0.000 C 
ATOM     15  C   UNL     1      36.674 -20.801 -18.804  0.00  0.00    +0.000 C 
ATOM     16  C   UNL     1      34.170 -20.920 -19.117  0.00  0.00    +0.000 C 
ATOM     17  C   UNL     1      36.707 -19.489 -19.584  0.00  0.00    +0.000 C 
ATOM     18  C   UNL     1      34.206 -19.608 -19.896  0.00  0.00    +0.000 C 
ATOM     19  C   UNL     1      35.554 -19.396 -20.578  0.00  0.00    +0.000 C 
ENDBRANCH  13  14
ENDBRANCH  12  13
ENDBRANCH  11  12
ENDBRANCH   3   7
BRANCH   2  20
ATOM     20  C   UNL     1      35.084 -23.732 -11.661  0.00  0.00    +0.116 C 
BRANCH  20  21
ATOM     21  C   UNL     1      36.382 -24.013 -12.362  0.00  0.00    -0.003 C 
ATOM     22  C   UNL     1      36.764 -23.239 -13.458  0.00  0.00    -0.003 C 
ATOM     23  C   UNL     1      37.207 -25.046 -11.917  0.00  0.00    -0.003 C 
ATOM     24  C   UNL     1      37.970 -23.499 -14.109  0.00  0.00    +0.002 C 
ATOM     25  C   UNL     1      38.413 -25.306 -12.568  0.00  0.00    +0.002 C 
ATOM     26  C   UNL     1      38.795 -24.532 -13.664  0.00  0.00    +0.031 C 
BRANCH  26  29
ATOM     27  N   UNL     1      40.816 -25.926 -14.035  0.00  0.00    -0.343 N 
ATOM     28  N   UNL     1      40.492 -23.969 -15.270  0.00  0.00    -0.285 NA
ATOM     29  C   UNL     1      40.052 -24.802 -14.342  0.00  0.00    +0.117 C 
ATOM     30  H   UNL     1      41.664 -26.089 -14.507  0.00  0.00    +0.144 HD
ATOM     31  H   UNL     1      40.507 -26.557 -13.344  0.00  0.00    +0.144 HD
ATOM     32  H   UNL     1      41.343 -24.150 -15.731  0.00  0.00    +0.188 HD
ENDBRANCH  26  29
ENDBRANCH  20  21
ENDBRANCH   2  20
TORSDOF 7
ENDMDL
MODEL 8
REMARK VINA RESULT:      -9.7     12.250     16.105
REMARK  Name = 25134248
REMARK  7 active torsions:
REMARK  status: ('A' for Active; 'I' for Inactive)
REMARK    1  A    between atoms: N_2  and  C_20
REMARK    2  A    between atoms: C_3  and  C_7
REMARK    3  A    between atoms: C_11  and  C_12
REMARK    4  A    between atoms: C_12  and  C_13
REMARK    5  A    between atoms: C_13  and  C_14
REMARK    6  A    between atoms: C_20  and  C_21
REMARK    7  A    between atoms: C_26  and  C_29
REMARK                            x       y       z     vdW  Elec       q    Type
REMARK                         _______ _______ _______ _____ _____    ______ ____
ROOT
ATOM      1  O   UNL     1      34.556  -7.035 -21.986  0.00  0.00    -0.273 OA
ATOM      2  N   UNL     1      33.289  -8.276 -23.494  0.00  0.00    -0.299 N 
ATOM      3  C   UNL     1      33.474  -7.402 -22.437  0.00  0.00    +0.241 C 
ATOM      4  H   UNL     1      32.368  -8.495 -23.766  0.00  0.00    +0.150 HD
ENDROOT
BRANCH   3   7
ATOM      5  O   UNL     1      32.802  -5.956 -18.386  0.00  0.00    -0.275 OA
ATOM      6  N   UNL     1      32.464  -6.148 -20.664  0.00  0.00    -0.273 N 
ATOM      7  C   UNL     1      32.174  -6.901 -21.881  0.00  0.00    +0.152 C 
ATOM      8  C   UNL     1      31.545  -5.878 -22.822  0.00  0.00    +0.031 C 
ATOM      9  C   UNL     1      32.323  -4.715 -20.888  0.00  0.00    +0.094 C 
ATOM     10  C   UNL     1      32.186  -4.560 -22.394  0.00  0.00    +0.024 C 
ATOM     11  C   UNL     1      32.697  -6.655 -19.396  0.00  0.00    +0.226 C 
BRANCH  11  12
ATOM     12  C   UNL     1      32.822  -8.155 -19.294  0.00  0.00    +0.085 C 
BRANCH  12  13
ATOM     13  C   UNL     1      31.516  -8.765 -18.816  0.00  0.00    +0.010 C 
BRANCH  13  14
ATOM     14  C   UNL     1      31.282 -10.171 -19.364  0.00  0.00    +0.000 C 
ATOM     15  C   UNL     1      31.715 -10.259 -20.833  0.00  0.00    +0.000 C 
ATOM     16  C   UNL     1      32.020 -11.214 -18.513  0.00  0.00    +0.000 C 
ATOM     17  C   UNL     1      31.541 -11.671 -21.389  0.00  0.00    +0.000 C 
ATOM     18  C   UNL     1      31.845 -12.624 -19.073  0.00  0.00    +0.000 C 
ATOM     19  C   UNL     1      32.268 -12.705 -20.536  0.00  0.00    +0.000 C 
ENDBRANCH  13  14
ENDBRANCH  12  13
ENDBRANCH  11  12
ENDBRANCH   3   7
BRANCH   2  20
ATOM     20  C   UNL     1      34.383  -8.882 -24.219  0.00  0.00    +0.116 C 
BRANCH  20  21
ATOM     21  C   UNL     1      34.238 -10.374 -24.311  0.00  0.00    -0.003 C 
ATOM     22  C   UNL     1      34.496 -11.168 -23.193  0.00  0.00    -0.003 C 
ATOM     23  C   UNL     1      33.844 -10.965 -25.510  0.00  0.00    -0.003 C 
ATOM     24  C   UNL     1      34.360 -12.554 -23.277  0.00  0.00    +0.002 C 
ATOM     25  C   UNL     1      33.709 -12.350 -25.595  0.00  0.00    +0.002 C 
ATOM     26  C   UNL     1      33.966 -13.145 -24.478  0.00  0.00    +0.031 C 
BRANCH  26  29
ATOM     27  N   UNL     1      34.528 -15.440 -23.712  0.00  0.00    -0.343 N 
ATOM     28  N   UNL     1      33.018 -15.119 -25.467  0.00  0.00    -0.285 NA
ATOM     29  C   UNL     1      33.825 -14.590 -24.564  0.00  0.00    +0.117 C 
ATOM     30  H   UNL     1      34.417 -16.415 -23.788  0.00  0.00    +0.144 HD
ATOM     31  H   UNL     1      35.136 -15.065 -23.036  0.00  0.00    +0.144 HD
ATOM     32  H   UNL     1      32.920 -16.097 -25.527  0.00  0.00    +0.188 HD
ENDBRANCH  26  29
ENDBRANCH  20  21
ENDBRANCH   2  20
TORSDOF 7
ENDMDL
MODEL 9
REMARK VINA RESULT:      -9.7      4.356      8.563
REMARK  Name = 25134248
REMARK  7 active torsions:
REMARK  status: ('A' for Active; 'I' for Inactive)
REMARK    1  A    between atoms: N_2  and  C_20
REMARK    2  A    between atoms: C_3  and  C_7
REMARK    3  A    between atoms: C_11  and  C_12
REMARK    4  A    between atoms: C_12  and  C_13
REMARK    5  A    between atoms: C_13  and  C_14
REMARK    6  A    between atoms: C_20  and  C_21
REMARK    7  A    between atoms: C_26  and  C_29
REMARK                            x       y       z     vdW  Elec       q    Type
REMARK                         _______ _______ _______ _____ _____    ______ ____
ROOT
ATOM      1  O   UNL     1      36.874 -20.195 -17.706  0.00  0.00    -0.273 OA
ATOM      2  N   UNL     1      35.883 -19.918 -19.794  0.00  0.00    -0.299 N 
ATOM      3  C   UNL     1      36.134 -20.582 -18.606  0.00  0.00    +0.241 C 
ATOM      4  H   UNL     1      35.267 -20.331 -20.442  0.00  0.00    +0.150 HD
ENDROOT
BRANCH   3   7
ATOM      5  O   UNL     1      34.389 -22.241 -14.979  0.00  0.00    -0.275 OA
ATOM      6  N   UNL     1      34.623 -21.847 -17.244  0.00  0.00    -0.273 N 
ATOM      7  C   UNL     1      35.366 -21.866 -18.501  0.00  0.00    +0.152 C 
ATOM      8  C   UNL     1      34.288 -21.938 -19.579  0.00  0.00    +0.031 C 
ATOM      9  C   UNL     1      33.203 -21.621 -17.476  0.00  0.00    +0.094 C 
ATOM     10  C   UNL     1      33.099 -21.225 -18.941  0.00  0.00    +0.024 C 
ATOM     11  C   UNL     1      35.104 -22.146 -15.979  0.00  0.00    +0.226 C 
BRANCH  11  12
ATOM     12  C   UNL     1      36.592 -22.360 -15.868  0.00  0.00    +0.085 C 
BRANCH  12  13
ATOM     13  C   UNL     1      37.066 -22.072 -14.453  0.00  0.00    +0.010 C 
BRANCH  13  14
ATOM     14  C   UNL     1      37.729 -23.279 -13.792  0.00  0.00    +0.000 C 
ATOM     15  C   UNL     1      37.701 -23.145 -12.264  0.00  0.00    +0.000 C 
ATOM     16  C   UNL     1      37.051 -24.582 -14.238  0.00  0.00    +0.000 C 
ATOM     17  C   UNL     1      38.311 -24.365 -11.579  0.00  0.00    +0.000 C 
ATOM     18  C   UNL     1      37.662 -25.800 -13.550  0.00  0.00    +0.000 C 
ATOM     19  C   UNL     1      37.641 -25.658 -12.031  0.00  0.00    +0.000 C 
ENDBRANCH  13  14
ENDBRANCH  12  13
ENDBRANCH  11  12
ENDBRANCH   3   7
BRANCH   2  20
ATOM     20  C   UNL     1      36.482 -18.646 -20.130  0.00  0.00    +0.116 C 
BRANCH  20  21
ATOM     21  C   UNL     1      35.847 -18.029 -21.343  0.00  0.00    -0.003 C 
ATOM     22  C   UNL     1      35.957 -16.656 -21.564  0.00  0.00    -0.003 C 
ATOM     23  C   UNL     1      35.151 -18.827 -22.249  0.00  0.00    -0.003 C 
ATOM     24  C   UNL     1      35.369 -16.081 -22.691  0.00  0.00    +0.002 C 
ATOM     25  C   UNL     1      34.562 -18.254 -23.376  0.00  0.00    +0.002 C 
ATOM     26  C   UNL     1      34.672 -16.880 -23.597  0.00  0.00    +0.031 C 
BRANCH  26  29
ATOM     27  N   UNL     1      34.382 -14.988 -25.178  0.00  0.00    -0.343 N 
ATOM     28  N   UNL     1      33.176 -16.967 -25.476  0.00  0.00    -0.285 NA
ATOM     29  C   UNL     1      34.059 -16.281 -24.772  0.00  0.00    +0.117 C 
ATOM     30  H   UNL     1      33.955 -14.602 -25.977  0.00  0.00    +0.144 HD
ATOM     31  H   UNL     1      35.035 -14.460 -24.665  0.00  0.00    +0.144 HD
ATOM     32  H   UNL     1      32.760 -16.564 -26.272  0.00  0.00    +0.188 HD
ENDBRANCH  26  29
ENDBRANCH  20  21
ENDBRANCH   2  20
TORSDOF 7
ENDMDL
