MODEL 1
REMARK VINA RESULT:     -12.5      0.000      0.000
REMARK  Name = 118161062
REMARK  4 active torsions:
REMARK  status: ('A' for Active; 'I' for Inactive)
REMARK    1  A    between atoms: N_1  and  C_26
REMARK    2  A    between atoms: C_7  and  C_15
REMARK    3  A    between atoms: C_21  and  N_28
REMARK    4  A    between atoms: N_27  and  C_35
REMARK                            x       y       z     vdW  Elec       q    Type
REMARK                         _______ _______ _______ _____ _____    ______ ____
ROOT
ATOM      1  N   UNL     1      36.362 -22.061 -16.615  0.00  0.00    -0.286 N 
ATOM      2  N   UNL     1      35.073 -23.118 -13.311  0.00  0.00    -0.260 N 
ATOM      3  N   UNL     1      34.195 -22.504 -15.864  0.00  0.00    -0.384 NA
ATOM      4  N   UNL     1      37.202 -22.742 -13.856  0.00  0.00    -0.224 NA
ATOM      5  C   UNL     1      35.489 -22.432 -15.620  0.00  0.00    +0.216 C 
ATOM      6  C   UNL     1      35.963 -22.754 -14.287  0.00  0.00    +0.180 C 
ATOM      7  C   UNL     1      33.319 -22.884 -14.847  0.00  0.00    +0.162 C 
ATOM      8  C   UNL     1      33.724 -23.182 -13.593  0.00  0.00    +0.159 C 
ATOM      9  C   UNL     1      35.794 -23.353 -12.175  0.00  0.00    +0.088 C 
ATOM     10  C   UNL     1      37.104 -23.115 -12.536  0.00  0.00    +0.117 C 
ATOM     11  H   UNL     1      37.269 -22.439 -16.561  0.00  0.00    +0.155 HD
ENDROOT
BRANCH   7  15
ATOM     12  N   UNL     1      31.119 -23.802 -14.488  0.00  0.00    -0.386 NA
ATOM     13  N   UNL     1      30.037 -22.149 -16.479  0.00  0.00    -0.257 NA
ATOM     14  N   UNL     1      28.943 -24.716 -14.126  0.00  0.00    -0.335 N 
ATOM     15  C   UNL     1      31.877 -22.931 -15.182  0.00  0.00    +0.178 C 
ATOM     16  C   UNL     1      31.346 -22.119 -16.160  0.00  0.00    +0.128 C 
ATOM     17  C   UNL     1      29.810 -23.831 -14.806  0.00  0.00    +0.179 C 
ATOM     18  C   UNL     1      29.278 -23.019 -15.784  0.00  0.00    +0.199 C 
ATOM     19  H   UNL     1      29.296 -25.307 -13.423  0.00  0.00    +0.144 HD
ATOM     20  H   UNL     1      27.986 -24.741 -14.356  0.00  0.00    +0.144 HD
ENDBRANCH   7  15
BRANCH   1  26
ATOM     21  C   UNL     1      35.613 -19.497 -19.857  0.00  0.00    +0.048 C 
ATOM     22  C   UNL     1      36.861 -19.488 -19.235  0.00  0.00    +0.016 C 
ATOM     23  C   UNL     1      34.613 -20.356 -19.401  0.00  0.00    +0.016 C 
ATOM     24  C   UNL     1      37.111 -20.340 -18.159  0.00  0.00    +0.016 C 
ATOM     25  C   UNL     1      34.863 -21.209 -18.326  0.00  0.00    +0.016 C 
ATOM     26  C   UNL     1      36.111 -21.201 -17.704  0.00  0.00    +0.050 C 
BRANCH  21  28
ATOM     27  N   UNL     1      34.641 -16.811 -23.002  0.00  0.00    +0.394 N 
ATOM     28  N   UNL     1      35.363 -18.641 -20.935  0.00  0.00    -0.312 N 
ATOM     29  C   UNL     1      35.691 -16.461 -22.037  0.00  0.00    -0.055 C 
ATOM     30  C   UNL     1      34.668 -18.253 -23.267  0.00  0.00    -0.055 C 
ATOM     31  C   UNL     1      35.478 -17.194 -20.711  0.00  0.00    +0.068 C 
ATOM     32  C   UNL     1      34.421 -19.049 -21.983  0.00  0.00    +0.068 C 
ATOM     33  H   UNL     1      33.732 -16.557 -22.615  0.00  0.00    -0.079 HD
BRANCH  27  35
ATOM     34  O   UNL     1      33.415 -14.787 -25.131  0.00  0.00    -0.358 OA
ATOM     35  C   UNL     1      34.872 -16.080 -24.260  0.00  0.00    +0.002 C 
ATOM     36  C   UNL     1      33.641 -16.219 -25.154  0.00  0.00    +0.124 C 
ATOM     37  C   UNL     1      34.409 -14.632 -24.085  0.00  0.00    +0.124 C 
ENDBRANCH  27  35
ENDBRANCH  21  28
ENDBRANCH   1  26
TORSDOF 4
ENDMDL
MODEL 2
REMARK VINA RESULT:     -10.7      1.108      2.047
REMARK  Name = 118161062
REMARK  4 active torsions:
REMARK  status: ('A' for Active; 'I' for Inactive)
REMARK    1  A    between atoms: N_1  and  C_26
REMARK    2  A    between atoms: C_7  and  C_15
REMARK    3  A    between atoms: C_21  and  N_28
REMARK    4  A    between atoms: N_27  and  C_35
REMARK                            x       y       z     vdW  Elec       q    Type
REMARK                         _______ _______ _______ _____ _____    ______ ____
ROOT
ATOM      1  N   UNL     1      36.960 -22.272 -15.745  0.00  0.00    -0.286 N 
ATOM      2  N   UNL     1      35.826 -23.310 -12.378  0.00  0.00    -0.260 N 
ATOM      3  N   UNL     1      34.852 -22.862 -14.930  0.00  0.00    -0.384 NA
ATOM      4  N   UNL     1      37.907 -22.782 -12.983  0.00  0.00    -0.224 NA
ATOM      5  C   UNL     1      36.140 -22.677 -14.719  0.00  0.00    +0.216 C 
ATOM      6  C   UNL     1      36.665 -22.910 -13.386  0.00  0.00    +0.180 C 
ATOM      7  C   UNL     1      34.030 -23.275 -13.882  0.00  0.00    +0.162 C 
ATOM      8  C   UNL     1      34.482 -23.493 -12.627  0.00  0.00    +0.159 C 
ATOM      9  C   UNL     1      36.586 -23.444 -11.251  0.00  0.00    +0.088 C 
ATOM     10  C   UNL     1      37.865 -23.114 -11.649  0.00  0.00    +0.117 C 
ATOM     11  H   UNL     1      37.896 -22.573 -15.698  0.00  0.00    +0.155 HD
ENDROOT
BRANCH   7  15
ATOM     12  N   UNL     1      32.076 -22.686 -15.166  0.00  0.00    -0.386 NA
ATOM     13  N   UNL     1      30.510 -24.526 -13.741  0.00  0.00    -0.257 NA
ATOM     14  N   UNL     1      30.145 -22.097 -16.441  0.00  0.00    -0.335 N 
ATOM     15  C   UNL     1      32.590 -23.450 -14.183  0.00  0.00    +0.178 C 
ATOM     16  C   UNL     1      31.822 -24.354 -13.483  0.00  0.00    +0.128 C 
ATOM     17  C   UNL     1      30.765 -22.858 -15.425  0.00  0.00    +0.179 C 
ATOM     18  C   UNL     1      29.995 -23.763 -14.726  0.00  0.00    +0.199 C 
ATOM     19  H   UNL     1      30.671 -21.443 -16.957  0.00  0.00    +0.144 HD
ATOM     20  H   UNL     1      29.187 -22.220 -16.633  0.00  0.00    +0.144 HD
ENDBRANCH   7  15
BRANCH   1  26
ATOM     21  C   UNL     1      35.945 -19.902 -19.061  0.00  0.00    +0.048 C 
ATOM     22  C   UNL     1      35.141 -20.985 -18.705  0.00  0.00    +0.016 C 
ATOM     23  C   UNL     1      37.086 -19.606 -18.315  0.00  0.00    +0.016 C 
ATOM     24  C   UNL     1      35.477 -21.772 -17.604  0.00  0.00    +0.016 C 
ATOM     25  C   UNL     1      37.422 -20.393 -17.213  0.00  0.00    +0.016 C 
ATOM     26  C   UNL     1      36.619 -21.476 -16.857  0.00  0.00    +0.050 C 
BRANCH  21  28
ATOM     27  N   UNL     1      35.081 -17.658 -22.563  0.00  0.00    +0.394 N 
ATOM     28  N   UNL     1      35.607 -19.113 -20.166  0.00  0.00    -0.312 N 
ATOM     29  C   UNL     1      34.138 -18.684 -22.099  0.00  0.00    -0.055 C 
ATOM     30  C   UNL     1      35.700 -16.991 -21.413  0.00  0.00    -0.055 C 
ATOM     31  C   UNL     1      34.857 -19.743 -21.261  0.00  0.00    +0.068 C 
ATOM     32  C   UNL     1      36.471 -17.992 -20.551  0.00  0.00    +0.068 C 
ATOM     33  H   UNL     1      35.807 -18.101 -23.126  0.00  0.00    -0.079 HD
BRANCH  27  35
ATOM     34  O   UNL     1      35.101 -15.922 -25.231  0.00  0.00    -0.358 OA
ATOM     35  C   UNL     1      34.358 -16.663 -23.373  0.00  0.00    +0.002 C 
ATOM     36  C   UNL     1      35.338 -15.588 -23.840  0.00  0.00    +0.124 C 
ATOM     37  C   UNL     1      34.368 -17.110 -24.836  0.00  0.00    +0.124 C 
ENDBRANCH  27  35
ENDBRANCH  21  28
ENDBRANCH   1  26
TORSDOF 4
ENDMDL
