MODEL 1
REMARK VINA RESULT:     -11.9      0.000      0.000
REMARK  Name = 444581
REMARK  5 active torsions:
REMARK  status: ('A' for Active; 'I' for Inactive)
REMARK    1  A    between atoms: N_2  and  C_7
REMARK    2  A    between atoms: N_3  and  C_20
REMARK    3  A    between atoms: C_8  and  O_13
REMARK    4  A    between atoms: O_13  and  C_14
REMARK    5  A    between atoms: C_21  and  C_28
REMARK                            x       y       z     vdW  Elec       q    Type
REMARK                         _______ _______ _______ _____ _____    ______ ____
ROOT
ATOM      1  O   UNL     1      34.354 -19.546 -19.610  0.00  0.00    -0.252 OA
ATOM      2  N   UNL     1      36.531 -20.120 -18.975  0.00  0.00    -0.268 N 
ATOM      3  N   UNL     1      36.199 -18.831 -20.864  0.00  0.00    -0.268 N 
ATOM      4  C   UNL     1      35.566 -19.507 -19.793  0.00  0.00    +0.308 C 
ATOM      5  H   UNL     1      37.468 -19.999 -19.251  0.00  0.00    +0.156 HD
ATOM      6  H   UNL     1      37.181 -18.886 -20.883  0.00  0.00    +0.156 HD
ENDROOT
BRANCH   2   7
ATOM      7  C   UNL     1      36.320 -20.888 -17.807  0.00  0.00    +0.052 C 
ATOM      8  C   UNL     1      35.908 -22.392 -15.517  0.00  0.00    +0.145 C 
ATOM      9  C   UNL     1      35.156 -21.629 -17.683  0.00  0.00    +0.018 C 
ATOM     10  C   UNL     1      37.282 -20.885 -16.811  0.00  0.00    +0.018 C 
ATOM     11  C   UNL     1      34.948 -22.386 -16.530  0.00  0.00    +0.039 C 
ATOM     12  C   UNL     1      37.076 -21.642 -15.658  0.00  0.00    +0.039 C 
BRANCH   8  13
ATOM     13  O   UNL     1      35.706 -23.132 -14.393  0.00  0.00    -0.453 OA
BRANCH  13  14
ATOM     14  C   UNL     1      36.779 -23.850 -13.893  0.00  0.00    +0.145 C 
ATOM     15  C   UNL     1      37.476 -23.351 -12.808  0.00  0.00    +0.037 C 
ATOM     16  C   UNL     1      37.126 -25.047 -14.493  0.00  0.00    +0.037 C 
ATOM     17  C   UNL     1      38.558 -24.074 -12.305  0.00  0.00    +0.003 C 
ATOM     18  C   UNL     1      38.208 -25.769 -13.990  0.00  0.00    +0.003 C 
ATOM     19  C   UNL     1      38.925 -25.283 -12.895  0.00  0.00    +0.000 C 
ENDBRANCH  13  14
ENDBRANCH   8  13
ENDBRANCH   2   7
BRANCH   3  20
ATOM     20  C   UNL     1      35.614 -18.099 -21.898  0.00  0.00    +0.052 C 
ATOM     21  C   UNL     1      34.442 -16.635 -23.964  0.00  0.00    +0.031 C 
ATOM     22  C   UNL     1      34.918 -18.757 -22.912  0.00  0.00    +0.015 C 
ATOM     23  C   UNL     1      35.723 -16.709 -21.916  0.00  0.00    +0.015 C 
ATOM     24  C   UNL     1      34.332 -18.026 -23.945  0.00  0.00    +0.004 C 
ATOM     25  C   UNL     1      35.138 -15.976 -22.949  0.00  0.00    +0.004 C 
BRANCH  21  28
ATOM     26  N   UNL     1      34.261 -14.582 -25.348  0.00  0.00    -0.343 N 
ATOM     27  N   UNL     1      32.845 -16.398 -25.744  0.00  0.00    -0.285 NA
ATOM     28  C   UNL     1      33.831 -15.871 -25.040  0.00  0.00    +0.117 C 
ATOM     29  H   UNL     1      33.834 -14.083 -26.081  0.00  0.00    +0.144 HD
ATOM     30  H   UNL     1      34.992 -14.171 -24.833  0.00  0.00    +0.144 HD
ATOM     31  H   UNL     1      32.430 -15.883 -26.473  0.00  0.00    +0.188 HD
ENDBRANCH  21  28
ENDBRANCH   3  20
TORSDOF 5
ENDMDL
MODEL 2
REMARK VINA RESULT:     -11.2      2.890     10.932
REMARK  Name = 444581
REMARK  5 active torsions:
REMARK  status: ('A' for Active; 'I' for Inactive)
REMARK    1  A    between atoms: N_2  and  C_7
REMARK    2  A    between atoms: N_3  and  C_20
REMARK    3  A    between atoms: C_8  and  O_13
REMARK    4  A    between atoms: O_13  and  C_14
REMARK    5  A    between atoms: C_21  and  C_28
REMARK                            x       y       z     vdW  Elec       q    Type
REMARK                         _______ _______ _______ _____ _____    ______ ____
ROOT
ATOM      1  O   UNL     1      35.635 -21.568 -18.430  0.00  0.00    -0.252 OA
ATOM      2  N   UNL     1      36.872 -19.598 -18.674  0.00  0.00    -0.268 N 
ATOM      3  N   UNL     1      37.151 -20.889 -16.779  0.00  0.00    -0.268 N 
ATOM      4  C   UNL     1      36.464 -20.767 -18.010  0.00  0.00    +0.308 C 
ATOM      5  H   UNL     1      37.547 -19.053 -18.210  0.00  0.00    +0.156 HD
ATOM      6  H   UNL     1      37.789 -20.169 -16.572  0.00  0.00    +0.156 HD
ENDROOT
BRANCH   2   7
ATOM      7  C   UNL     1      36.431 -19.109 -19.926  0.00  0.00    +0.052 C 
ATOM      8  C   UNL     1      35.567 -18.149 -22.377  0.00  0.00    +0.145 C 
ATOM      9  C   UNL     1      37.315 -18.408 -20.729  0.00  0.00    +0.018 C 
ATOM     10  C   UNL     1      35.125 -19.341 -20.323  0.00  0.00    +0.018 C 
ATOM     11  C   UNL     1      36.881 -17.924 -21.963  0.00  0.00    +0.039 C 
ATOM     12  C   UNL     1      34.689 -18.858 -21.557  0.00  0.00    +0.039 C 
BRANCH   8  13
ATOM     13  O   UNL     1      35.143 -17.679 -23.582  0.00  0.00    -0.453 OA
BRANCH  13  14
ATOM     14  C   UNL     1      34.755 -16.351 -23.654  0.00  0.00    +0.145 C 
ATOM     15  C   UNL     1      34.064 -15.911 -24.767  0.00  0.00    +0.037 C 
ATOM     16  C   UNL     1      35.070 -15.501 -22.610  0.00  0.00    +0.037 C 
ATOM     17  C   UNL     1      33.673 -14.574 -24.840  0.00  0.00    +0.003 C 
ATOM     18  C   UNL     1      34.680 -14.164 -22.683  0.00  0.00    +0.003 C 
ATOM     19  C   UNL     1      33.981 -13.700 -23.798  0.00  0.00    +0.000 C 
ENDBRANCH  13  14
ENDBRANCH   8  13
ENDBRANCH   2   7
BRANCH   3  20
ATOM     20  C   UNL     1      37.044 -21.896 -15.818  0.00  0.00    +0.052 C 
ATOM     21  C   UNL     1      36.832 -23.906 -13.895  0.00  0.00    +0.031 C 
ATOM     22  C   UNL     1      38.194 -22.501 -15.312  0.00  0.00    +0.015 C 
ATOM     23  C   UNL     1      35.788 -22.295 -15.362  0.00  0.00    +0.015 C 
ATOM     24  C   UNL     1      38.089 -23.507 -14.351  0.00  0.00    +0.004 C 
ATOM     25  C   UNL     1      35.681 -23.300 -14.401  0.00  0.00    +0.004 C 
BRANCH  21  28
ATOM     26  N   UNL     1      37.184 -26.245 -13.139  0.00  0.00    -0.343 N 
ATOM     27  N   UNL     1      36.168 -24.689 -11.723  0.00  0.00    -0.285 NA
ATOM     28  C   UNL     1      36.721 -24.953 -12.892  0.00  0.00    +0.117 C 
ATOM     29  H   UNL     1      37.099 -26.938 -12.446  0.00  0.00    +0.144 HD
ATOM     30  H   UNL     1      37.596 -26.462 -14.006  0.00  0.00    +0.144 HD
ATOM     31  H   UNL     1      36.091 -25.396 -11.042  0.00  0.00    +0.188 HD
ENDBRANCH  21  28
ENDBRANCH   3  20
TORSDOF 5
ENDMDL
MODEL 3
REMARK VINA RESULT:     -11.0      3.832     10.580
REMARK  Name = 444581
REMARK  5 active torsions:
REMARK  status: ('A' for Active; 'I' for Inactive)
REMARK    1  A    between atoms: N_2  and  C_7
REMARK    2  A    between atoms: N_3  and  C_20
REMARK    3  A    between atoms: C_8  and  O_13
REMARK    4  A    between atoms: O_13  and  C_14
REMARK    5  A    between atoms: C_21  and  C_28
REMARK                            x       y       z     vdW  Elec       q    Type
REMARK                         _______ _______ _______ _____ _____    ______ ____
ROOT
ATOM      1  O   UNL     1      32.938 -20.540 -18.473  0.00  0.00    -0.252 OA
ATOM      2  N   UNL     1      35.242 -20.644 -18.860  0.00  0.00    -0.268 N 
ATOM      3  N   UNL     1      34.314 -21.915 -17.168  0.00  0.00    -0.268 N 
ATOM      4  C   UNL     1      34.049 -20.982 -18.200  0.00  0.00    +0.308 C 
ATOM      5  H   UNL     1      36.058 -21.082 -18.526  0.00  0.00    +0.156 HD
ATOM      6  H   UNL     1      35.256 -22.181 -17.064  0.00  0.00    +0.156 HD
ENDROOT
BRANCH   2   7
ATOM      7  C   UNL     1      35.416 -19.751 -19.942  0.00  0.00    +0.052 C 
ATOM      8  C   UNL     1      35.754 -18.000 -22.062  0.00  0.00    +0.145 C 
ATOM      9  C   UNL     1      36.609 -19.059 -20.067  0.00  0.00    +0.018 C 
ATOM     10  C   UNL     1      34.388 -19.585 -20.856  0.00  0.00    +0.018 C 
ATOM     11  C   UNL     1      36.780 -18.178 -21.134  0.00  0.00    +0.039 C 
ATOM     12  C   UNL     1      34.558 -18.704 -21.924  0.00  0.00    +0.039 C 
BRANCH   8  13
ATOM     13  O   UNL     1      35.921 -17.141 -23.105  0.00  0.00    -0.453 OA
BRANCH  13  14
ATOM     14  C   UNL     1      35.193 -15.963 -23.091  0.00  0.00    +0.145 C 
ATOM     15  C   UNL     1      35.183 -15.190 -21.945  0.00  0.00    +0.037 C 
ATOM     16  C   UNL     1      34.494 -15.591 -24.226  0.00  0.00    +0.037 C 
ATOM     17  C   UNL     1      34.449 -14.004 -21.931  0.00  0.00    +0.003 C 
ATOM     18  C   UNL     1      33.760 -14.405 -24.212  0.00  0.00    +0.003 C 
ATOM     19  C   UNL     1      33.737 -13.611 -23.064  0.00  0.00    +0.000 C 
ENDBRANCH  13  14
ENDBRANCH   8  13
ENDBRANCH   2   7
BRANCH   3  20
ATOM     20  C   UNL     1      33.417 -22.507 -16.278  0.00  0.00    +0.052 C 
ATOM     21  C   UNL     1      31.625 -23.688 -14.496  0.00  0.00    +0.031 C 
ATOM     22  C   UNL     1      33.887 -23.098 -15.106  0.00  0.00    +0.015 C 
ATOM     23  C   UNL     1      32.051 -22.505 -16.560  0.00  0.00    +0.015 C 
ATOM     24  C   UNL     1      32.991 -23.689 -14.215  0.00  0.00    +0.004 C 
ATOM     25  C   UNL     1      31.155 -23.096 -15.669  0.00  0.00    +0.004 C 
BRANCH  21  28
ATOM     26  N   UNL     1      29.559 -24.981 -14.021  0.00  0.00    -0.343 N 
ATOM     27  N   UNL     1      30.903 -24.221 -12.267  0.00  0.00    -0.285 NA
ATOM     28  C   UNL     1      30.689 -24.303 -13.568  0.00  0.00    +0.117 C 
ATOM     29  H   UNL     1      28.940 -25.390 -13.375  0.00  0.00    +0.144 HD
ATOM     30  H   UNL     1      29.381 -25.050 -14.986  0.00  0.00    +0.144 HD
ATOM     31  H   UNL     1      30.272 -24.637 -11.636  0.00  0.00    +0.188 HD
ENDBRANCH  21  28
ENDBRANCH   3  20
TORSDOF 5
ENDMDL
MODEL 4
REMARK VINA RESULT:     -11.0      3.831     10.553
REMARK  Name = 444581
REMARK  5 active torsions:
REMARK  status: ('A' for Active; 'I' for Inactive)
REMARK    1  A    between atoms: N_2  and  C_7
REMARK    2  A    between atoms: N_3  and  C_20
REMARK    3  A    between atoms: C_8  and  O_13
REMARK    4  A    between atoms: O_13  and  C_14
REMARK    5  A    between atoms: C_21  and  C_28
REMARK                            x       y       z     vdW  Elec       q    Type
REMARK                         _______ _______ _______ _____ _____    ______ ____
ROOT
ATOM      1  O   UNL     1      32.949 -20.555 -18.449  0.00  0.00    -0.252 OA
ATOM      2  N   UNL     1      35.251 -20.678 -18.848  0.00  0.00    -0.268 N 
ATOM      3  N   UNL     1      34.320 -21.948 -17.158  0.00  0.00    -0.268 N 
ATOM      4  C   UNL     1      34.058 -21.009 -18.184  0.00  0.00    +0.308 C 
ATOM      5  H   UNL     1      36.064 -21.125 -18.521  0.00  0.00    +0.156 HD
ATOM      6  H   UNL     1      35.260 -22.223 -17.060  0.00  0.00    +0.156 HD
ENDROOT
BRANCH   2   7
ATOM      7  C   UNL     1      35.426 -19.781 -19.928  0.00  0.00    +0.052 C 
ATOM      8  C   UNL     1      35.770 -18.027 -22.044  0.00  0.00    +0.145 C 
ATOM      9  C   UNL     1      34.396 -19.605 -20.837  0.00  0.00    +0.018 C 
ATOM     10  C   UNL     1      36.624 -19.098 -20.054  0.00  0.00    +0.018 C 
ATOM     11  C   UNL     1      34.569 -18.722 -21.903  0.00  0.00    +0.039 C 
ATOM     12  C   UNL     1      36.797 -18.214 -21.119  0.00  0.00    +0.039 C 
BRANCH   8  13
ATOM     13  O   UNL     1      35.938 -17.163 -23.083  0.00  0.00    -0.453 OA
BRANCH  13  14
ATOM     14  C   UNL     1      35.213 -15.984 -23.064  0.00  0.00    +0.145 C 
ATOM     15  C   UNL     1      34.509 -15.608 -24.192  0.00  0.00    +0.037 C 
ATOM     16  C   UNL     1      35.212 -15.214 -21.915  0.00  0.00    +0.037 C 
ATOM     17  C   UNL     1      33.778 -14.420 -24.173  0.00  0.00    +0.003 C 
ATOM     18  C   UNL     1      34.481 -14.025 -21.896  0.00  0.00    +0.003 C 
ATOM     19  C   UNL     1      33.764 -13.628 -23.026  0.00  0.00    +0.000 C 
ENDBRANCH  13  14
ENDBRANCH   8  13
ENDBRANCH   2   7
BRANCH   3  20
ATOM     20  C   UNL     1      33.423 -22.536 -16.266  0.00  0.00    +0.052 C 
ATOM     21  C   UNL     1      31.628 -23.714 -14.484  0.00  0.00    +0.031 C 
ATOM     22  C   UNL     1      32.054 -22.502 -16.529  0.00  0.00    +0.015 C 
ATOM     23  C   UNL     1      33.895 -23.161 -15.111  0.00  0.00    +0.015 C 
ATOM     24  C   UNL     1      31.156 -23.090 -15.638  0.00  0.00    +0.004 C 
ATOM     25  C   UNL     1      32.998 -23.749 -14.220  0.00  0.00    +0.004 C 
BRANCH  21  28
ATOM     26  N   UNL     1      29.596 -25.060 -14.007  0.00  0.00    -0.343 N 
ATOM     27  N   UNL     1      30.874 -24.194 -12.253  0.00  0.00    -0.285 NA
ATOM     28  C   UNL     1      30.693 -24.329 -13.554  0.00  0.00    +0.117 C 
ATOM     29  H   UNL     1      28.977 -25.468 -13.361  0.00  0.00    +0.144 HD
ATOM     30  H   UNL     1      29.443 -25.169 -14.973  0.00  0.00    +0.144 HD
ATOM     31  H   UNL     1      30.243 -24.609 -11.622  0.00  0.00    +0.188 HD
ENDBRANCH  21  28
ENDBRANCH   3  20
TORSDOF 5
ENDMDL
MODEL 5
REMARK VINA RESULT:     -10.8      2.261      3.273
REMARK  Name = 444581
REMARK  5 active torsions:
REMARK  status: ('A' for Active; 'I' for Inactive)
REMARK    1  A    between atoms: N_2  and  C_7
REMARK    2  A    between atoms: N_3  and  C_20
REMARK    3  A    between atoms: C_8  and  O_13
REMARK    4  A    between atoms: O_13  and  C_14
REMARK    5  A    between atoms: C_21  and  C_28
REMARK                            x       y       z     vdW  Elec       q    Type
REMARK                         _______ _______ _______ _____ _____    ______ ____
ROOT
ATOM      1  O   UNL     1      33.829 -19.283 -19.656  0.00  0.00    -0.252 OA
ATOM      2  N   UNL     1      35.773 -20.513 -19.235  0.00  0.00    -0.268 N 
ATOM      3  N   UNL     1      35.736 -19.007 -20.987  0.00  0.00    -0.268 N 
ATOM      4  C   UNL     1      34.989 -19.574 -19.926  0.00  0.00    +0.308 C 
ATOM      5  H   UNL     1      36.690 -20.639 -19.571  0.00  0.00    +0.156 HD
ATOM      6  H   UNL     1      36.658 -19.338 -21.085  0.00  0.00    +0.156 HD
ENDROOT
BRANCH   2   7
ATOM      7  C   UNL     1      35.407 -21.298 -18.118  0.00  0.00    +0.052 C 
ATOM      8  C   UNL     1      34.689 -22.835 -15.927  0.00  0.00    +0.145 C 
ATOM      9  C   UNL     1      34.224 -22.018 -18.153  0.00  0.00    +0.018 C 
ATOM     10  C   UNL     1      36.238 -21.331 -17.010  0.00  0.00    +0.018 C 
ATOM     11  C   UNL     1      33.863 -22.792 -17.050  0.00  0.00    +0.039 C 
ATOM     12  C   UNL     1      35.878 -22.105 -15.907  0.00  0.00    +0.039 C 
BRANCH   8  13
ATOM     13  O   UNL     1      34.337 -23.592 -14.852  0.00  0.00    -0.453 OA
BRANCH  13  14
ATOM     14  C   UNL     1      33.049 -23.456 -14.364  0.00  0.00    +0.145 C 
ATOM     15  C   UNL     1      32.295 -22.363 -14.748  0.00  0.00    +0.037 C 
ATOM     16  C   UNL     1      32.550 -24.417 -13.503  0.00  0.00    +0.037 C 
ATOM     17  C   UNL     1      30.997 -22.225 -14.255  0.00  0.00    +0.003 C 
ATOM     18  C   UNL     1      31.252 -24.280 -13.011  0.00  0.00    +0.003 C 
ATOM     19  C   UNL     1      30.475 -23.183 -13.387  0.00  0.00    +0.000 C 
ENDBRANCH  13  14
ENDBRANCH   8  13
ENDBRANCH   2   7
BRANCH   3  20
ATOM     20  C   UNL     1      35.339 -18.042 -21.913  0.00  0.00    +0.052 C 
ATOM     21  C   UNL     1      34.542 -16.113 -23.765  0.00  0.00    +0.031 C 
ATOM     22  C   UNL     1      34.724 -18.429 -23.104  0.00  0.00    +0.015 C 
ATOM     23  C   UNL     1      35.555 -16.690 -21.648  0.00  0.00    +0.015 C 
ATOM     24  C   UNL     1      34.326 -17.465 -24.030  0.00  0.00    +0.004 C 
ATOM     25  C   UNL     1      35.157 -15.725 -22.573  0.00  0.00    +0.004 C 
BRANCH  21  28
ATOM     26  N   UNL     1      34.078 -13.755 -24.390  0.00  0.00    -0.343 N 
ATOM     27  N   UNL     1      33.781 -15.469 -25.951  0.00  0.00    -0.285 NA
ATOM     28  C   UNL     1      34.126 -15.107 -24.729  0.00  0.00    +0.117 C 
ATOM     29  H   UNL     1      33.795 -13.091 -25.059  0.00  0.00    +0.144 HD
ATOM     30  H   UNL     1      34.328 -13.466 -23.484  0.00  0.00    +0.144 HD
ATOM     31  H   UNL     1      33.500 -14.790 -26.606  0.00  0.00    +0.188 HD
ENDBRANCH  21  28
ENDBRANCH   3  20
TORSDOF 5
ENDMDL
MODEL 6
REMARK VINA RESULT:     -10.7      4.953      7.985
REMARK  Name = 444581
REMARK  5 active torsions:
REMARK  status: ('A' for Active; 'I' for Inactive)
REMARK    1  A    between atoms: N_2  and  C_7
REMARK    2  A    between atoms: N_3  and  C_20
REMARK    3  A    between atoms: C_8  and  O_13
REMARK    4  A    between atoms: O_13  and  C_14
REMARK    5  A    between atoms: C_21  and  C_28
REMARK                            x       y       z     vdW  Elec       q    Type
REMARK                         _______ _______ _______ _____ _____    ______ ____
ROOT
ATOM      1  O   UNL     1      34.699 -12.928 -21.110  0.00  0.00    -0.252 OA
ATOM      2  N   UNL     1      34.767 -14.395 -22.931  0.00  0.00    -0.268 N 
ATOM      3  N   UNL     1      34.197 -12.182 -23.272  0.00  0.00    -0.268 N 
ATOM      4  C   UNL     1      34.569 -13.150 -22.309  0.00  0.00    +0.308 C 
ATOM      5  H   UNL     1      34.624 -14.417 -23.904  0.00  0.00    +0.156 HD
ATOM      6  H   UNL     1      34.132 -12.504 -24.200  0.00  0.00    +0.156 HD
ENDROOT
BRANCH   2   7
ATOM      7  C   UNL     1      35.144 -15.618 -22.329  0.00  0.00    +0.052 C 
ATOM      8  C   UNL     1      35.885 -18.013 -21.152  0.00  0.00    +0.145 C 
ATOM      9  C   UNL     1      35.267 -15.686 -20.952  0.00  0.00    +0.018 C 
ATOM     10  C   UNL     1      35.383 -16.722 -23.131  0.00  0.00    +0.018 C 
ATOM     11  C   UNL     1      35.641 -16.892 -20.359  0.00  0.00    +0.039 C 
ATOM     12  C   UNL     1      35.756 -17.928 -22.539  0.00  0.00    +0.039 C 
BRANCH   8  13
ATOM     13  O   UNL     1      36.248 -19.191 -20.573  0.00  0.00    -0.453 OA
BRANCH  13  14
ATOM     14  C   UNL     1      35.285 -19.876 -19.852  0.00  0.00    +0.145 C 
ATOM     15  C   UNL     1      33.949 -19.646 -20.122  0.00  0.00    +0.037 C 
ATOM     16  C   UNL     1      35.687 -20.774 -18.878  0.00  0.00    +0.037 C 
ATOM     17  C   UNL     1      32.980 -20.337 -19.394  0.00  0.00    +0.003 C 
ATOM     18  C   UNL     1      34.717 -21.464 -18.151  0.00  0.00    +0.003 C 
ATOM     19  C   UNL     1      33.363 -21.245 -18.409  0.00  0.00    +0.000 C 
ENDBRANCH  13  14
ENDBRANCH   8  13
ENDBRANCH   2   7
BRANCH   3  20
ATOM     20  C   UNL     1      33.909 -10.830 -23.082  0.00  0.00    +0.052 C 
ATOM     21  C   UNL     1      33.334  -8.127 -22.698  0.00  0.00    +0.031 C 
ATOM     22  C   UNL     1      32.801 -10.453 -22.323  0.00  0.00    +0.015 C 
ATOM     23  C   UNL     1      34.730  -9.855 -23.648  0.00  0.00    +0.015 C 
ATOM     24  C   UNL     1      32.513  -9.102 -22.131  0.00  0.00    +0.004 C 
ATOM     25  C   UNL     1      34.443  -8.504 -23.457  0.00  0.00    +0.004 C 
BRANCH  21  28
ATOM     26  N   UNL     1      32.918  -6.176 -21.218  0.00  0.00    -0.343 N 
ATOM     27  N   UNL     1      32.865  -5.926 -23.541  0.00  0.00    -0.285 NA
ATOM     28  C   UNL     1      33.035  -6.718 -22.498  0.00  0.00    +0.117 C 
ATOM     29  H   UNL     1      32.716  -5.220 -21.106  0.00  0.00    +0.144 HD
ATOM     30  H   UNL     1      33.038  -6.751 -20.429  0.00  0.00    +0.144 HD
ATOM     31  H   UNL     1      32.662  -4.972 -23.409  0.00  0.00    +0.188 HD
ENDBRANCH  21  28
ENDBRANCH   3  20
TORSDOF 5
ENDMDL
MODEL 7
REMARK VINA RESULT:     -10.6      6.915     10.584
REMARK  Name = 444581
REMARK  5 active torsions:
REMARK  status: ('A' for Active; 'I' for Inactive)
REMARK    1  A    between atoms: N_2  and  C_7
REMARK    2  A    between atoms: N_3  and  C_20
REMARK    3  A    between atoms: C_8  and  O_13
REMARK    4  A    between atoms: O_13  and  C_14
REMARK    5  A    between atoms: C_21  and  C_28
REMARK                            x       y       z     vdW  Elec       q    Type
REMARK                         _______ _______ _______ _____ _____    ______ ____
ROOT
ATOM      1  O   UNL     1      34.217 -10.242 -22.902  0.00  0.00    -0.252 OA
ATOM      2  N   UNL     1      32.858 -11.906 -21.978  0.00  0.00    -0.268 N 
ATOM      3  N   UNL     1      32.217  -9.693 -21.814  0.00  0.00    -0.268 N 
ATOM      4  C   UNL     1      33.207 -10.583 -22.296  0.00  0.00    +0.308 C 
ATOM      5  H   UNL     1      32.013 -12.022 -21.486  0.00  0.00    +0.156 HD
ATOM      6  H   UNL     1      31.460 -10.110 -21.345  0.00  0.00    +0.156 HD
ENDROOT
BRANCH   2   7
ATOM      7  C   UNL     1      33.572 -13.090 -22.277  0.00  0.00    +0.052 C 
ATOM      8  C   UNL     1      34.971 -15.408 -22.864  0.00  0.00    +0.145 C 
ATOM      9  C   UNL     1      34.297 -13.715 -21.277  0.00  0.00    +0.018 C 
ATOM     10  C   UNL     1      33.531 -13.600 -23.564  0.00  0.00    +0.018 C 
ATOM     11  C   UNL     1      35.002 -14.882 -21.571  0.00  0.00    +0.039 C 
ATOM     12  C   UNL     1      34.235 -14.767 -23.860  0.00  0.00    +0.039 C 
BRANCH   8  13
ATOM     13  O   UNL     1      35.657 -16.548 -23.151  0.00  0.00    -0.453 OA
BRANCH  13  14
ATOM     14  C   UNL     1      35.709 -17.531 -22.177  0.00  0.00    +0.145 C 
ATOM     15  C   UNL     1      34.609 -18.346 -21.983  0.00  0.00    +0.037 C 
ATOM     16  C   UNL     1      36.860 -17.671 -21.423  0.00  0.00    +0.037 C 
ATOM     17  C   UNL     1      34.661 -19.336 -21.002  0.00  0.00    +0.003 C 
ATOM     18  C   UNL     1      36.912 -18.661 -20.442  0.00  0.00    +0.003 C 
ATOM     19  C   UNL     1      35.812 -19.494 -20.230  0.00  0.00    +0.000 C 
ENDBRANCH  13  14
ENDBRANCH   8  13
ENDBRANCH   2   7
BRANCH   3  20
ATOM     20  C   UNL     1      32.174  -8.302 -21.915  0.00  0.00    +0.052 C 
ATOM     21  C   UNL     1      32.083  -5.521 -22.117  0.00  0.00    +0.031 C 
ATOM     22  C   UNL     1      31.684  -7.702 -23.075  0.00  0.00    +0.015 C 
ATOM     23  C   UNL     1      32.618  -7.511 -20.856  0.00  0.00    +0.015 C 
ATOM     24  C   UNL     1      31.639  -6.311 -23.177  0.00  0.00    +0.004 C 
ATOM     25  C   UNL     1      32.573  -6.121 -20.956  0.00  0.00    +0.004 C 
BRANCH  21  28
ATOM     26  N   UNL     1      32.420  -3.255 -21.158  0.00  0.00    -0.343 N 
ATOM     27  N   UNL     1      31.620  -3.504 -23.340  0.00  0.00    -0.285 NA
ATOM     28  C   UNL     1      32.036  -4.071 -22.222  0.00  0.00    +0.117 C 
ATOM     29  H   UNL     1      32.381  -2.276 -21.251  0.00  0.00    +0.144 HD
ATOM     30  H   UNL     1      32.730  -3.658 -20.316  0.00  0.00    +0.144 HD
ATOM     31  H   UNL     1      31.587  -2.523 -23.413  0.00  0.00    +0.188 HD
ENDBRANCH  21  28
ENDBRANCH   3  20
TORSDOF 5
ENDMDL
MODEL 8
REMARK VINA RESULT:     -10.3      5.952      9.120
REMARK  Name = 444581
REMARK  5 active torsions:
REMARK  status: ('A' for Active; 'I' for Inactive)
REMARK    1  A    between atoms: N_2  and  C_7
REMARK    2  A    between atoms: N_3  and  C_20
REMARK    3  A    between atoms: C_8  and  O_13
REMARK    4  A    between atoms: O_13  and  C_14
REMARK    5  A    between atoms: C_21  and  C_28
REMARK                            x       y       z     vdW  Elec       q    Type
REMARK                         _______ _______ _______ _____ _____    ______ ____
ROOT
ATOM      1  O   UNL     1      34.670 -11.517 -22.950  0.00  0.00    -0.252 OA
ATOM      2  N   UNL     1      33.462 -12.857 -21.462  0.00  0.00    -0.268 N 
ATOM      3  N   UNL     1      32.765 -10.692 -21.865  0.00  0.00    -0.268 N 
ATOM      4  C   UNL     1      33.734 -11.677 -22.174  0.00  0.00    +0.308 C 
ATOM      5  H   UNL     1      32.673 -12.834 -20.874  0.00  0.00    +0.156 HD
ATOM      6  H   UNL     1      32.070 -10.963 -21.224  0.00  0.00    +0.156 HD
ENDROOT
BRANCH   2   7
ATOM      7  C   UNL     1      34.184 -14.073 -21.484  0.00  0.00    +0.052 C 
ATOM      8  C   UNL     1      35.600 -16.454 -21.529  0.00  0.00    +0.145 C 
ATOM      9  C   UNL     1      34.580 -14.649 -20.288  0.00  0.00    +0.018 C 
ATOM     10  C   UNL     1      34.481 -14.663 -22.701  0.00  0.00    +0.018 C 
ATOM     11  C   UNL     1      35.293 -15.848 -20.310  0.00  0.00    +0.039 C 
ATOM     12  C   UNL     1      35.194 -15.862 -22.725  0.00  0.00    +0.039 C 
BRANCH   8  13
ATOM     13  O   UNL     1      36.294 -17.625 -21.550  0.00  0.00    -0.453 OA
BRANCH  13  14
ATOM     14  C   UNL     1      35.868 -18.641 -20.712  0.00  0.00    +0.145 C 
ATOM     15  C   UNL     1      36.797 -19.303 -19.931  0.00  0.00    +0.037 C 
ATOM     16  C   UNL     1      34.524 -18.966 -20.678  0.00  0.00    +0.037 C 
ATOM     17  C   UNL     1      36.368 -20.327 -19.086  0.00  0.00    +0.003 C 
ATOM     18  C   UNL     1      34.095 -19.990 -19.834  0.00  0.00    +0.003 C 
ATOM     19  C   UNL     1      35.017 -20.672 -19.037  0.00  0.00    +0.000 C 
ENDBRANCH  13  14
ENDBRANCH   8  13
ENDBRANCH   2   7
BRANCH   3  20
ATOM     20  C   UNL     1      32.664  -9.387 -22.350  0.00  0.00    +0.052 C 
ATOM     21  C   UNL     1      32.463  -6.778 -23.317  0.00  0.00    +0.031 C 
ATOM     22  C   UNL     1      31.462  -8.691 -22.234  0.00  0.00    +0.015 C 
ATOM     23  C   UNL     1      33.767  -8.779 -22.950  0.00  0.00    +0.015 C 
ATOM     24  C   UNL     1      31.361  -7.387 -22.718  0.00  0.00    +0.004 C 
ATOM     25  C   UNL     1      33.667  -7.475 -23.434  0.00  0.00    +0.004 C 
BRANCH  21  28
ATOM     26  N   UNL     1      31.530  -4.480 -23.209  0.00  0.00    -0.343 N 
ATOM     27  N   UNL     1      33.056  -5.054 -24.882  0.00  0.00    -0.285 NA
ATOM     28  C   UNL     1      32.359  -5.418 -23.821  0.00  0.00    +0.117 C 
ATOM     29  H   UNL     1      31.475  -3.565 -23.566  0.00  0.00    +0.144 HD
ATOM     30  H   UNL     1      31.000  -4.733 -22.419  0.00  0.00    +0.144 HD
ATOM     31  H   UNL     1      32.988  -4.134 -25.225  0.00  0.00    +0.188 HD
ENDBRANCH  21  28
ENDBRANCH   3  20
TORSDOF 5
ENDMDL
MODEL 9
REMARK VINA RESULT:     -10.3      6.602     10.627
REMARK  Name = 444581
REMARK  5 active torsions:
REMARK  status: ('A' for Active; 'I' for Inactive)
REMARK    1  A    between atoms: N_2  and  C_7
REMARK    2  A    between atoms: N_3  and  C_20
REMARK    3  A    between atoms: C_8  and  O_13
REMARK    4  A    between atoms: O_13  and  C_14
REMARK    5  A    between atoms: C_21  and  C_28
REMARK                            x       y       z     vdW  Elec       q    Type
REMARK                         _______ _______ _______ _____ _____    ______ ____
ROOT
ATOM      1  O   UNL     1      32.940 -11.261 -21.714  0.00  0.00    -0.252 OA
ATOM      2  N   UNL     1      34.024 -11.666 -23.747  0.00  0.00    -0.268 N 
ATOM      3  N   UNL     1      33.467  -9.500 -23.167  0.00  0.00    -0.268 N 
ATOM      4  C   UNL     1      33.426 -10.857 -22.766  0.00  0.00    +0.308 C 
ATOM      5  H   UNL     1      34.371 -11.196 -24.539  0.00  0.00    +0.156 HD
ATOM      6  H   UNL     1      33.890  -9.324 -24.038  0.00  0.00    +0.156 HD
ENDROOT
BRANCH   2   7
ATOM      7  C   UNL     1      34.188 -13.070 -23.735  0.00  0.00    +0.052 C 
ATOM      8  C   UNL     1      34.508 -15.822 -23.712  0.00  0.00    +0.145 C 
ATOM      9  C   UNL     1      33.729 -13.815 -24.809  0.00  0.00    +0.018 C 
ATOM     10  C   UNL     1      34.804 -13.673 -22.651  0.00  0.00    +0.018 C 
ATOM     11  C   UNL     1      33.890 -15.201 -24.798  0.00  0.00    +0.039 C 
ATOM     12  C   UNL     1      34.966 -15.058 -22.639  0.00  0.00    +0.039 C 
BRANCH   8  13
ATOM     13  O   UNL     1      34.666 -17.174 -23.702  0.00  0.00    -0.453 OA
BRANCH  13  14
ATOM     14  C   UNL     1      35.177 -17.754 -22.553  0.00  0.00    +0.145 C 
ATOM     15  C   UNL     1      36.490 -17.507 -22.200  0.00  0.00    +0.037 C 
ATOM     16  C   UNL     1      34.358 -18.565 -21.788  0.00  0.00    +0.037 C 
ATOM     17  C   UNL     1      37.005 -18.091 -21.043  0.00  0.00    +0.003 C 
ATOM     18  C   UNL     1      34.873 -19.149 -20.630  0.00  0.00    +0.003 C 
ATOM     19  C   UNL     1      36.197 -18.912 -20.258  0.00  0.00    +0.000 C 
ENDBRANCH  13  14
ENDBRANCH   8  13
ENDBRANCH   2   7
BRANCH   3  20
ATOM     20  C   UNL     1      32.987  -8.378 -22.491  0.00  0.00    +0.052 C 
ATOM     21  C   UNL     1      32.029  -6.132 -21.140  0.00  0.00    +0.031 C 
ATOM     22  C   UNL     1      33.782  -7.747 -21.534  0.00  0.00    +0.015 C 
ATOM     23  C   UNL     1      31.713  -7.885 -22.773  0.00  0.00    +0.015 C 
ATOM     24  C   UNL     1      33.303  -6.625 -20.858  0.00  0.00    +0.004 C 
ATOM     25  C   UNL     1      31.234  -6.763 -22.098  0.00  0.00    +0.004 C 
BRANCH  21  28
ATOM     26  N   UNL     1      30.282  -4.415 -20.735  0.00  0.00    -0.343 N 
ATOM     27  N   UNL     1      32.264  -4.392 -19.499  0.00  0.00    -0.285 NA
ATOM     28  C   UNL     1      31.529  -4.961 -20.437  0.00  0.00    +0.117 C 
ATOM     29  H   UNL     1      29.963  -3.623 -20.246  0.00  0.00    +0.144 HD
ATOM     30  H   UNL     1      29.720  -4.823 -21.433  0.00  0.00    +0.144 HD
ATOM     31  H   UNL     1      31.929  -3.600 -19.022  0.00  0.00    +0.188 HD
ENDBRANCH  21  28
ENDBRANCH   3  20
TORSDOF 5
ENDMDL
