MODEL 1
REMARK VINA RESULT:     -12.4      0.000      0.000
REMARK  Name = 657077
REMARK  7 active torsions:
REMARK  status: ('A' for Active; 'I' for Inactive)
REMARK    1  A    between atoms: C_3  and  C_23
REMARK    2  A    between atoms: C_8  and  C_10
REMARK    3  A    between atoms: C_12  and  C_15
REMARK    4  A    between atoms: C_15  and  C_16
REMARK    5  A    between atoms: C_16  and  C_17
REMARK    6  A    between atoms: C_26  and  C_29
REMARK    7  A    between atoms: C_29  and  N_30
REMARK                            x       y       z     vdW  Elec       q    Type
REMARK                         _______ _______ _______ _____ _____    ______ ____
ROOT
ATOM      1  O   UNL     1      33.202 -13.601 -23.832  0.00  0.00    -0.270 OA
ATOM      2  N   UNL     1      34.630 -14.387 -22.155  0.00  0.00    -0.276 N 
ATOM      3  C   UNL     1      35.779 -16.788 -21.019  0.00  0.00    +0.026 C 
ATOM      4  C   UNL     1      35.046 -15.750 -20.148  0.00  0.00    +0.026 C 
ATOM      5  C   UNL     1      35.259 -16.743 -22.469  0.00  0.00    +0.026 C 
ATOM      6  C   UNL     1      35.127 -14.357 -20.774  0.00  0.00    +0.094 C 
ATOM      7  C   UNL     1      35.329 -15.325 -23.035  0.00  0.00    +0.094 C 
ATOM      8  C   UNL     1      33.601 -13.594 -22.668  0.00  0.00    +0.251 C 
ENDROOT
BRANCH   8  10
ATOM      9  N   UNL     1      31.874 -12.301 -19.608  0.00  0.00    -0.242 NA
ATOM     10  C   UNL     1      32.914 -12.675 -21.753  0.00  0.00    +0.072 C 
ATOM     11  C   UNL     1      32.654 -11.364 -22.124  0.00  0.00    +0.003 C 
ATOM     12  C   UNL     1      32.001 -10.516 -21.235  0.00  0.00    -0.003 C 
ATOM     13  C   UNL     1      32.510 -13.095 -20.500  0.00  0.00    +0.103 C 
ATOM     14  C   UNL     1      31.636 -11.029 -20.000  0.00  0.00    +0.095 C 
BRANCH  12  15
ATOM     15  C   UNL     1      31.707  -9.104 -21.597  0.00  0.00    +0.033 C 
BRANCH  15  16
ATOM     16  C   UNL     1      32.938  -8.174 -21.565  0.00  0.00    +0.031 C 
BRANCH  16  17
ATOM     17  C   UNL     1      32.711  -6.919 -20.756  0.00  0.00    -0.022 C 
ATOM     18  C   UNL     1      32.455  -5.725 -21.411  0.00  0.00    -0.004 C 
ATOM     19  C   UNL     1      32.764  -6.985 -19.373  0.00  0.00    -0.004 C 
ATOM     20  C   UNL     1      32.246  -4.567 -20.664  0.00  0.00    -0.000 C 
ATOM     21  C   UNL     1      32.554  -5.826 -18.625  0.00  0.00    -0.000 C 
ATOM     22  C   UNL     1      32.295  -4.616 -19.271  0.00  0.00    -0.000 C 
ENDBRANCH  16  17
ENDBRANCH  15  16
ENDBRANCH  12  15
ENDBRANCH   8  10
BRANCH   3  23
ATOM     23  C   UNL     1      35.700 -18.183 -20.429  0.00  0.00    -0.023 C 
ATOM     24  C   UNL     1      34.458 -18.788 -20.242  0.00  0.00    -0.011 C 
ATOM     25  C   UNL     1      36.868 -18.857 -20.078  0.00  0.00    -0.004 C 
ATOM     26  C   UNL     1      34.385 -20.071 -19.701  0.00  0.00    -0.045 C 
ATOM     27  C   UNL     1      36.794 -20.140 -19.536  0.00  0.00    -0.001 C 
ATOM     28  C   UNL     1      35.553 -20.747 -19.348  0.00  0.00    -0.006 C 
BRANCH  26  29
ATOM     29  C   UNL     1      33.057 -20.722 -19.500  0.00  0.00    -0.059 C 
BRANCH  29  30
ATOM     30  N   UNL     1      33.050 -21.628 -18.349  0.00  0.00    +0.383 N 
ATOM     31  H   UNL     1      33.369 -22.551 -18.642  0.00  0.00    -0.089 HD
ATOM     32  H   UNL     1      32.103 -21.697 -17.977  0.00  0.00    -0.089 HD
ATOM     33  H   UNL     1      33.674 -21.266 -17.628  0.00  0.00    -0.089 HD
ENDBRANCH  29  30
ENDBRANCH  26  29
ENDBRANCH   3  23
TORSDOF 7
ENDMDL
MODEL 2
REMARK VINA RESULT:     -12.4      1.622      2.466
REMARK  Name = 657077
REMARK  7 active torsions:
REMARK  status: ('A' for Active; 'I' for Inactive)
REMARK    1  A    between atoms: C_3  and  C_23
REMARK    2  A    between atoms: C_8  and  C_10
REMARK    3  A    between atoms: C_12  and  C_15
REMARK    4  A    between atoms: C_15  and  C_16
REMARK    5  A    between atoms: C_16  and  C_17
REMARK    6  A    between atoms: C_26  and  C_29
REMARK    7  A    between atoms: C_29  and  N_30
REMARK                            x       y       z     vdW  Elec       q    Type
REMARK                         _______ _______ _______ _____ _____    ______ ____
ROOT
ATOM      1  O   UNL     1      33.085 -13.432 -23.633  0.00  0.00    -0.270 OA
ATOM      2  N   UNL     1      34.560 -14.265 -22.021  0.00  0.00    -0.276 N 
ATOM      3  C   UNL     1      35.739 -16.697 -20.986  0.00  0.00    +0.026 C 
ATOM      4  C   UNL     1      35.033 -15.682 -20.065  0.00  0.00    +0.026 C 
ATOM      5  C   UNL     1      35.176 -16.612 -22.418  0.00  0.00    +0.026 C 
ATOM      6  C   UNL     1      35.097 -14.273 -20.655  0.00  0.00    +0.094 C 
ATOM      7  C   UNL     1      35.231 -15.179 -22.947  0.00  0.00    +0.094 C 
ATOM      8  C   UNL     1      33.518 -13.457 -22.481  0.00  0.00    +0.251 C 
ENDROOT
BRANCH   8  10
ATOM      9  N   UNL     1      31.711 -12.288 -19.418  0.00  0.00    -0.242 NA
ATOM     10  C   UNL     1      32.860 -12.563 -21.522  0.00  0.00    +0.072 C 
ATOM     11  C   UNL     1      32.755 -11.203 -21.773  0.00  0.00    +0.003 C 
ATOM     12  C   UNL     1      32.126 -10.380 -20.845  0.00  0.00    -0.003 C 
ATOM     13  C   UNL     1      32.329 -13.055 -20.345  0.00  0.00    +0.103 C 
ATOM     14  C   UNL     1      31.626 -10.967 -19.693  0.00  0.00    +0.095 C 
BRANCH  12  15
ATOM     15  C   UNL     1      31.995  -8.918 -21.079  0.00  0.00    +0.033 C 
BRANCH  15  16
ATOM     16  C   UNL     1      32.002  -8.514 -22.569  0.00  0.00    +0.031 C 
BRANCH  16  17
ATOM     17  C   UNL     1      33.387  -8.496 -23.171  0.00  0.00    -0.022 C 
ATOM     18  C   UNL     1      33.693  -9.377 -24.196  0.00  0.00    -0.004 C 
ATOM     19  C   UNL     1      34.325  -7.598 -22.689  0.00  0.00    -0.004 C 
ATOM     20  C   UNL     1      34.972  -9.360 -24.752  0.00  0.00    -0.000 C 
ATOM     21  C   UNL     1      35.604  -7.580 -23.246  0.00  0.00    -0.000 C 
ATOM     22  C   UNL     1      35.927  -8.462 -24.278  0.00  0.00    -0.000 C 
ENDBRANCH  16  17
ENDBRANCH  15  16
ENDBRANCH  12  15
ENDBRANCH   8  10
BRANCH   3  23
ATOM     23  C   UNL     1      35.674 -18.108 -20.432  0.00  0.00    -0.023 C 
ATOM     24  C   UNL     1      34.439 -18.731 -20.262  0.00  0.00    -0.011 C 
ATOM     25  C   UNL     1      36.850 -18.777 -20.097  0.00  0.00    -0.004 C 
ATOM     26  C   UNL     1      34.380 -20.028 -19.754  0.00  0.00    -0.045 C 
ATOM     27  C   UNL     1      36.790 -20.075 -19.589  0.00  0.00    -0.001 C 
ATOM     28  C   UNL     1      35.555 -20.700 -19.418  0.00  0.00    -0.006 C 
BRANCH  26  29
ATOM     29  C   UNL     1      33.059 -20.699 -19.571  0.00  0.00    -0.059 C 
BRANCH  29  30
ATOM     30  N   UNL     1      33.049 -21.602 -18.419  0.00  0.00    +0.383 N 
ATOM     31  H   UNL     1      33.984 -21.983 -18.277  0.00  0.00    -0.089 HD
ATOM     32  H   UNL     1      32.393 -22.364 -18.590  0.00  0.00    -0.089 HD
ATOM     33  H   UNL     1      32.762 -21.087 -17.586  0.00  0.00    -0.089 HD
ENDBRANCH  29  30
ENDBRANCH  26  29
ENDBRANCH   3  23
TORSDOF 7
ENDMDL
MODEL 3
REMARK VINA RESULT:     -12.1      1.506      2.197
REMARK  Name = 657077
REMARK  7 active torsions:
REMARK  status: ('A' for Active; 'I' for Inactive)
REMARK    1  A    between atoms: C_3  and  C_23
REMARK    2  A    between atoms: C_8  and  C_10
REMARK    3  A    between atoms: C_12  and  C_15
REMARK    4  A    between atoms: C_15  and  C_16
REMARK    5  A    between atoms: C_16  and  C_17
REMARK    6  A    between atoms: C_26  and  C_29
REMARK    7  A    between atoms: C_29  and  N_30
REMARK                            x       y       z     vdW  Elec       q    Type
REMARK                         _______ _______ _______ _____ _____    ______ ____
ROOT
ATOM      1  O   UNL     1      32.941 -14.769 -25.108  0.00  0.00    -0.270 OA
ATOM      2  N   UNL     1      34.694 -15.367 -23.680  0.00  0.00    -0.276 N 
ATOM      3  C   UNL     1      35.732 -17.522 -22.052  0.00  0.00    +0.026 C 
ATOM      4  C   UNL     1      35.523 -16.105 -21.484  0.00  0.00    +0.026 C 
ATOM      5  C   UNL     1      34.769 -17.782 -23.227  0.00  0.00    +0.026 C 
ATOM      6  C   UNL     1      35.624 -15.054 -22.589  0.00  0.00    +0.094 C 
ATOM      7  C   UNL     1      34.885 -16.686 -24.286  0.00  0.00    +0.094 C 
ATOM      8  C   UNL     1      33.703 -14.516 -24.176  0.00  0.00    +0.251 C 
ENDROOT
BRANCH   8  10
ATOM      9  N   UNL     1      32.743 -11.925 -21.650  0.00  0.00    -0.242 NA
ATOM     10  C   UNL     1      33.532 -13.207 -23.535  0.00  0.00    +0.072 C 
ATOM     11  C   UNL     1      33.969 -12.047 -24.159  0.00  0.00    +0.003 C 
ATOM     12  C   UNL     1      33.793 -10.821 -23.527  0.00  0.00    -0.003 C 
ATOM     13  C   UNL     1      32.932 -13.099 -22.296  0.00  0.00    +0.103 C 
ATOM     14  C   UNL     1      33.180 -10.815 -22.284  0.00  0.00    +0.095 C 
BRANCH  12  15
ATOM     15  C   UNL     1      34.249  -9.557 -24.164  0.00  0.00    +0.033 C 
BRANCH  15  16
ATOM     16  C   UNL     1      34.877  -8.546 -23.182  0.00  0.00    +0.031 C 
BRANCH  16  17
ATOM     17  C   UNL     1      33.951  -7.406 -22.831  0.00  0.00    -0.022 C 
ATOM     18  C   UNL     1      33.625  -7.179 -21.503  0.00  0.00    -0.004 C 
ATOM     19  C   UNL     1      33.444  -6.608 -23.844  0.00  0.00    -0.004 C 
ATOM     20  C   UNL     1      32.769  -6.127 -21.180  0.00  0.00    -0.000 C 
ATOM     21  C   UNL     1      32.589  -5.554 -23.519  0.00  0.00    -0.000 C 
ATOM     22  C   UNL     1      32.251  -5.314 -22.187  0.00  0.00    -0.000 C 
ENDBRANCH  16  17
ENDBRANCH  15  16
ENDBRANCH  12  15
ENDBRANCH   8  10
BRANCH   3  23
ATOM     23  C   UNL     1      35.619 -18.588 -20.978  0.00  0.00    -0.023 C 
ATOM     24  C   UNL     1      34.365 -19.058 -20.596  0.00  0.00    -0.011 C 
ATOM     25  C   UNL     1      36.771 -19.094 -20.378  0.00  0.00    -0.004 C 
ATOM     26  C   UNL     1      34.261 -20.038 -19.609  0.00  0.00    -0.045 C 
ATOM     27  C   UNL     1      36.667 -20.074 -19.390  0.00  0.00    -0.001 C 
ATOM     28  C   UNL     1      35.412 -20.546 -19.007  0.00  0.00    -0.006 C 
BRANCH  26  29
ATOM     29  C   UNL     1      32.919 -20.545 -19.198  0.00  0.00    -0.059 C 
BRANCH  29  30
ATOM     30  N   UNL     1      33.010 -21.731 -18.344  0.00  0.00    +0.383 N 
ATOM     31  H   UNL     1      32.234 -22.360 -18.552  0.00  0.00    -0.089 HD
ATOM     32  H   UNL     1      32.966 -21.449 -17.365  0.00  0.00    -0.089 HD
ATOM     33  H   UNL     1      33.892 -22.211 -18.522  0.00  0.00    -0.089 HD
ENDBRANCH  29  30
ENDBRANCH  26  29
ENDBRANCH   3  23
TORSDOF 7
ENDMDL
MODEL 4
REMARK VINA RESULT:     -12.1      1.747      2.844
REMARK  Name = 657077
REMARK  7 active torsions:
REMARK  status: ('A' for Active; 'I' for Inactive)
REMARK    1  A    between atoms: C_3  and  C_23
REMARK    2  A    between atoms: C_8  and  C_10
REMARK    3  A    between atoms: C_12  and  C_15
REMARK    4  A    between atoms: C_15  and  C_16
REMARK    5  A    between atoms: C_16  and  C_17
REMARK    6  A    between atoms: C_26  and  C_29
REMARK    7  A    between atoms: C_29  and  N_30
REMARK                            x       y       z     vdW  Elec       q    Type
REMARK                         _______ _______ _______ _____ _____    ______ ____
ROOT
ATOM      1  O   UNL     1      33.275 -15.165 -25.164  0.00  0.00    -0.270 OA
ATOM      2  N   UNL     1      34.774 -15.863 -23.510  0.00  0.00    -0.276 N 
ATOM      3  C   UNL     1      35.402 -18.042 -21.712  0.00  0.00    +0.026 C 
ATOM      4  C   UNL     1      35.252 -16.592 -21.209  0.00  0.00    +0.026 C 
ATOM      5  C   UNL     1      34.574 -18.258 -22.994  0.00  0.00    +0.026 C 
ATOM      6  C   UNL     1      35.585 -15.593 -22.316  0.00  0.00    +0.094 C 
ATOM      7  C   UNL     1      34.920 -17.213 -24.055  0.00  0.00    +0.094 C 
ATOM      8  C   UNL     1      33.934 -14.947 -24.148  0.00  0.00    +0.251 C 
ENDROOT
BRANCH   8  10
ATOM      9  N   UNL     1      34.225 -11.237 -23.735  0.00  0.00    -0.242 NA
ATOM     10  C   UNL     1      33.802 -13.606 -23.566  0.00  0.00    +0.072 C 
ATOM     11  C   UNL     1      33.163 -13.420 -22.349  0.00  0.00    +0.003 C 
ATOM     12  C   UNL     1      33.053 -12.138 -21.821  0.00  0.00    -0.003 C 
ATOM     13  C   UNL     1      34.312 -12.499 -24.215  0.00  0.00    +0.103 C 
ATOM     14  C   UNL     1      33.596 -11.090 -22.548  0.00  0.00    +0.095 C 
BRANCH  12  15
ATOM     15  C   UNL     1      32.373 -11.898 -20.521  0.00  0.00    +0.033 C 
BRANCH  15  16
ATOM     16  C   UNL     1      31.224 -10.871 -20.588  0.00  0.00    +0.031 C 
BRANCH  16  17
ATOM     17  C   UNL     1      31.687  -9.449 -20.380  0.00  0.00    -0.022 C 
ATOM     18  C   UNL     1      32.099  -9.046 -19.119  0.00  0.00    -0.004 C 
ATOM     19  C   UNL     1      31.692  -8.573 -21.453  0.00  0.00    -0.004 C 
ATOM     20  C   UNL     1      32.526  -7.733 -18.927  0.00  0.00    -0.000 C 
ATOM     21  C   UNL     1      32.121  -7.259 -21.261  0.00  0.00    -0.000 C 
ATOM     22  C   UNL     1      32.537  -6.839 -19.997  0.00  0.00    -0.000 C 
ENDBRANCH  16  17
ENDBRANCH  15  16
ENDBRANCH  12  15
ENDBRANCH   8  10
BRANCH   3  23
ATOM     23  C   UNL     1      35.060 -19.055 -20.636  0.00  0.00    -0.023 C 
ATOM     24  C   UNL     1      36.070 -19.589 -19.839  0.00  0.00    -0.011 C 
ATOM     25  C   UNL     1      33.736 -19.448 -20.448  0.00  0.00    -0.004 C 
ATOM     26  C   UNL     1      35.756 -20.519 -18.849  0.00  0.00    -0.045 C 
ATOM     27  C   UNL     1      33.422 -20.379 -19.458  0.00  0.00    -0.001 C 
ATOM     28  C   UNL     1      34.431 -20.915 -18.658  0.00  0.00    -0.006 C 
BRANCH  26  29
ATOM     29  C   UNL     1      36.835 -21.092 -17.992  0.00  0.00    -0.059 C 
BRANCH  29  30
ATOM     30  N   UNL     1      37.191 -20.208 -16.881  0.00  0.00    +0.383 N 
ATOM     31  H   UNL     1      36.552 -19.414 -16.860  0.00  0.00    -0.089 HD
ATOM     32  H   UNL     1      38.146 -19.874 -17.006  0.00  0.00    -0.089 HD
ATOM     33  H   UNL     1      37.123 -20.723 -16.003  0.00  0.00    -0.089 HD
ENDBRANCH  29  30
ENDBRANCH  26  29
ENDBRANCH   3  23
TORSDOF 7
ENDMDL
MODEL 5
REMARK VINA RESULT:     -11.8      5.345     12.456
REMARK  Name = 657077
REMARK  7 active torsions:
REMARK  status: ('A' for Active; 'I' for Inactive)
REMARK    1  A    between atoms: C_3  and  C_23
REMARK    2  A    between atoms: C_8  and  C_10
REMARK    3  A    between atoms: C_12  and  C_15
REMARK    4  A    between atoms: C_15  and  C_16
REMARK    5  A    between atoms: C_16  and  C_17
REMARK    6  A    between atoms: C_26  and  C_29
REMARK    7  A    between atoms: C_29  and  N_30
REMARK                            x       y       z     vdW  Elec       q    Type
REMARK                         _______ _______ _______ _____ _____    ______ ____
ROOT
ATOM      1  O   UNL     1      37.182 -20.887 -17.278  0.00  0.00    -0.270 OA
ATOM      2  N   UNL     1      36.101 -20.435 -19.301  0.00  0.00    -0.276 N 
ATOM      3  C   UNL     1      35.697 -18.398 -21.316  0.00  0.00    +0.026 C 
ATOM      4  C   UNL     1      34.513 -19.121 -20.646  0.00  0.00    +0.026 C 
ATOM      5  C   UNL     1      36.923 -18.387 -20.383  0.00  0.00    +0.026 C 
ATOM      6  C   UNL     1      34.922 -20.516 -20.172  0.00  0.00    +0.094 C 
ATOM      7  C   UNL     1      37.269 -19.800 -19.912  0.00  0.00    +0.094 C 
ATOM      8  C   UNL     1      36.186 -20.931 -17.998  0.00  0.00    +0.251 C 
ENDROOT
BRANCH   8  10
ATOM      9  N   UNL     1      32.617 -21.961 -17.536  0.00  0.00    -0.242 NA
ATOM     10  C   UNL     1      34.991 -21.550 -17.414  0.00  0.00    +0.072 C 
ATOM     11  C   UNL     1      35.072 -22.284 -16.239  0.00  0.00    +0.003 C 
ATOM     12  C   UNL     1      33.922 -22.859 -15.709  0.00  0.00    -0.003 C 
ATOM     13  C   UNL     1      33.756 -21.417 -18.020  0.00  0.00    +0.103 C 
ATOM     14  C   UNL     1      32.730 -22.670 -16.390  0.00  0.00    +0.095 C 
BRANCH  12  15
ATOM     15  C   UNL     1      33.970 -23.653 -14.452  0.00  0.00    +0.033 C 
BRANCH  15  16
ATOM     16  C   UNL     1      35.057 -23.195 -13.458  0.00  0.00    +0.031 C 
BRANCH  16  17
ATOM     17  C   UNL     1      36.225 -24.149 -13.376  0.00  0.00    -0.022 C 
ATOM     18  C   UNL     1      37.059 -24.109 -12.270  0.00  0.00    -0.004 C 
ATOM     19  C   UNL     1      36.441 -25.048 -14.408  0.00  0.00    -0.004 C 
ATOM     20  C   UNL     1      38.137 -24.990 -12.194  0.00  0.00    -0.000 C 
ATOM     21  C   UNL     1      37.519 -25.930 -14.332  0.00  0.00    -0.000 C 
ATOM     22  C   UNL     1      38.368 -25.900 -13.225  0.00  0.00    -0.000 C 
ENDBRANCH  16  17
ENDBRANCH  15  16
ENDBRANCH  12  15
ENDBRANCH   8  10
BRANCH   3  23
ATOM     23  C   UNL     1      35.323 -17.003 -21.780  0.00  0.00    -0.023 C 
ATOM     24  C   UNL     1      35.045 -16.770 -23.125  0.00  0.00    -0.011 C 
ATOM     25  C   UNL     1      35.255 -15.960 -20.859  0.00  0.00    -0.004 C 
ATOM     26  C   UNL     1      34.700 -15.488 -23.552  0.00  0.00    -0.045 C 
ATOM     27  C   UNL     1      34.910 -14.677 -21.286  0.00  0.00    -0.001 C 
ATOM     28  C   UNL     1      34.632 -14.441 -22.632  0.00  0.00    -0.006 C 
BRANCH  26  29
ATOM     29  C   UNL     1      34.402 -15.235 -24.992  0.00  0.00    -0.059 C 
BRANCH  29  30
ATOM     30  N   UNL     1      33.221 -14.388 -25.175  0.00  0.00    +0.383 N 
ATOM     31  H   UNL     1      32.560 -14.559 -24.417  0.00  0.00    -0.089 HD
ATOM     32  H   UNL     1      32.780 -14.608 -26.068  0.00  0.00    -0.089 HD
ATOM     33  H   UNL     1      33.502 -13.407 -25.166  0.00  0.00    -0.089 HD
ENDBRANCH  29  30
ENDBRANCH  26  29
ENDBRANCH   3  23
TORSDOF 7
ENDMDL
MODEL 6
REMARK VINA RESULT:     -11.6      2.685     10.657
REMARK  Name = 657077
REMARK  7 active torsions:
REMARK  status: ('A' for Active; 'I' for Inactive)
REMARK    1  A    between atoms: C_3  and  C_23
REMARK    2  A    between atoms: C_8  and  C_10
REMARK    3  A    between atoms: C_12  and  C_15
REMARK    4  A    between atoms: C_15  and  C_16
REMARK    5  A    between atoms: C_16  and  C_17
REMARK    6  A    between atoms: C_26  and  C_29
REMARK    7  A    between atoms: C_29  and  N_30
REMARK                            x       y       z     vdW  Elec       q    Type
REMARK                         _______ _______ _______ _____ _____    ______ ____
ROOT
ATOM      1  O   UNL     1      34.974 -15.728 -25.262  0.00  0.00    -0.270 OA
ATOM      2  N   UNL     1      33.858 -13.943 -24.243  0.00  0.00    -0.276 N 
ATOM      3  C   UNL     1      33.540 -11.067 -24.297  0.00  0.00    +0.026 C 
ATOM      4  C   UNL     1      33.881 -11.821 -22.997  0.00  0.00    +0.026 C 
ATOM      5  C   UNL     1      34.038 -11.853 -25.525  0.00  0.00    +0.026 C 
ATOM      6  C   UNL     1      33.359 -13.257 -23.045  0.00  0.00    +0.094 C 
ATOM      7  C   UNL     1      33.516 -13.290 -25.508  0.00  0.00    +0.094 C 
ATOM      8  C   UNL     1      34.578 -15.140 -24.256  0.00  0.00    +0.251 C 
ENDROOT
BRANCH   8  10
ATOM      9  N   UNL     1      35.288 -15.506 -20.598  0.00  0.00    -0.242 NA
ATOM     10  C   UNL     1      34.914 -15.758 -22.969  0.00  0.00    +0.072 C 
ATOM     11  C   UNL     1      35.170 -17.119 -22.879  0.00  0.00    +0.003 C 
ATOM     12  C   UNL     1      35.486 -17.678 -21.645  0.00  0.00    -0.003 C 
ATOM     13  C   UNL     1      34.984 -15.000 -21.816  0.00  0.00    +0.103 C 
ATOM     14  C   UNL     1      35.531 -16.835 -20.545  0.00  0.00    +0.095 C 
BRANCH  12  15
ATOM     15  C   UNL     1      35.765 -19.132 -21.509  0.00  0.00    +0.033 C 
BRANCH  15  16
ATOM     16  C   UNL     1      36.269 -19.551 -20.112  0.00  0.00    +0.031 C 
BRANCH  16  17
ATOM     17  C   UNL     1      35.236 -20.309 -19.312  0.00  0.00    -0.022 C 
ATOM     18  C   UNL     1      33.891 -20.118 -19.585  0.00  0.00    -0.004 C 
ATOM     19  C   UNL     1      35.653 -21.181 -18.320  0.00  0.00    -0.004 C 
ATOM     20  C   UNL     1      32.937 -20.817 -18.846  0.00  0.00    -0.000 C 
ATOM     21  C   UNL     1      34.699 -21.882 -17.581  0.00  0.00    -0.000 C 
ATOM     22  C   UNL     1      33.341 -21.699 -17.844  0.00  0.00    -0.000 C 
ENDBRANCH  16  17
ENDBRANCH  15  16
ENDBRANCH  12  15
ENDBRANCH   8  10
BRANCH   3  23
ATOM     23  C   UNL     1      34.063  -9.643 -24.283  0.00  0.00    -0.023 C 
ATOM     24  C   UNL     1      33.281  -8.621 -23.748  0.00  0.00    -0.011 C 
ATOM     25  C   UNL     1      35.325  -9.361 -24.803  0.00  0.00    -0.004 C 
ATOM     26  C   UNL     1      33.762  -7.313 -23.733  0.00  0.00    -0.045 C 
ATOM     27  C   UNL     1      35.806  -8.052 -24.789  0.00  0.00    -0.001 C 
ATOM     28  C   UNL     1      35.025  -7.028 -24.254  0.00  0.00    -0.006 C 
BRANCH  26  29
ATOM     29  C   UNL     1      32.927  -6.216 -23.160  0.00  0.00    -0.059 C 
BRANCH  29  30
ATOM     30  N   UNL     1      31.651  -6.705 -22.634  0.00  0.00    +0.383 N 
ATOM     31  H   UNL     1      31.617  -7.721 -22.715  0.00  0.00    -0.089 HD
ATOM     32  H   UNL     1      30.885  -6.295 -23.167  0.00  0.00    -0.089 HD
ATOM     33  H   UNL     1      31.564  -6.439 -21.653  0.00  0.00    -0.089 HD
ENDBRANCH  29  30
ENDBRANCH  26  29
ENDBRANCH   3  23
TORSDOF 7
ENDMDL
MODEL 7
REMARK VINA RESULT:     -11.4      3.435      6.244
REMARK  Name = 657077
REMARK  7 active torsions:
REMARK  status: ('A' for Active; 'I' for Inactive)
REMARK    1  A    between atoms: C_3  and  C_23
REMARK    2  A    between atoms: C_8  and  C_10
REMARK    3  A    between atoms: C_12  and  C_15
REMARK    4  A    between atoms: C_15  and  C_16
REMARK    5  A    between atoms: C_16  and  C_17
REMARK    6  A    between atoms: C_26  and  C_29
REMARK    7  A    between atoms: C_29  and  N_30
REMARK                            x       y       z     vdW  Elec       q    Type
REMARK                         _______ _______ _______ _____ _____    ______ ____
ROOT
ATOM      1  O   UNL     1      32.306  -8.804 -17.844  0.00  0.00    -0.270 OA
ATOM      2  N   UNL     1      31.905 -10.125 -19.731  0.00  0.00    -0.276 N 
ATOM      3  C   UNL     1      32.573 -12.645 -20.989  0.00  0.00    +0.026 C 
ATOM      4  C   UNL     1      32.700 -11.305 -21.740  0.00  0.00    +0.026 C 
ATOM      5  C   UNL     1      32.719 -12.430 -19.470  0.00  0.00    +0.026 C 
ATOM      6  C   UNL     1      31.723 -10.271 -21.181  0.00  0.00    +0.094 C 
ATOM      7  C   UNL     1      31.745 -11.363 -18.968  0.00  0.00    +0.094 C 
ATOM      8  C   UNL     1      32.178  -8.930 -19.061  0.00  0.00    +0.251 C 
ENDROOT
BRANCH   8  10
ATOM      9  N   UNL     1      32.031  -5.328 -20.071  0.00  0.00    -0.242 NA
ATOM     10  C   UNL     1      32.346  -7.711 -19.860  0.00  0.00    +0.072 C 
ATOM     11  C   UNL     1      32.946  -7.757 -21.110  0.00  0.00    +0.003 C 
ATOM     12  C   UNL     1      33.091  -6.585 -21.845  0.00  0.00    -0.003 C 
ATOM     13  C   UNL     1      31.909  -6.489 -19.387  0.00  0.00    +0.103 C 
ATOM     14  C   UNL     1      32.622  -5.407 -21.285  0.00  0.00    +0.095 C 
BRANCH  12  15
ATOM     15  C   UNL     1      33.731  -6.595 -23.187  0.00  0.00    +0.033 C 
BRANCH  15  16
ATOM     16  C   UNL     1      35.046  -7.399 -23.254  0.00  0.00    +0.031 C 
BRANCH  16  17
ATOM     17  C   UNL     1      35.007  -8.516 -24.269  0.00  0.00    -0.022 C 
ATOM     18  C   UNL     1      34.013  -9.478 -24.183  0.00  0.00    -0.004 C 
ATOM     19  C   UNL     1      35.966  -8.559 -25.268  0.00  0.00    -0.004 C 
ATOM     20  C   UNL     1      33.977 -10.510 -25.121  0.00  0.00    -0.000 C 
ATOM     21  C   UNL     1      35.929  -9.590 -26.207  0.00  0.00    -0.000 C 
ATOM     22  C   UNL     1      34.934 -10.566 -26.132  0.00  0.00    -0.000 C 
ENDBRANCH  16  17
ENDBRANCH  15  16
ENDBRANCH  12  15
ENDBRANCH   8  10
BRANCH   3  23
ATOM     23  C   UNL     1      33.545 -13.684 -21.513  0.00  0.00    -0.023 C 
ATOM     24  C   UNL     1      33.619 -13.939 -22.881  0.00  0.00    -0.011 C 
ATOM     25  C   UNL     1      34.363 -14.381 -20.624  0.00  0.00    -0.004 C 
ATOM     26  C   UNL     1      34.513 -14.894 -23.362  0.00  0.00    -0.045 C 
ATOM     27  C   UNL     1      35.257 -15.336 -21.107  0.00  0.00    -0.001 C 
ATOM     28  C   UNL     1      35.333 -15.592 -22.475  0.00  0.00    -0.006 C 
BRANCH  26  29
ATOM     29  C   UNL     1      34.596 -15.168 -24.827  0.00  0.00    -0.059 C 
BRANCH  29  30
ATOM     30  N   UNL     1      33.349 -14.850 -25.524  0.00  0.00    +0.383 N 
ATOM     31  H   UNL     1      32.651 -15.564 -25.316  0.00  0.00    -0.089 HD
ATOM     32  H   UNL     1      33.519 -14.822 -26.529  0.00  0.00    -0.089 HD
ATOM     33  H   UNL     1      33.008 -13.941 -25.212  0.00  0.00    -0.089 HD
ENDBRANCH  29  30
ENDBRANCH  26  29
ENDBRANCH   3  23
TORSDOF 7
ENDMDL
MODEL 8
REMARK VINA RESULT:     -11.1      2.014     10.802
REMARK  Name = 657077
REMARK  7 active torsions:
REMARK  status: ('A' for Active; 'I' for Inactive)
REMARK    1  A    between atoms: C_3  and  C_23
REMARK    2  A    between atoms: C_8  and  C_10
REMARK    3  A    between atoms: C_12  and  C_15
REMARK    4  A    between atoms: C_15  and  C_16
REMARK    5  A    between atoms: C_16  and  C_17
REMARK    6  A    between atoms: C_26  and  C_29
REMARK    7  A    between atoms: C_29  and  N_30
REMARK                            x       y       z     vdW  Elec       q    Type
REMARK                         _______ _______ _______ _____ _____    ______ ____
ROOT
ATOM      1  O   UNL     1      34.976 -12.653 -23.902  0.00  0.00    -0.270 OA
ATOM      2  N   UNL     1      33.247 -11.859 -22.542  0.00  0.00    -0.276 N 
ATOM      3  C   UNL     1      32.082  -9.453 -21.432  0.00  0.00    +0.026 C 
ATOM      4  C   UNL     1      32.461 -10.655 -20.544  0.00  0.00    +0.026 C 
ATOM      5  C   UNL     1      32.953  -9.424 -22.703  0.00  0.00    +0.026 C 
ATOM      6  C   UNL     1      32.410 -11.959 -21.340  0.00  0.00    +0.094 C 
ATOM      7  C   UNL     1      32.894 -10.760 -23.442  0.00  0.00    +0.094 C 
ATOM      8  C   UNL     1      34.291 -12.722 -22.882  0.00  0.00    +0.251 C 
ENDROOT
BRANCH   8  10
ATOM      9  N   UNL     1      35.006 -14.518 -19.675  0.00  0.00    -0.242 NA
ATOM     10  C   UNL     1      34.626 -13.804 -21.948  0.00  0.00    +0.072 C 
ATOM     11  C   UNL     1      34.872 -15.089 -22.408  0.00  0.00    +0.003 C 
ATOM     12  C   UNL     1      35.187 -16.094 -21.500  0.00  0.00    -0.003 C 
ATOM     13  C   UNL     1      34.703 -13.568 -20.589  0.00  0.00    +0.103 C 
ATOM     14  C   UNL     1      35.239 -15.759 -20.156  0.00  0.00    +0.095 C 
BRANCH  12  15
ATOM     15  C   UNL     1      35.456 -17.484 -21.955  0.00  0.00    +0.033 C 
BRANCH  15  16
ATOM     16  C   UNL     1      36.308 -18.316 -20.974  0.00  0.00    +0.031 C 
BRANCH  16  17
ATOM     17  C   UNL     1      35.500 -19.331 -20.200  0.00  0.00    -0.022 C 
ATOM     18  C   UNL     1      36.153 -20.242 -19.386  0.00  0.00    -0.004 C 
ATOM     19  C   UNL     1      34.120 -19.333 -20.320  0.00  0.00    -0.004 C 
ATOM     20  C   UNL     1      35.407 -21.179 -18.672  0.00  0.00    -0.000 C 
ATOM     21  C   UNL     1      33.373 -20.270 -19.605  0.00  0.00    -0.000 C 
ATOM     22  C   UNL     1      34.017 -21.193 -18.781  0.00  0.00    -0.000 C 
ENDBRANCH  16  17
ENDBRANCH  15  16
ENDBRANCH  12  15
ENDBRANCH   8  10
BRANCH   3  23
ATOM     23  C   UNL     1      32.142  -8.143 -20.671  0.00  0.00    -0.023 C 
ATOM     24  C   UNL     1      31.985  -6.936 -21.351  0.00  0.00    -0.011 C 
ATOM     25  C   UNL     1      32.352  -8.149 -19.293  0.00  0.00    -0.004 C 
ATOM     26  C   UNL     1      32.039  -5.732 -20.651  0.00  0.00    -0.045 C 
ATOM     27  C   UNL     1      32.407  -6.943 -18.593  0.00  0.00    -0.001 C 
ATOM     28  C   UNL     1      32.250  -5.735 -19.272  0.00  0.00    -0.006 C 
BRANCH  26  29
ATOM     29  C   UNL     1      31.871  -4.438 -21.376  0.00  0.00    -0.059 C 
BRANCH  29  30
ATOM     30  N   UNL     1      30.728  -3.668 -20.881  0.00  0.00    +0.383 N 
ATOM     31  H   UNL     1      29.862  -4.135 -21.147  0.00  0.00    -0.089 HD
ATOM     32  H   UNL     1      30.749  -2.732 -21.285  0.00  0.00    -0.089 HD
ATOM     33  H   UNL     1      30.779  -3.600 -19.864  0.00  0.00    -0.089 HD
ENDBRANCH  29  30
ENDBRANCH  26  29
ENDBRANCH   3  23
TORSDOF 7
ENDMDL
MODEL 9
REMARK VINA RESULT:     -10.4      3.532      6.694
REMARK  Name = 657077
REMARK  7 active torsions:
REMARK  status: ('A' for Active; 'I' for Inactive)
REMARK    1  A    between atoms: C_3  and  C_23
REMARK    2  A    between atoms: C_8  and  C_10
REMARK    3  A    between atoms: C_12  and  C_15
REMARK    4  A    between atoms: C_15  and  C_16
REMARK    5  A    between atoms: C_16  and  C_17
REMARK    6  A    between atoms: C_26  and  C_29
REMARK    7  A    between atoms: C_29  and  N_30
REMARK                            x       y       z     vdW  Elec       q    Type
REMARK                         _______ _______ _______ _____ _____    ______ ____
ROOT
ATOM      1  O   UNL     1      32.570 -19.686 -20.227  0.00  0.00    -0.270 OA
ATOM      2  N   UNL     1      34.468 -20.807 -19.446  0.00  0.00    -0.276 N 
ATOM      3  C   UNL     1      35.563 -22.211 -17.165  0.00  0.00    +0.026 C 
ATOM      4  C   UNL     1      36.316 -21.047 -17.839  0.00  0.00    +0.026 C 
ATOM      5  C   UNL     1      34.044 -22.071 -17.381  0.00  0.00    +0.026 C 
ATOM      6  C   UNL     1      35.925 -20.924 -19.311  0.00  0.00    +0.094 C 
ATOM      7  C   UNL     1      33.710 -21.916 -18.865  0.00  0.00    +0.094 C 
ATOM      8  C   UNL     1      33.790 -19.770 -20.092  0.00  0.00    +0.251 C 
ENDROOT
BRANCH   8  10
ATOM      9  N   UNL     1      36.283 -17.934 -22.196  0.00  0.00    -0.242 NA
ATOM     10  C   UNL     1      34.582 -18.669 -20.651  0.00  0.00    +0.072 C 
ATOM     11  C   UNL     1      34.407 -17.368 -20.203  0.00  0.00    +0.003 C 
ATOM     12  C   UNL     1      35.172 -16.344 -20.752  0.00  0.00    -0.003 C 
ATOM     13  C   UNL     1      35.521 -18.902 -21.638  0.00  0.00    +0.103 C 
ATOM     14  C   UNL     1      36.088 -16.677 -21.738  0.00  0.00    +0.095 C 
BRANCH  12  15
ATOM     15  C   UNL     1      35.012 -14.937 -20.297  0.00  0.00    +0.033 C 
BRANCH  15  16
ATOM     16  C   UNL     1      34.574 -13.961 -21.409  0.00  0.00    +0.031 C 
BRANCH  16  17
ATOM     17  C   UNL     1      33.482 -13.015 -20.971  0.00  0.00    -0.022 C 
ATOM     18  C   UNL     1      33.168 -11.924 -21.766  0.00  0.00    -0.004 C 
ATOM     19  C   UNL     1      32.814 -13.255 -19.781  0.00  0.00    -0.004 C 
ATOM     20  C   UNL     1      32.159 -11.050 -21.361  0.00  0.00    -0.000 C 
ATOM     21  C   UNL     1      31.804 -12.381 -19.377  0.00  0.00    -0.000 C 
ATOM     22  C   UNL     1      31.477 -11.278 -20.167  0.00  0.00    -0.000 C 
ENDBRANCH  16  17
ENDBRANCH  15  16
ENDBRANCH  12  15
ENDBRANCH   8  10
BRANCH   3  23
ATOM     23  C   UNL     1      35.920 -22.345 -15.697  0.00  0.00    -0.023 C 
ATOM     24  C   UNL     1      34.982 -22.847 -14.797  0.00  0.00    -0.011 C 
ATOM     25  C   UNL     1      37.186 -21.967 -15.252  0.00  0.00    -0.004 C 
ATOM     26  C   UNL     1      35.309 -22.971 -13.448  0.00  0.00    -0.045 C 
ATOM     27  C   UNL     1      37.513 -22.091 -13.902  0.00  0.00    -0.001 C 
ATOM     28  C   UNL     1      36.576 -22.593 -13.000  0.00  0.00    -0.006 C 
BRANCH  26  29
ATOM     29  C   UNL     1      34.307 -23.510 -12.482  0.00  0.00    -0.059 C 
BRANCH  29  30
ATOM     30  N   UNL     1      33.224 -24.235 -13.149  0.00  0.00    +0.383 N 
ATOM     31  H   UNL     1      32.781 -23.626 -13.837  0.00  0.00    -0.089 HD
ATOM     32  H   UNL     1      32.535 -24.528 -12.458  0.00  0.00    -0.089 HD
ATOM     33  H   UNL     1      33.605 -25.056 -13.619  0.00  0.00    -0.089 HD
ENDBRANCH  29  30
ENDBRANCH  26  29
ENDBRANCH   3  23
TORSDOF 7
ENDMDL
