MODEL 1
REMARK VINA RESULT:     -12.5      0.000      0.000
REMARK  Name = 446805
REMARK  6 active torsions:
REMARK  status: ('A' for Active; 'I' for Inactive)
REMARK    1  A    between atoms: C_4  and  C_22
REMARK    2  A    between atoms: C_7  and  N_11
REMARK    3  A    between atoms: N_11  and  S_13
REMARK    4  A    between atoms: S_13  and  C_16
REMARK    5  A    between atoms: C_22  and  C_23
REMARK    6  A    between atoms: C_28  and  C_31
REMARK                            x       y       z     vdW  Elec       q    Type
REMARK                         _______ _______ _______ _____ _____    ______ ____
ROOT
ATOM      1  N   UNL     1      34.092 -22.330 -16.444  0.00  0.00    -0.262 N 
ATOM      2  N   UNL     1      32.305 -21.746 -17.630  0.00  0.00    -0.394 NA
ATOM      3  C   UNL     1      34.579 -21.640 -17.524  0.00  0.00    +0.079 C 
ATOM      4  C   UNL     1      32.730 -22.366 -16.553  0.00  0.00    +0.168 C 
ATOM      5  C   UNL     1      33.446 -21.285 -18.248  0.00  0.00    +0.129 C 
ATOM      6  C   UNL     1      33.594 -20.553 -19.439  0.00  0.00    +0.103 C 
ATOM      7  C   UNL     1      34.886 -20.206 -19.852  0.00  0.00    +0.050 C 
ATOM      8  C   UNL     1      35.876 -21.304 -17.916  0.00  0.00    +0.018 C 
ATOM      9  C   UNL     1      34.881 -22.915 -15.383  0.00  0.00    +0.119 C 
ATOM     10  C   UNL     1      36.006 -20.575 -19.103  0.00  0.00    +0.013 C 
ENDROOT
BRANCH   7  11
ATOM     11  N   UNL     1      35.061 -19.462 -21.059  0.00  0.00    -0.219 N 
ATOM     12  H   UNL     1      34.746 -19.805 -21.928  0.00  0.00    +0.173 HD
BRANCH  11  13
ATOM     13  S   UNL     1      35.853 -17.922 -20.921  0.00  0.00    +0.073 S 
ATOM     14  O   UNL     1      37.285 -18.107 -21.051  0.00  0.00    -0.150 OA
ATOM     15  O   UNL     1      35.304 -17.203 -19.787  0.00  0.00    -0.150 OA
BRANCH  13  16
ATOM     16  C   UNL     1      35.285 -17.093 -22.377  0.00  0.00    +0.125 C 
ATOM     17  C   UNL     1      34.703 -17.835 -23.390  0.00  0.00    +0.020 C 
ATOM     18  C   UNL     1      35.434 -15.722 -22.473  0.00  0.00    +0.020 C 
ATOM     19  C   UNL     1      34.254 -17.180 -24.538  0.00  0.00    +0.001 C 
ATOM     20  C   UNL     1      34.985 -15.068 -23.620  0.00  0.00    +0.001 C 
ATOM     21  C   UNL     1      34.395 -15.797 -24.653  0.00  0.00    +0.000 C 
ENDBRANCH  13  16
ENDBRANCH  11  13
ENDBRANCH   7  11
BRANCH   4  22
ATOM     22  C   UNL     1      31.879 -23.039 -15.549  0.00  0.00    +0.101 C 
BRANCH  22  23
ATOM     23  C   UNL     1      30.420 -22.603 -15.585  0.00  0.00    -0.014 C 
ATOM     24  C   UNL     1      29.964 -21.720 -14.628  0.00  0.00    -0.004 C 
ATOM     25  C   UNL     1      29.600 -23.104 -16.575  0.00  0.00    -0.004 C 
ATOM     26  C   UNL     1      28.627 -21.321 -14.662  0.00  0.00    +0.002 C 
ATOM     27  C   UNL     1      28.264 -22.706 -16.609  0.00  0.00    +0.002 C 
ATOM     28  C   UNL     1      27.778 -21.814 -15.652  0.00  0.00    +0.031 C 
BRANCH  28  31
ATOM     29  N   UNL     1      25.869 -20.681 -16.765  0.00  0.00    -0.343 N 
ATOM     30  N   UNL     1      25.583 -21.698 -14.681  0.00  0.00    -0.285 NA
ATOM     31  C   UNL     1      26.384 -21.398 -15.687  0.00  0.00    +0.117 C 
ATOM     32  H   UNL     1      24.922 -20.410 -16.768  0.00  0.00    +0.144 HD
ATOM     33  H   UNL     1      26.450 -20.445 -17.524  0.00  0.00    +0.144 HD
ATOM     34  H   UNL     1      24.639 -21.418 -14.702  0.00  0.00    +0.188 HD
ENDBRANCH  28  31
ENDBRANCH  22  23
ENDBRANCH   4  22
TORSDOF 6
ENDMDL
MODEL 2
REMARK VINA RESULT:     -12.3      2.755      6.361
REMARK  Name = 446805
REMARK  6 active torsions:
REMARK  status: ('A' for Active; 'I' for Inactive)
REMARK    1  A    between atoms: C_4  and  C_22
REMARK    2  A    between atoms: C_7  and  N_11
REMARK    3  A    between atoms: N_11  and  S_13
REMARK    4  A    between atoms: S_13  and  C_16
REMARK    5  A    between atoms: C_22  and  C_23
REMARK    6  A    between atoms: C_28  and  C_31
REMARK                            x       y       z     vdW  Elec       q    Type
REMARK                         _______ _______ _______ _____ _____    ______ ____
ROOT
ATOM      1  N   UNL     1      33.262 -21.923 -17.017  0.00  0.00    -0.262 N 
ATOM      2  N   UNL     1      35.472 -22.035 -17.231  0.00  0.00    -0.394 NA
ATOM      3  C   UNL     1      33.556 -21.215 -18.154  0.00  0.00    +0.079 C 
ATOM      4  C   UNL     1      34.438 -22.392 -16.502  0.00  0.00    +0.168 C 
ATOM      5  C   UNL     1      34.941 -21.301 -18.267  0.00  0.00    +0.129 C 
ATOM      6  C   UNL     1      35.581 -20.671 -19.348  0.00  0.00    +0.103 C 
ATOM      7  C   UNL     1      34.796 -19.977 -20.276  0.00  0.00    +0.050 C 
ATOM      8  C   UNL     1      32.754 -20.530 -19.068  0.00  0.00    +0.018 C 
ATOM      9  C   UNL     1      31.943 -22.130 -16.464  0.00  0.00    +0.119 C 
ATOM     10  C   UNL     1      33.407 -19.909 -20.137  0.00  0.00    +0.013 C 
ENDROOT
BRANCH   7  11
ATOM     11  N   UNL     1      35.425 -19.328 -21.383  0.00  0.00    -0.219 N 
ATOM     12  H   UNL     1      35.444 -19.736 -22.279  0.00  0.00    +0.173 HD
BRANCH  11  13
ATOM     13  S   UNL     1      36.156 -17.783 -21.070  0.00  0.00    +0.073 S 
ATOM     14  O   UNL     1      37.581 -17.866 -21.325  0.00  0.00    -0.150 OA
ATOM     15  O   UNL     1      35.664 -17.271 -19.805  0.00  0.00    -0.150 OA
BRANCH  13  16
ATOM     16  C   UNL     1      35.440 -16.783 -22.341  0.00  0.00    +0.125 C 
ATOM     17  C   UNL     1      35.385 -15.411 -22.168  0.00  0.00    +0.020 C 
ATOM     18  C   UNL     1      34.952 -17.392 -23.483  0.00  0.00    +0.020 C 
ATOM     19  C   UNL     1      34.821 -14.623 -23.171  0.00  0.00    +0.001 C 
ATOM     20  C   UNL     1      34.388 -16.603 -24.486  0.00  0.00    +0.001 C 
ATOM     21  C   UNL     1      34.322 -15.218 -24.330  0.00  0.00    +0.000 C 
ENDBRANCH  13  16
ENDBRANCH  11  13
ENDBRANCH   7  11
BRANCH   4  22
ATOM     22  C   UNL     1      34.488 -23.201 -15.267  0.00  0.00    +0.101 C 
BRANCH  22  23
ATOM     23  C   UNL     1      35.889 -23.663 -14.888  0.00  0.00    -0.014 C 
ATOM     24  C   UNL     1      36.118 -25.010 -14.698  0.00  0.00    -0.004 C 
ATOM     25  C   UNL     1      36.885 -22.719 -14.746  0.00  0.00    -0.004 C 
ATOM     26  C   UNL     1      37.402 -25.433 -14.351  0.00  0.00    +0.002 C 
ATOM     27  C   UNL     1      38.168 -23.142 -14.399  0.00  0.00    +0.002 C 
ATOM     28  C   UNL     1      38.426 -24.499 -14.201  0.00  0.00    +0.031 C 
BRANCH  28  31
ATOM     29  N   UNL     1      40.147 -26.273 -13.963  0.00  0.00    -0.343 N 
ATOM     30  N   UNL     1      40.642 -24.066 -13.377  0.00  0.00    -0.285 NA
ATOM     31  C   UNL     1      39.764 -24.939 -13.838  0.00  0.00    +0.117 C 
ATOM     32  H   UNL     1      41.058 -26.549 -13.711  0.00  0.00    +0.144 HD
ATOM     33  H   UNL     1      39.507 -26.940 -14.302  0.00  0.00    +0.144 HD
ATOM     34  H   UNL     1      41.548 -24.361 -13.131  0.00  0.00    +0.188 HD
ENDBRANCH  28  31
ENDBRANCH  22  23
ENDBRANCH   4  22
TORSDOF 6
ENDMDL
MODEL 3
REMARK VINA RESULT:     -12.2      4.929      9.606
REMARK  Name = 446805
REMARK  6 active torsions:
REMARK  status: ('A' for Active; 'I' for Inactive)
REMARK    1  A    between atoms: C_4  and  C_22
REMARK    2  A    between atoms: C_7  and  N_11
REMARK    3  A    between atoms: N_11  and  S_13
REMARK    4  A    between atoms: S_13  and  C_16
REMARK    5  A    between atoms: C_22  and  C_23
REMARK    6  A    between atoms: C_28  and  C_31
REMARK                            x       y       z     vdW  Elec       q    Type
REMARK                         _______ _______ _______ _____ _____    ______ ____
ROOT
ATOM      1  N   UNL     1      33.264 -22.759 -16.141  0.00  0.00    -0.262 N 
ATOM      2  N   UNL     1      35.376 -22.204 -16.556  0.00  0.00    -0.394 NA
ATOM      3  C   UNL     1      33.894 -22.780 -14.924  0.00  0.00    +0.079 C 
ATOM      4  C   UNL     1      34.190 -22.410 -17.084  0.00  0.00    +0.168 C 
ATOM      5  C   UNL     1      35.210 -22.429 -15.208  0.00  0.00    +0.129 C 
ATOM      6  C   UNL     1      36.142 -22.354 -14.159  0.00  0.00    +0.103 C 
ATOM      7  C   UNL     1      35.708 -22.638 -12.859  0.00  0.00    +0.050 C 
ATOM      8  C   UNL     1      33.439 -23.065 -13.636  0.00  0.00    +0.018 C 
ATOM      9  C   UNL     1      31.870 -23.056 -16.381  0.00  0.00    +0.119 C 
ATOM     10  C   UNL     1      34.379 -22.986 -12.603  0.00  0.00    +0.013 C 
ENDROOT
BRANCH   7  11
ATOM     11  N   UNL     1      36.638 -22.569 -11.777  0.00  0.00    -0.219 N 
ATOM     12  H   UNL     1      36.973 -21.707 -11.437  0.00  0.00    +0.173 HD
BRANCH  11  13
ATOM     13  S   UNL     1      37.150 -24.080 -11.089  0.00  0.00    +0.073 S 
ATOM     14  O   UNL     1      36.008 -24.966 -10.975  0.00  0.00    -0.150 OA
ATOM     15  O   UNL     1      37.996 -23.818  -9.940  0.00  0.00    -0.150 OA
BRANCH  13  16
ATOM     16  C   UNL     1      38.199 -24.718 -12.362  0.00  0.00    +0.125 C 
ATOM     17  C   UNL     1      37.747 -25.767 -13.144  0.00  0.00    +0.020 C 
ATOM     18  C   UNL     1      39.448 -24.156 -12.552  0.00  0.00    +0.020 C 
ATOM     19  C   UNL     1      38.574 -26.270 -14.149  0.00  0.00    +0.001 C 
ATOM     20  C   UNL     1      40.275 -24.659 -13.557  0.00  0.00    +0.001 C 
ATOM     21  C   UNL     1      39.838 -25.715 -14.355  0.00  0.00    +0.000 C 
ENDBRANCH  13  16
ENDBRANCH  11  13
ENDBRANCH   7  11
BRANCH   4  22
ATOM     22  C   UNL     1      33.848 -22.293 -18.517  0.00  0.00    +0.101 C 
BRANCH  22  23
ATOM     23  C   UNL     1      34.389 -21.032 -19.179  0.00  0.00    -0.014 C 
ATOM     24  C   UNL     1      35.755 -20.861 -19.269  0.00  0.00    -0.004 C 
ATOM     25  C   UNL     1      33.496 -20.101 -19.667  0.00  0.00    -0.004 C 
ATOM     26  C   UNL     1      36.251 -19.706 -19.876  0.00  0.00    +0.002 C 
ATOM     27  C   UNL     1      33.992 -18.946 -20.273  0.00  0.00    +0.002 C 
ATOM     28  C   UNL     1      35.369 -18.749 -20.377  0.00  0.00    +0.031 C 
BRANCH  28  31
ATOM     29  N   UNL     1      36.838 -17.611 -22.024  0.00  0.00    -0.343 N 
ATOM     30  N   UNL     1      35.453 -16.360 -20.618  0.00  0.00    -0.285 NA
ATOM     31  C   UNL     1      35.886 -17.545 -21.009  0.00  0.00    +0.117 C 
ATOM     32  H   UNL     1      37.174 -16.782 -22.438  0.00  0.00    +0.144 HD
ATOM     33  H   UNL     1      37.175 -18.484 -22.329  0.00  0.00    +0.144 HD
ATOM     34  H   UNL     1      35.801 -15.543 -21.043  0.00  0.00    +0.188 HD
ENDBRANCH  28  31
ENDBRANCH  22  23
ENDBRANCH   4  22
TORSDOF 6
ENDMDL
MODEL 4
REMARK VINA RESULT:     -11.4      4.945      8.771
REMARK  Name = 446805
REMARK  6 active torsions:
REMARK  status: ('A' for Active; 'I' for Inactive)
REMARK    1  A    between atoms: C_4  and  C_22
REMARK    2  A    between atoms: C_7  and  N_11
REMARK    3  A    between atoms: N_11  and  S_13
REMARK    4  A    between atoms: S_13  and  C_16
REMARK    5  A    between atoms: C_22  and  C_23
REMARK    6  A    between atoms: C_28  and  C_31
REMARK                            x       y       z     vdW  Elec       q    Type
REMARK                         _______ _______ _______ _____ _____    ______ ____
ROOT
ATOM      1  N   UNL     1      34.844 -16.328 -23.489  0.00  0.00    -0.262 N 
ATOM      2  N   UNL     1      35.712 -15.535 -21.603  0.00  0.00    -0.394 NA
ATOM      3  C   UNL     1      34.352 -15.054 -23.367  0.00  0.00    +0.079 C 
ATOM      4  C   UNL     1      35.650 -16.569 -22.412  0.00  0.00    +0.168 C 
ATOM      5  C   UNL     1      34.909 -14.579 -22.183  0.00  0.00    +0.129 C 
ATOM      6  C   UNL     1      34.604 -13.276 -21.755  0.00  0.00    +0.103 C 
ATOM      7  C   UNL     1      33.746 -12.499 -22.543  0.00  0.00    +0.050 C 
ATOM      8  C   UNL     1      33.496 -14.297 -24.168  0.00  0.00    +0.018 C 
ATOM      9  C   UNL     1      34.556 -17.249 -24.565  0.00  0.00    +0.119 C 
ATOM     10  C   UNL     1      33.203 -13.002 -23.728  0.00  0.00    +0.013 C 
ENDROOT
BRANCH   7  11
ATOM     11  N   UNL     1      33.421 -11.171 -22.127  0.00  0.00    -0.219 N 
ATOM     12  H   UNL     1      33.875 -10.385 -22.509  0.00  0.00    +0.173 HD
BRANCH  11  13
ATOM     13  S   UNL     1      32.186 -11.012 -20.916  0.00  0.00    +0.073 S 
ATOM     14  O   UNL     1      32.569 -11.766 -19.739  0.00  0.00    -0.150 OA
ATOM     15  O   UNL     1      30.887 -11.215 -21.531  0.00  0.00    -0.150 OA
BRANCH  13  16
ATOM     16  C   UNL     1      32.297  -9.293 -20.513  0.00  0.00    +0.125 C 
ATOM     17  C   UNL     1      32.531  -8.378 -21.524  0.00  0.00    +0.020 C 
ATOM     18  C   UNL     1      32.149  -8.899 -19.195  0.00  0.00    +0.020 C 
ATOM     19  C   UNL     1      32.618  -7.022 -21.205  0.00  0.00    +0.001 C 
ATOM     20  C   UNL     1      32.236  -7.544 -18.877  0.00  0.00    +0.001 C 
ATOM     21  C   UNL     1      32.471  -6.605 -19.882  0.00  0.00    +0.000 C 
ENDBRANCH  13  16
ENDBRANCH  11  13
ENDBRANCH   7  11
BRANCH   4  22
ATOM     22  C   UNL     1      36.347 -17.858 -22.225  0.00  0.00    +0.101 C 
BRANCH  22  23
ATOM     23  C   UNL     1      35.704 -18.761 -21.180  0.00  0.00    -0.014 C 
ATOM     24  C   UNL     1      34.335 -18.930 -21.196  0.00  0.00    -0.004 C 
ATOM     25  C   UNL     1      36.512 -19.382 -20.249  0.00  0.00    -0.004 C 
ATOM     26  C   UNL     1      33.746 -19.757 -20.239  0.00  0.00    +0.002 C 
ATOM     27  C   UNL     1      35.923 -20.208 -19.291  0.00  0.00    +0.002 C 
ATOM     28  C   UNL     1      34.541 -20.395 -19.287  0.00  0.00    +0.031 C 
BRANCH  28  31
ATOM     29  N   UNL     1      32.549 -21.257 -18.079  0.00  0.00    -0.343 N 
ATOM     30  N   UNL     1      34.682 -22.057 -17.557  0.00  0.00    -0.285 NA
ATOM     31  C   UNL     1      33.927 -21.257 -18.288  0.00  0.00    +0.117 C 
ATOM     32  H   UNL     1      32.156 -21.849 -17.397  0.00  0.00    +0.144 HD
ATOM     33  H   UNL     1      31.970 -20.666 -18.612  0.00  0.00    +0.144 HD
ATOM     34  H   UNL     1      34.270 -22.641 -16.880  0.00  0.00    +0.188 HD
ENDBRANCH  28  31
ENDBRANCH  22  23
ENDBRANCH   4  22
TORSDOF 6
ENDMDL
MODEL 5
REMARK VINA RESULT:     -11.3      5.854     11.509
REMARK  Name = 446805
REMARK  6 active torsions:
REMARK  status: ('A' for Active; 'I' for Inactive)
REMARK    1  A    between atoms: C_4  and  C_22
REMARK    2  A    between atoms: C_7  and  N_11
REMARK    3  A    between atoms: N_11  and  S_13
REMARK    4  A    between atoms: S_13  and  C_16
REMARK    5  A    between atoms: C_22  and  C_23
REMARK    6  A    between atoms: C_28  and  C_31
REMARK                            x       y       z     vdW  Elec       q    Type
REMARK                         _______ _______ _______ _____ _____    ______ ____
ROOT
ATOM      1  N   UNL     1      33.919 -12.420 -24.672  0.00  0.00    -0.262 N 
ATOM      2  N   UNL     1      34.377 -11.774 -22.596  0.00  0.00    -0.394 NA
ATOM      3  C   UNL     1      34.235 -13.568 -23.993  0.00  0.00    +0.079 C 
ATOM      4  C   UNL     1      34.018 -11.376 -23.796  0.00  0.00    +0.168 C 
ATOM      5  C   UNL     1      34.515 -13.139 -22.699  0.00  0.00    +0.129 C 
ATOM      6  C   UNL     1      34.881 -14.085 -21.727  0.00  0.00    +0.103 C 
ATOM      7  C   UNL     1      34.950 -15.434 -22.100  0.00  0.00    +0.050 C 
ATOM      8  C   UNL     1      34.295 -14.906 -24.386  0.00  0.00    +0.018 C 
ATOM      9  C   UNL     1      33.549 -12.334 -26.067  0.00  0.00    +0.119 C 
ATOM     10  C   UNL     1      34.661 -15.835 -23.406  0.00  0.00    +0.013 C 
ENDROOT
BRANCH   7  11
ATOM     11  N   UNL     1      35.320 -16.413 -21.128  0.00  0.00    -0.219 N 
ATOM     12  H   UNL     1      35.159 -16.273 -20.166  0.00  0.00    +0.173 HD
BRANCH  11  13
ATOM     13  S   UNL     1      36.068 -17.862 -21.725  0.00  0.00    +0.073 S 
ATOM     14  O   UNL     1      37.508 -17.746 -21.598  0.00  0.00    -0.150 OA
ATOM     15  O   UNL     1      35.468 -18.219 -22.997  0.00  0.00    -0.150 OA
BRANCH  13  16
ATOM     16  C   UNL     1      35.521 -19.062 -20.546  0.00  0.00    +0.125 C 
ATOM     17  C   UNL     1      34.166 -19.323 -20.430  0.00  0.00    +0.020 C 
ATOM     18  C   UNL     1      36.456 -19.715 -19.765  0.00  0.00    +0.020 C 
ATOM     19  C   UNL     1      33.735 -20.269 -19.500  0.00  0.00    +0.001 C 
ATOM     20  C   UNL     1      36.024 -20.662 -18.835  0.00  0.00    +0.001 C 
ATOM     21  C   UNL     1      34.664 -20.939 -18.703  0.00  0.00    +0.000 C 
ENDBRANCH  13  16
ENDBRANCH  11  13
ENDBRANCH   7  11
BRANCH   4  22
ATOM     22  C   UNL     1      33.744  -9.982 -24.200  0.00  0.00    +0.101 C 
BRANCH  22  23
ATOM     23  C   UNL     1      33.480  -9.041 -23.032  0.00  0.00    -0.014 C 
ATOM     24  C   UNL     1      32.395  -9.282 -22.215  0.00  0.00    -0.004 C 
ATOM     25  C   UNL     1      34.334  -7.977 -22.827  0.00  0.00    -0.004 C 
ATOM     26  C   UNL     1      32.153  -8.420 -21.144  0.00  0.00    +0.002 C 
ATOM     27  C   UNL     1      34.092  -7.115 -21.757  0.00  0.00    +0.002 C 
ATOM     28  C   UNL     1      33.001  -7.337 -20.916  0.00  0.00    +0.031 C 
BRANCH  28  31
ATOM     29  N   UNL     1      31.774  -5.445 -19.877  0.00  0.00    -0.343 N 
ATOM     30  N   UNL     1      33.453  -6.555 -18.689  0.00  0.00    -0.285 NA
ATOM     31  C   UNL     1      32.748  -6.438 -19.801  0.00  0.00    +0.117 C 
ATOM     32  H   UNL     1      31.620  -4.847 -19.109  0.00  0.00    +0.144 HD
ATOM     33  H   UNL     1      31.240  -5.340 -20.697  0.00  0.00    +0.144 HD
ATOM     34  H   UNL     1      33.284  -5.947 -17.933  0.00  0.00    +0.188 HD
ENDBRANCH  28  31
ENDBRANCH  22  23
ENDBRANCH   4  22
TORSDOF 6
ENDMDL
MODEL 6
REMARK VINA RESULT:     -11.3      5.064      8.830
REMARK  Name = 446805
REMARK  6 active torsions:
REMARK  status: ('A' for Active; 'I' for Inactive)
REMARK    1  A    between atoms: C_4  and  C_22
REMARK    2  A    between atoms: C_7  and  N_11
REMARK    3  A    between atoms: N_11  and  S_13
REMARK    4  A    between atoms: S_13  and  C_16
REMARK    5  A    between atoms: C_22  and  C_23
REMARK    6  A    between atoms: C_28  and  C_31
REMARK                            x       y       z     vdW  Elec       q    Type
REMARK                         _______ _______ _______ _____ _____    ______ ____
ROOT
ATOM      1  N   UNL     1      34.930 -16.453 -23.531  0.00  0.00    -0.262 N 
ATOM      2  N   UNL     1      35.752 -15.529 -21.684  0.00  0.00    -0.394 NA
ATOM      3  C   UNL     1      34.395 -15.191 -23.484  0.00  0.00    +0.079 C 
ATOM      4  C   UNL     1      35.732 -16.607 -22.436  0.00  0.00    +0.168 C 
ATOM      5  C   UNL     1      34.924 -14.634 -22.324  0.00  0.00    +0.129 C 
ATOM      6  C   UNL     1      34.571 -13.320 -21.971  0.00  0.00    +0.103 C 
ATOM      7  C   UNL     1      33.696 -12.617 -22.808  0.00  0.00    +0.050 C 
ATOM      8  C   UNL     1      33.523 -14.509 -24.333  0.00  0.00    +0.018 C 
ATOM      9  C   UNL     1      34.685 -17.441 -24.557  0.00  0.00    +0.119 C 
ATOM     10  C   UNL     1      33.182 -13.202 -23.968  0.00  0.00    +0.013 C 
ENDROOT
BRANCH   7  11
ATOM     11  N   UNL     1      33.323 -11.280 -22.469  0.00  0.00    -0.219 N 
ATOM     12  H   UNL     1      32.778 -11.082 -21.672  0.00  0.00    +0.173 HD
BRANCH  11  13
ATOM     13  S   UNL     1      33.879 -10.021 -23.529  0.00  0.00    +0.073 S 
ATOM     14  O   UNL     1      33.402 -10.282 -24.873  0.00  0.00    -0.150 OA
ATOM     15  O   UNL     1      35.288  -9.777 -23.281  0.00  0.00    -0.150 OA
BRANCH  13  16
ATOM     16  C   UNL     1      32.999  -8.617 -22.911  0.00  0.00    +0.125 C 
ATOM     17  C   UNL     1      32.576  -7.643 -23.799  0.00  0.00    +0.020 C 
ATOM     18  C   UNL     1      32.752  -8.519 -21.554  0.00  0.00    +0.020 C 
ATOM     19  C   UNL     1      31.882  -6.535 -23.311  0.00  0.00    +0.001 C 
ATOM     20  C   UNL     1      32.057  -7.412 -21.066  0.00  0.00    +0.001 C 
ATOM     21  C   UNL     1      31.622  -6.420 -21.945  0.00  0.00    +0.000 C 
ENDBRANCH  13  16
ENDBRANCH  11  13
ENDBRANCH   7  11
BRANCH   4  22
ATOM     22  C   UNL     1      36.470 -17.860 -22.171  0.00  0.00    +0.101 C 
BRANCH  22  23
ATOM     23  C   UNL     1      35.807 -18.760 -21.137  0.00  0.00    -0.014 C 
ATOM     24  C   UNL     1      36.597 -19.395 -20.201  0.00  0.00    -0.004 C 
ATOM     25  C   UNL     1      34.436 -18.912 -21.168  0.00  0.00    -0.004 C 
ATOM     26  C   UNL     1      35.989 -20.219 -19.253  0.00  0.00    +0.002 C 
ATOM     27  C   UNL     1      33.828 -19.736 -20.221  0.00  0.00    +0.002 C 
ATOM     28  C   UNL     1      34.605 -20.389 -19.264  0.00  0.00    +0.031 C 
BRANCH  28  31
ATOM     29  N   UNL     1      32.590 -21.241 -18.088  0.00  0.00    -0.343 N 
ATOM     30  N   UNL     1      34.709 -22.057 -17.536  0.00  0.00    -0.285 NA
ATOM     31  C   UNL     1      33.971 -21.249 -18.277  0.00  0.00    +0.117 C 
ATOM     32  H   UNL     1      32.182 -21.831 -17.414  0.00  0.00    +0.144 HD
ATOM     33  H   UNL     1      32.022 -20.645 -18.628  0.00  0.00    +0.144 HD
ATOM     34  H   UNL     1      34.283 -22.640 -16.868  0.00  0.00    +0.188 HD
ENDBRANCH  28  31
ENDBRANCH  22  23
ENDBRANCH   4  22
TORSDOF 6
ENDMDL
MODEL 7
REMARK VINA RESULT:     -11.3      4.350      7.469
REMARK  Name = 446805
REMARK  6 active torsions:
REMARK  status: ('A' for Active; 'I' for Inactive)
REMARK    1  A    between atoms: C_4  and  C_22
REMARK    2  A    between atoms: C_7  and  N_11
REMARK    3  A    between atoms: N_11  and  S_13
REMARK    4  A    between atoms: S_13  and  C_16
REMARK    5  A    between atoms: C_22  and  C_23
REMARK    6  A    between atoms: C_28  and  C_31
REMARK                            x       y       z     vdW  Elec       q    Type
REMARK                         _______ _______ _______ _____ _____    ______ ____
ROOT
ATOM      1  N   UNL     1      35.740 -17.529 -22.055  0.00  0.00    -0.262 N 
ATOM      2  N   UNL     1      35.749 -16.980 -19.901  0.00  0.00    -0.394 NA
ATOM      3  C   UNL     1      35.289 -16.235 -22.005  0.00  0.00    +0.079 C 
ATOM      4  C   UNL     1      36.000 -17.929 -20.775  0.00  0.00    +0.168 C 
ATOM      5  C   UNL     1      35.305 -15.915 -20.651  0.00  0.00    +0.129 C 
ATOM      6  C   UNL     1      34.893 -14.634 -20.243  0.00  0.00    +0.103 C 
ATOM      7  C   UNL     1      34.481 -13.723 -21.224  0.00  0.00    +0.050 C 
ATOM      8  C   UNL     1      34.884 -15.342 -22.998  0.00  0.00    +0.018 C 
ATOM      9  C   UNL     1      35.906 -18.324 -23.251  0.00  0.00    +0.119 C 
ATOM     10  C   UNL     1      34.477 -14.072 -22.576  0.00  0.00    +0.013 C 
ENDROOT
BRANCH   7  11
ATOM     11  N   UNL     1      34.057 -12.415 -20.833  0.00  0.00    -0.219 N 
ATOM     12  H   UNL     1      34.704 -11.692 -20.664  0.00  0.00    +0.173 HD
BRANCH  11  13
ATOM     13  S   UNL     1      32.346 -12.164 -20.671  0.00  0.00    +0.073 S 
ATOM     14  O   UNL     1      31.856 -12.920 -19.534  0.00  0.00    -0.150 OA
ATOM     15  O   UNL     1      31.719 -12.302 -21.972  0.00  0.00    -0.150 OA
BRANCH  13  16
ATOM     16  C   UNL     1      32.273 -10.449 -20.246  0.00  0.00    +0.125 C 
ATOM     17  C   UNL     1      32.203 -10.088 -18.911  0.00  0.00    +0.020 C 
ATOM     18  C   UNL     1      32.288  -9.503 -21.255  0.00  0.00    +0.020 C 
ATOM     19  C   UNL     1      32.147  -8.734 -18.577  0.00  0.00    +0.001 C 
ATOM     20  C   UNL     1      32.231  -8.150 -20.920  0.00  0.00    +0.001 C 
ATOM     21  C   UNL     1      32.161  -7.765 -19.581  0.00  0.00    +0.000 C 
ENDBRANCH  13  16
ENDBRANCH  11  13
ENDBRANCH   7  11
BRANCH   4  22
ATOM     22  C   UNL     1      36.505 -19.283 -20.462  0.00  0.00    +0.101 C 
BRANCH  22  23
ATOM     23  C   UNL     1      35.595 -20.082 -19.538  0.00  0.00    -0.014 C 
ATOM     24  C   UNL     1      34.231 -20.035 -19.742  0.00  0.00    -0.004 C 
ATOM     25  C   UNL     1      36.163 -20.827 -18.525  0.00  0.00    -0.004 C 
ATOM     26  C   UNL     1      33.398 -20.767 -18.895  0.00  0.00    +0.002 C 
ATOM     27  C   UNL     1      35.330 -21.558 -17.679  0.00  0.00    +0.002 C 
ATOM     28  C   UNL     1      33.948 -21.528 -17.864  0.00  0.00    +0.031 C 
BRANCH  28  31
ATOM     29  N   UNL     1      31.695 -22.139 -17.017  0.00  0.00    -0.343 N 
ATOM     30  N   UNL     1      33.603 -23.146 -16.120  0.00  0.00    -0.285 NA
ATOM     31  C   UNL     1      33.079 -22.291 -16.981  0.00  0.00    +0.117 C 
ATOM     32  H   UNL     1      31.126 -22.665 -16.410  0.00  0.00    +0.144 HD
ATOM     33  H   UNL     1      31.285 -21.505 -17.649  0.00  0.00    +0.144 HD
ATOM     34  H   UNL     1      33.017 -23.663 -15.521  0.00  0.00    +0.188 HD
ENDBRANCH  28  31
ENDBRANCH  22  23
ENDBRANCH   4  22
TORSDOF 6
ENDMDL
MODEL 8
REMARK VINA RESULT:     -11.2      3.442      9.438
REMARK  Name = 446805
REMARK  6 active torsions:
REMARK  status: ('A' for Active; 'I' for Inactive)
REMARK    1  A    between atoms: C_4  and  C_22
REMARK    2  A    between atoms: C_7  and  N_11
REMARK    3  A    between atoms: N_11  and  S_13
REMARK    4  A    between atoms: S_13  and  C_16
REMARK    5  A    between atoms: C_22  and  C_23
REMARK    6  A    between atoms: C_28  and  C_31
REMARK                            x       y       z     vdW  Elec       q    Type
REMARK                         _______ _______ _______ _____ _____    ______ ____
ROOT
ATOM      1  N   UNL     1      36.352 -18.416 -21.167  0.00  0.00    -0.262 N 
ATOM      2  N   UNL     1      34.175 -18.232 -21.577  0.00  0.00    -0.394 NA
ATOM      3  C   UNL     1      35.742 -19.299 -20.313  0.00  0.00    +0.079 C 
ATOM      4  C   UNL     1      35.375 -17.803 -21.900  0.00  0.00    +0.168 C 
ATOM      5  C   UNL     1      34.385 -19.166 -20.589  0.00  0.00    +0.129 C 
ATOM      6  C   UNL     1      33.460 -19.947 -19.874  0.00  0.00    +0.103 C 
ATOM      7  C   UNL     1      33.944 -20.835 -18.905  0.00  0.00    +0.050 C 
ATOM      8  C   UNL     1      36.247 -20.178 -19.353  0.00  0.00    +0.018 C 
ATOM      9  C   UNL     1      37.774 -18.178 -21.268  0.00  0.00    +0.119 C 
ATOM     10  C   UNL     1      35.313 -20.947 -18.651  0.00  0.00    +0.013 C 
ENDROOT
BRANCH   7  11
ATOM     11  N   UNL     1      33.022 -21.638 -18.166  0.00  0.00    -0.219 N 
ATOM     12  H   UNL     1      32.054 -21.610 -18.344  0.00  0.00    +0.173 HD
BRANCH  11  13
ATOM     13  S   UNL     1      33.692 -22.667 -16.938  0.00  0.00    +0.073 S 
ATOM     14  O   UNL     1      34.851 -22.022 -16.351  0.00  0.00    -0.150 OA
ATOM     15  O   UNL     1      33.785 -24.022 -17.450  0.00  0.00    -0.150 OA
BRANCH  13  16
ATOM     16  C   UNL     1      32.405 -22.665 -15.725  0.00  0.00    +0.125 C 
ATOM     17  C   UNL     1      32.723 -22.935 -14.405  0.00  0.00    +0.020 C 
ATOM     18  C   UNL     1      31.108 -22.393 -16.119  0.00  0.00    +0.020 C 
ATOM     19  C   UNL     1      31.708 -22.932 -13.448  0.00  0.00    +0.001 C 
ATOM     20  C   UNL     1      30.093 -22.391 -15.162  0.00  0.00    +0.001 C 
ATOM     21  C   UNL     1      30.393 -22.660 -13.826  0.00  0.00    +0.000 C 
ENDBRANCH  13  16
ENDBRANCH  11  13
ENDBRANCH   7  11
BRANCH   4  22
ATOM     22  C   UNL     1      35.684 -16.784 -22.924  0.00  0.00    +0.101 C 
BRANCH  22  23
ATOM     23  C   UNL     1      34.966 -15.457 -22.709  0.00  0.00    -0.014 C 
ATOM     24  C   UNL     1      34.987 -14.883 -21.455  0.00  0.00    -0.004 C 
ATOM     25  C   UNL     1      34.318 -14.870 -23.777  0.00  0.00    -0.004 C 
ATOM     26  C   UNL     1      34.330 -13.668 -21.259  0.00  0.00    +0.002 C 
ATOM     27  C   UNL     1      33.661 -13.656 -23.581  0.00  0.00    +0.002 C 
ATOM     28  C   UNL     1      33.667 -13.055 -22.322  0.00  0.00    +0.031 C 
BRANCH  28  31
ATOM     29  N   UNL     1      33.422 -10.618 -22.732  0.00  0.00    -0.343 N 
ATOM     30  N   UNL     1      31.920 -11.734 -21.332  0.00  0.00    -0.285 NA
ATOM     31  C   UNL     1      32.981 -11.789 -22.117  0.00  0.00    +0.117 C 
ATOM     32  H   UNL     1      32.942  -9.772 -22.579  0.00  0.00    +0.144 HD
ATOM     33  H   UNL     1      34.212 -10.637 -23.319  0.00  0.00    +0.144 HD
ATOM     34  H   UNL     1      31.454 -10.879 -21.192  0.00  0.00    +0.188 HD
ENDBRANCH  28  31
ENDBRANCH  22  23
ENDBRANCH   4  22
TORSDOF 6
ENDMDL
MODEL 9
REMARK VINA RESULT:     -10.9      5.078      9.734
REMARK  Name = 446805
REMARK  6 active torsions:
REMARK  status: ('A' for Active; 'I' for Inactive)
REMARK    1  A    between atoms: C_4  and  C_22
REMARK    2  A    between atoms: C_7  and  N_11
REMARK    3  A    between atoms: N_11  and  S_13
REMARK    4  A    between atoms: S_13  and  C_16
REMARK    5  A    between atoms: C_22  and  C_23
REMARK    6  A    between atoms: C_28  and  C_31
REMARK                            x       y       z     vdW  Elec       q    Type
REMARK                         _______ _______ _______ _____ _____    ______ ____
ROOT
ATOM      1  N   UNL     1      34.947 -19.579 -20.269  0.00  0.00    -0.262 N 
ATOM      2  N   UNL     1      37.062 -19.220 -19.688  0.00  0.00    -0.394 NA
ATOM      3  C   UNL     1      35.144 -20.315 -19.129  0.00  0.00    +0.079 C 
ATOM      4  C   UNL     1      36.121 -18.944 -20.562  0.00  0.00    +0.168 C 
ATOM      5  C   UNL     1      36.471 -20.073 -18.785  0.00  0.00    +0.129 C 
ATOM      6  C   UNL     1      37.006 -20.688 -17.640  0.00  0.00    +0.103 C 
ATOM      7  C   UNL     1      36.177 -21.526 -16.884  0.00  0.00    +0.050 C 
ATOM      8  C   UNL     1      34.300 -21.144 -18.389  0.00  0.00    +0.018 C 
ATOM      9  C   UNL     1      33.717 -19.495 -21.023  0.00  0.00    +0.119 C 
ATOM     10  C   UNL     1      34.848 -21.748 -17.252  0.00  0.00    +0.013 C 
ENDROOT
BRANCH   7  11
ATOM     11  N   UNL     1      36.700 -22.162 -15.716  0.00  0.00    -0.219 N 
ATOM     12  H   UNL     1      37.641 -22.054 -15.446  0.00  0.00    +0.173 HD
BRANCH  11  13
ATOM     13  S   UNL     1      35.595 -23.136 -14.795  0.00  0.00    +0.073 S 
ATOM     14  O   UNL     1      35.400 -24.406 -15.467  0.00  0.00    -0.150 OA
ATOM     15  O   UNL     1      34.455 -22.325 -14.408  0.00  0.00    -0.150 OA
BRANCH  13  16
ATOM     16  C   UNL     1      36.527 -23.444 -13.324  0.00  0.00    +0.125 C 
ATOM     17  C   UNL     1      37.812 -23.947 -13.434  0.00  0.00    +0.020 C 
ATOM     18  C   UNL     1      35.954 -23.177 -12.094  0.00  0.00    +0.020 C 
ATOM     19  C   UNL     1      38.548 -24.189 -12.274  0.00  0.00    +0.001 C 
ATOM     20  C   UNL     1      36.690 -23.420 -10.934  0.00  0.00    +0.001 C 
ATOM     21  C   UNL     1      37.987 -23.926 -11.024  0.00  0.00    +0.000 C 
ENDBRANCH  13  16
ENDBRANCH  11  13
ENDBRANCH   7  11
BRANCH   4  22
ATOM     22  C   UNL     1      36.263 -18.060 -21.739  0.00  0.00    +0.101 C 
BRANCH  22  23
ATOM     23  C   UNL     1      35.592 -16.702 -21.575  0.00  0.00    -0.014 C 
ATOM     24  C   UNL     1      35.364 -16.221 -20.303  0.00  0.00    -0.004 C 
ATOM     25  C   UNL     1      35.233 -15.997 -22.705  0.00  0.00    -0.004 C 
ATOM     26  C   UNL     1      34.749 -14.977 -20.153  0.00  0.00    +0.002 C 
ATOM     27  C   UNL     1      34.617 -14.754 -22.555  0.00  0.00    +0.002 C 
ATOM     28  C   UNL     1      34.376 -14.244 -21.279  0.00  0.00    +0.031 C 
BRANCH  28  31
ATOM     29  N   UNL     1      32.913 -12.673 -20.032  0.00  0.00    -0.343 N 
ATOM     30  N   UNL     1      33.924 -12.007 -22.031  0.00  0.00    -0.285 NA
ATOM     31  C   UNL     1      33.734 -12.948 -21.123  0.00  0.00    +0.117 C 
ATOM     32  H   UNL     1      32.489 -11.788 -19.946  0.00  0.00    +0.144 HD
ATOM     33  H   UNL     1      32.758 -13.361 -19.346  0.00  0.00    +0.144 HD
ATOM     34  H   UNL     1      33.490 -11.129 -21.928  0.00  0.00    +0.188 HD
ENDBRANCH  28  31
ENDBRANCH  22  23
ENDBRANCH   4  22
TORSDOF 6
ENDMDL
