MODEL 1
REMARK VINA RESULT:     -12.9      0.000      0.000
REMARK  Name = 16755766
REMARK  5 active torsions:
REMARK  status: ('A' for Active; 'I' for Inactive)
REMARK    1  A    between atoms: N_1  and  C_25
REMARK    2  A    between atoms: N_3  and  C_12
REMARK    3  A    between atoms: C_5  and  C_20
REMARK    4  A    between atoms: C_25  and  C_26
REMARK    5  A    between atoms: C_26  and  C_29
REMARK                            x       y       z     vdW  Elec       q    Type
REMARK                         _______ _______ _______ _____ _____    ______ ____
ROOT
ATOM      1  N   UNL     1      32.854 -22.764 -15.489  0.00  0.00    -0.174 N 
ATOM      2  N   UNL     1      34.070 -22.956 -14.974  0.00  0.00    -0.096 NA
ATOM      3  N   UNL     1      34.627 -23.877 -12.832  0.00  0.00    -0.246 N 
ATOM      4  N   UNL     1      32.413 -23.620 -13.544  0.00  0.00    -0.319 NA
ATOM      5  C   UNL     1      31.873 -23.154 -14.647  0.00  0.00    +0.216 C 
ATOM      6  C   UNL     1      33.748 -23.480 -13.789  0.00  0.00    +0.165 C 
ATOM      7  H   UNL     1      34.200 -24.158 -11.991  0.00  0.00    +0.165 HD
ENDROOT
BRANCH   3  12
ATOM      8  F   UNL     1      40.796 -26.254 -13.791  0.00  0.00    -0.125 F 
ATOM      9  F   UNL     1      40.927 -24.428 -14.989  0.00  0.00    -0.125 F 
ATOM     10  O   UNL     1      38.892 -25.367 -14.644  0.00  0.00    -0.395 OA
ATOM     11  O   UNL     1      40.129 -24.292 -12.871  0.00  0.00    -0.395 OA
ATOM     12  C   UNL     1      36.048 -23.965 -12.813  0.00  0.00    +0.061 C 
ATOM     13  C   UNL     1      38.079 -24.728 -13.757  0.00  0.00    +0.183 C 
ATOM     14  C   UNL     1      36.701 -24.670 -13.819  0.00  0.00    +0.056 C 
ATOM     15  C   UNL     1      38.785 -24.115 -12.746  0.00  0.00    +0.182 C 
ATOM     16  C   UNL     1      36.758 -23.338 -11.781  0.00  0.00    +0.019 C 
ATOM     17  C   UNL     1      38.152 -23.411 -11.742  0.00  0.00    +0.042 C 
ATOM     18  C   UNL     1      40.174 -25.081 -14.068  0.00  0.00    +0.589 C 
ENDBRANCH   3  12
BRANCH   5  20
ATOM     19  N   UNL     1      27.733 -22.874 -15.502  0.00  0.00    -0.242 NA
ATOM     20  C   UNL     1      30.463 -23.059 -14.936  0.00  0.00    +0.050 C 
ATOM     21  C   UNL     1      29.753 -21.917 -14.581  0.00  0.00    +0.025 C 
ATOM     22  C   UNL     1      29.810 -24.108 -15.574  0.00  0.00    +0.025 C 
ATOM     23  C   UNL     1      28.402 -21.875 -14.884  0.00  0.00    +0.099 C 
ATOM     24  C   UNL     1      28.456 -23.967 -15.831  0.00  0.00    +0.099 C 
ENDBRANCH   5  20
BRANCH   1  25
ATOM     25  C   UNL     1      32.721 -22.178 -16.817  0.00  0.00    +0.129 C 
BRANCH  25  26
ATOM     26  C   UNL     1      34.032 -22.224 -17.601  0.00  0.00    +0.109 C 
BRANCH  26  29
ATOM     27  O   UNL     1      32.996 -21.129 -19.464  0.00  0.00    -0.275 OA
ATOM     28  N   UNL     1      35.232 -20.641 -19.088  0.00  0.00    -0.276 N 
ATOM     29  C   UNL     1      34.025 -21.287 -18.802  0.00  0.00    +0.228 C 
ATOM     30  C   UNL     1      36.439 -20.844 -18.289  0.00  0.00    +0.115 C 
ATOM     31  C   UNL     1      35.378 -19.717 -20.206  0.00  0.00    +0.115 C 
ENDBRANCH  26  29
ENDBRANCH  25  26
ENDBRANCH   1  25
TORSDOF 5
ENDMDL
MODEL 2
REMARK VINA RESULT:     -11.8      4.305      8.095
REMARK  Name = 16755766
REMARK  5 active torsions:
REMARK  status: ('A' for Active; 'I' for Inactive)
REMARK    1  A    between atoms: N_1  and  C_25
REMARK    2  A    between atoms: N_3  and  C_12
REMARK    3  A    between atoms: C_5  and  C_20
REMARK    4  A    between atoms: C_25  and  C_26
REMARK    5  A    between atoms: C_26  and  C_29
REMARK                            x       y       z     vdW  Elec       q    Type
REMARK                         _______ _______ _______ _____ _____    ______ ____
ROOT
ATOM      1  N   UNL     1      35.014 -23.102 -15.100  0.00  0.00    -0.174 N 
ATOM      2  N   UNL     1      34.904 -22.306 -16.165  0.00  0.00    -0.096 NA
ATOM      3  N   UNL     1      36.667 -21.223 -17.375  0.00  0.00    -0.246 N 
ATOM      4  N   UNL     1      37.080 -22.586 -15.518  0.00  0.00    -0.319 NA
ATOM      5  C   UNL     1      36.297 -23.270 -14.715  0.00  0.00    +0.216 C 
ATOM      6  C   UNL     1      36.189 -22.017 -16.382  0.00  0.00    +0.165 C 
ATOM      7  H   UNL     1      37.636 -21.059 -17.322  0.00  0.00    +0.165 HD
ENDROOT
BRANCH   3  12
ATOM      8  F   UNL     1      35.223 -16.615 -21.991  0.00  0.00    -0.125 F 
ATOM      9  F   UNL     1      35.849 -18.250 -23.302  0.00  0.00    -0.125 F 
ATOM     10  O   UNL     1      36.641 -18.186 -21.178  0.00  0.00    -0.395 OA
ATOM     11  O   UNL     1      34.329 -18.675 -21.675  0.00  0.00    -0.395 OA
ATOM     12  C   UNL     1      36.034 -20.583 -18.478  0.00  0.00    +0.061 C 
ATOM     13  C   UNL     1      36.103 -19.088 -20.310  0.00  0.00    +0.183 C 
ATOM     14  C   UNL     1      36.760 -19.684 -19.253  0.00  0.00    +0.056 C 
ATOM     15  C   UNL     1      34.784 -19.367 -20.594  0.00  0.00    +0.182 C 
ATOM     16  C   UNL     1      34.692 -20.872 -18.759  0.00  0.00    +0.019 C 
ATOM     17  C   UNL     1      34.051 -20.256 -19.836  0.00  0.00    +0.042 C 
ATOM     18  C   UNL     1      35.510 -17.941 -22.026  0.00  0.00    +0.589 C 
ENDBRANCH   3  12
BRANCH   5  20
ATOM     19  N   UNL     1      37.520 -25.634 -11.418  0.00  0.00    -0.242 NA
ATOM     20  C   UNL     1      36.715 -24.073 -13.592  0.00  0.00    +0.050 C 
ATOM     21  C   UNL     1      36.730 -23.531 -12.312  0.00  0.00    +0.025 C 
ATOM     22  C   UNL     1      37.102 -25.395 -13.787  0.00  0.00    +0.025 C 
ATOM     23  C   UNL     1      37.137 -24.346 -11.268  0.00  0.00    +0.099 C 
ATOM     24  C   UNL     1      37.492 -26.125 -12.676  0.00  0.00    +0.099 C 
ENDBRANCH   5  20
BRANCH   1  25
ATOM     25  C   UNL     1      33.812 -23.663 -14.495  0.00  0.00    +0.129 C 
BRANCH  25  26
ATOM     26  C   UNL     1      32.767 -22.591 -14.189  0.00  0.00    +0.109 C 
BRANCH  26  29
ATOM     27  O   UNL     1      31.396 -22.299 -16.133  0.00  0.00    -0.275 OA
ATOM     28  N   UNL     1      30.467 -23.501 -14.380  0.00  0.00    -0.276 N 
ATOM     29  C   UNL     1      31.491 -22.775 -14.999  0.00  0.00    +0.228 C 
ATOM     30  C   UNL     1      30.602 -24.056 -13.035  0.00  0.00    +0.115 C 
ATOM     31  C   UNL     1      29.188 -23.757 -15.031  0.00  0.00    +0.115 C 
ENDBRANCH  26  29
ENDBRANCH  25  26
ENDBRANCH   1  25
TORSDOF 5
ENDMDL
MODEL 3
REMARK VINA RESULT:     -11.3      4.491      8.240
REMARK  Name = 16755766
REMARK  5 active torsions:
REMARK  status: ('A' for Active; 'I' for Inactive)
REMARK    1  A    between atoms: N_1  and  C_25
REMARK    2  A    between atoms: N_3  and  C_12
REMARK    3  A    between atoms: C_5  and  C_20
REMARK    4  A    between atoms: C_25  and  C_26
REMARK    5  A    between atoms: C_26  and  C_29
REMARK                            x       y       z     vdW  Elec       q    Type
REMARK                         _______ _______ _______ _____ _____    ______ ____
ROOT
ATOM      1  N   UNL     1      34.957 -22.832 -14.453  0.00  0.00    -0.174 N 
ATOM      2  N   UNL     1      33.668 -22.946 -14.778  0.00  0.00    -0.096 NA
ATOM      3  N   UNL     1      31.895 -23.855 -13.446  0.00  0.00    -0.246 N 
ATOM      4  N   UNL     1      34.104 -23.752 -12.681  0.00  0.00    -0.319 NA
ATOM      5  C   UNL     1      35.218 -23.307 -13.216  0.00  0.00    +0.216 C 
ATOM      6  C   UNL     1      33.191 -23.512 -13.667  0.00  0.00    +0.165 C 
ATOM      7  H   UNL     1      31.750 -24.339 -12.601  0.00  0.00    +0.165 HD
ENDROOT
BRANCH   3  12
ATOM      8  F   UNL     1      25.900 -21.506 -15.225  0.00  0.00    -0.125 F 
ATOM      9  F   UNL     1      27.092 -20.744 -16.894  0.00  0.00    -0.125 F 
ATOM     10  O   UNL     1      28.118 -21.159 -14.915  0.00  0.00    -0.395 OA
ATOM     11  O   UNL     1      27.280 -22.930 -16.325  0.00  0.00    -0.395 OA
ATOM     12  C   UNL     1      30.707 -23.648 -14.201  0.00  0.00    +0.061 C 
ATOM     13  C   UNL     1      28.899 -22.275 -14.866  0.00  0.00    +0.183 C 
ATOM     14  C   UNL     1      30.047 -22.427 -14.115  0.00  0.00    +0.056 C 
ATOM     15  C   UNL     1      28.420 -23.285 -15.671  0.00  0.00    +0.182 C 
ATOM     16  C   UNL     1      30.227 -24.682 -15.017  0.00  0.00    +0.019 C 
ATOM     17  C   UNL     1      29.063 -24.502 -15.768  0.00  0.00    +0.042 C 
ATOM     18  C   UNL     1      27.108 -21.593 -15.836  0.00  0.00    +0.589 C 
ENDBRANCH   3  12
BRANCH   5  20
ATOM     19  N   UNL     1      39.057 -23.333 -11.421  0.00  0.00    -0.242 NA
ATOM     20  C   UNL     1      36.525 -23.317 -12.604  0.00  0.00    +0.050 C 
ATOM     21  C   UNL     1      37.448 -24.299 -12.946  0.00  0.00    +0.025 C 
ATOM     22  C   UNL     1      36.866 -22.343 -11.672  0.00  0.00    +0.025 C 
ATOM     23  C   UNL     1      38.690 -24.263 -12.331  0.00  0.00    +0.099 C 
ATOM     24  C   UNL     1      38.133 -22.395 -11.115  0.00  0.00    +0.099 C 
ENDBRANCH   5  20
BRANCH   1  25
ATOM     25  C   UNL     1      35.892 -22.254 -15.411  0.00  0.00    +0.129 C 
BRANCH  25  26
ATOM     26  C   UNL     1      35.242 -22.009 -16.772  0.00  0.00    +0.109 C 
BRANCH  26  29
ATOM     27  O   UNL     1      37.320 -21.019 -17.442  0.00  0.00    -0.275 OA
ATOM     28  N   UNL     1      35.493 -20.626 -18.816  0.00  0.00    -0.276 N 
ATOM     29  C   UNL     1      36.122 -21.178 -17.696  0.00  0.00    +0.228 C 
ATOM     30  C   UNL     1      34.073 -20.827 -19.097  0.00  0.00    +0.115 C 
ATOM     31  C   UNL     1      36.206 -19.806 -19.788  0.00  0.00    +0.115 C 
ENDBRANCH  26  29
ENDBRANCH  25  26
ENDBRANCH   1  25
TORSDOF 5
ENDMDL
MODEL 4
REMARK VINA RESULT:     -10.6      3.831      7.212
REMARK  Name = 16755766
REMARK  5 active torsions:
REMARK  status: ('A' for Active; 'I' for Inactive)
REMARK    1  A    between atoms: N_1  and  C_25
REMARK    2  A    between atoms: N_3  and  C_12
REMARK    3  A    between atoms: C_5  and  C_20
REMARK    4  A    between atoms: C_25  and  C_26
REMARK    5  A    between atoms: C_26  and  C_29
REMARK                            x       y       z     vdW  Elec       q    Type
REMARK                         _______ _______ _______ _____ _____    ______ ____
ROOT
ATOM      1  N   UNL     1      33.539 -22.767 -15.628  0.00  0.00    -0.174 N 
ATOM      2  N   UNL     1      34.128 -22.095 -16.618  0.00  0.00    -0.096 NA
ATOM      3  N   UNL     1      33.091 -21.087 -18.529  0.00  0.00    -0.246 N 
ATOM      4  N   UNL     1      31.863 -22.233 -16.899  0.00  0.00    -0.319 NA
ATOM      5  C   UNL     1      32.201 -22.850 -15.791  0.00  0.00    +0.216 C 
ATOM      6  C   UNL     1      33.066 -21.790 -17.367  0.00  0.00    +0.165 C 
ATOM      7  H   UNL     1      32.218 -21.037 -18.982  0.00  0.00    +0.165 HD
ENDROOT
BRANCH   3  12
ATOM      8  F   UNL     1      36.399 -17.911 -23.386  0.00  0.00    -0.125 F 
ATOM      9  F   UNL     1      36.361 -16.323 -21.882  0.00  0.00    -0.125 F 
ATOM     10  O   UNL     1      34.751 -17.918 -21.829  0.00  0.00    -0.395 OA
ATOM     11  O   UNL     1      37.051 -18.393 -21.268  0.00  0.00    -0.395 OA
ATOM     12  C   UNL     1      34.136 -20.409 -19.217  0.00  0.00    +0.061 C 
ATOM     13  C   UNL     1      34.863 -18.851 -20.842  0.00  0.00    +0.183 C 
ATOM     14  C   UNL     1      33.814 -19.482 -20.203  0.00  0.00    +0.056 C 
ATOM     15  C   UNL     1      36.175 -19.121 -20.522  0.00  0.00    +0.182 C 
ATOM     16  C   UNL     1      35.468 -20.691 -18.885  0.00  0.00    +0.019 C 
ATOM     17  C   UNL     1      36.510 -20.037 -19.547  0.00  0.00    +0.042 C 
ATOM     18  C   UNL     1      36.136 -17.645 -22.081  0.00  0.00    +0.589 C 
ENDBRANCH   3  12
BRANCH   5  20
ATOM     19  N   UNL     1      29.573 -24.823 -13.115  0.00  0.00    -0.242 NA
ATOM     20  C   UNL     1      31.308 -23.523 -14.879  0.00  0.00    +0.050 C 
ATOM     21  C   UNL     1      31.507 -23.426 -13.506  0.00  0.00    +0.025 C 
ATOM     22  C   UNL     1      30.242 -24.269 -15.371  0.00  0.00    +0.025 C 
ATOM     23  C   UNL     1      30.619 -24.089 -12.674  0.00  0.00    +0.099 C 
ATOM     24  C   UNL     1      29.412 -24.894 -14.455  0.00  0.00    +0.099 C 
ENDBRANCH   5  20
BRANCH   1  25
ATOM     25  C   UNL     1      34.350 -23.315 -14.548  0.00  0.00    +0.129 C 
BRANCH  25  26
ATOM     26  C   UNL     1      35.825 -23.421 -14.933  0.00  0.00    +0.109 C 
BRANCH  26  29
ATOM     27  O   UNL     1      36.191 -25.783 -15.116  0.00  0.00    -0.275 OA
ATOM     28  N   UNL     1      37.296 -24.693 -13.393  0.00  0.00    -0.276 N 
ATOM     29  C   UNL     1      36.445 -24.744 -14.502  0.00  0.00    +0.228 C 
ATOM     30  C   UNL     1      37.582 -23.450 -12.680  0.00  0.00    +0.115 C 
ATOM     31  C   UNL     1      37.960 -25.878 -12.863  0.00  0.00    +0.115 C 
ENDBRANCH  26  29
ENDBRANCH  25  26
ENDBRANCH   1  25
TORSDOF 5
ENDMDL
MODEL 5
REMARK VINA RESULT:     -10.0      7.246     11.550
REMARK  Name = 16755766
REMARK  5 active torsions:
REMARK  status: ('A' for Active; 'I' for Inactive)
REMARK    1  A    between atoms: N_1  and  C_25
REMARK    2  A    between atoms: N_3  and  C_12
REMARK    3  A    between atoms: C_5  and  C_20
REMARK    4  A    between atoms: C_25  and  C_26
REMARK    5  A    between atoms: C_26  and  C_29
REMARK                            x       y       z     vdW  Elec       q    Type
REMARK                         _______ _______ _______ _____ _____    ______ ____
ROOT
ATOM      1  N   UNL     1      34.278 -13.847 -21.774  0.00  0.00    -0.174 N 
ATOM      2  N   UNL     1      34.536 -15.064 -21.293  0.00  0.00    -0.096 NA
ATOM      3  N   UNL     1      35.247 -17.002 -22.511  0.00  0.00    -0.246 N 
ATOM      4  N   UNL     1      34.842 -14.948 -23.557  0.00  0.00    -0.319 NA
ATOM      5  C   UNL     1      34.457 -13.775 -23.111  0.00  0.00    +0.216 C 
ATOM      6  C   UNL     1      34.875 -15.699 -22.418  0.00  0.00    +0.165 C 
ATOM      7  H   UNL     1      35.377 -17.313 -23.436  0.00  0.00    +0.165 HD
ENDROOT
BRANCH   3  12
ATOM      8  F   UNL     1      34.149 -21.289 -17.507  0.00  0.00    -0.125 F 
ATOM      9  F   UNL     1      34.687 -22.709 -19.082  0.00  0.00    -0.125 F 
ATOM     10  O   UNL     1      33.832 -20.693 -19.672  0.00  0.00    -0.395 OA
ATOM     11  O   UNL     1      36.035 -20.925 -18.711  0.00  0.00    -0.395 OA
ATOM     12  C   UNL     1      35.483 -18.004 -21.529  0.00  0.00    +0.061 C 
ATOM     13  C   UNL     1      34.718 -19.791 -20.181  0.00  0.00    +0.183 C 
ATOM     14  C   UNL     1      34.439 -18.836 -21.137  0.00  0.00    +0.056 C 
ATOM     15  C   UNL     1      35.974 -19.924 -19.633  0.00  0.00    +0.182 C 
ATOM     16  C   UNL     1      36.765 -18.131 -20.977  0.00  0.00    +0.019 C 
ATOM     17  C   UNL     1      37.020 -19.108 -20.011  0.00  0.00    +0.042 C 
ATOM     18  C   UNL     1      34.680 -21.393 -18.751  0.00  0.00    +0.589 C 
ENDBRANCH   3  12
BRANCH   5  20
ATOM     19  N   UNL     1      33.843 -10.284 -25.432  0.00  0.00    -0.242 NA
ATOM     20  C   UNL     1      34.247 -12.586 -23.900  0.00  0.00    +0.050 C 
ATOM     21  C   UNL     1      34.455 -11.330 -23.340  0.00  0.00    +0.025 C 
ATOM     22  C   UNL     1      33.837 -12.692 -25.224  0.00  0.00    +0.025 C 
ATOM     23  C   UNL     1      34.241 -10.220 -24.142  0.00  0.00    +0.099 C 
ATOM     24  C   UNL     1      33.650 -11.521 -25.941  0.00  0.00    +0.099 C 
ENDBRANCH   5  20
BRANCH   1  25
ATOM     25  C   UNL     1      33.845 -12.792 -20.865  0.00  0.00    +0.129 C 
BRANCH  25  26
ATOM     26  C   UNL     1      32.325 -12.743 -20.722  0.00  0.00    +0.109 C 
BRANCH  26  29
ATOM     27  O   UNL     1      31.919 -12.358 -18.391  0.00  0.00    -0.275 OA
ATOM     28  N   UNL     1      31.436 -10.605 -19.832  0.00  0.00    -0.276 N 
ATOM     29  C   UNL     1      31.879 -11.898 -19.536  0.00  0.00    +0.228 C 
ATOM     30  C   UNL     1      31.398 -10.082 -21.195  0.00  0.00    +0.115 C 
ATOM     31  C   UNL     1      30.978  -9.682 -18.801  0.00  0.00    +0.115 C 
ENDBRANCH  26  29
ENDBRANCH  25  26
ENDBRANCH   1  25
TORSDOF 5
ENDMDL
