MODEL 1
REMARK VINA RESULT:     -11.4      0.000      0.000
REMARK  Name = 445481
REMARK  5 active torsions:
REMARK  status: ('A' for Active; 'I' for Inactive)
REMARK    1  A    between atoms: N_2  and  C_21
REMARK    2  A    between atoms: C_3  and  N_7
REMARK    3  A    between atoms: N_7  and  S_9
REMARK    4  A    between atoms: S_9  and  C_14
REMARK    5  A    between atoms: C_21  and  C_24
REMARK                            x       y       z     vdW  Elec       q    Type
REMARK                         _______ _______ _______ _____ _____    ______ ____
ROOT
ATOM      1  O   UNL     1      36.771 -20.266 -18.989  0.00  0.00    -0.273 OA
ATOM      2  N   UNL     1      35.373 -19.198 -20.551  0.00  0.00    -0.273 N 
ATOM      3  C   UNL     1      34.427 -20.862 -19.222  0.00  0.00    +0.153 C 
ATOM      4  C   UNL     1      33.323 -19.989 -19.810  0.00  0.00    +0.048 C 
ATOM      5  C   UNL     1      33.999 -19.303 -20.981  0.00  0.00    +0.096 C 
ATOM      6  C   UNL     1      35.688 -20.093 -19.528  0.00  0.00    +0.242 C 
ENDROOT
BRANCH   3   7
ATOM      7  N   UNL     1      34.277 -20.996 -17.769  0.00  0.00    -0.171 NA
ATOM      8  H   UNL     1      35.213 -20.965 -17.364  0.00  0.00    +0.149 HD
BRANCH   7   9
ATOM      9  S   UNL     1      33.506 -22.402 -17.162  0.00  0.00    +0.066 S 
ATOM     10  O   UNL     1      33.870 -23.538 -17.985  0.00  0.00    -0.152 OA
ATOM     11  O   UNL     1      32.119 -22.095 -16.871  0.00  0.00    -0.152 OA
BRANCH   9  14
ATOM     12  S   UNL     1      35.836 -22.276 -15.408  0.00  0.00    -0.066 S 
ATOM     13  N   UNL     1      34.439 -23.836 -12.130  0.00  0.00    -0.243 NA
ATOM     14  C   UNL     1      34.211 -22.734 -15.548  0.00  0.00    +0.153 C 
ATOM     15  C   UNL     1      33.689 -23.281 -14.426  0.00  0.00    +0.046 C 
ATOM     16  C   UNL     1      34.657 -23.339 -13.378  0.00  0.00    +0.089 C 
ATOM     17  C   UNL     1      35.889 -22.819 -13.778  0.00  0.00    +0.048 C 
ATOM     18  C   UNL     1      36.964 -22.791 -12.879  0.00  0.00    +0.010 C 
ATOM     19  C   UNL     1      36.747 -23.296 -11.603  0.00  0.00    +0.021 C 
ATOM     20  C   UNL     1      35.495 -23.793 -11.292  0.00  0.00    +0.099 C 
ENDBRANCH   9  14
ENDBRANCH   7   9
ENDBRANCH   3   7
BRANCH   2  21
ATOM     21  C   UNL     1      36.315 -18.334 -21.228  0.00  0.00    +0.135 C 
BRANCH  21  24
ATOM     22  N   UNL     1      35.661 -16.348 -22.563  0.00  0.00    -0.313 N 
ATOM     23  N   UNL     1      34.309 -12.933 -22.924  0.00  0.00    -0.241 NA
ATOM     24  C   UNL     1      35.761 -16.941 -21.348  0.00  0.00    +0.046 C 
ATOM     25  C   UNL     1      35.305 -16.100 -20.385  0.00  0.00    +0.013 C 
ATOM     26  C   UNL     1      34.895 -14.906 -21.041  0.00  0.00    +0.017 C 
ATOM     27  C   UNL     1      35.129 -15.090 -22.405  0.00  0.00    +0.068 C 
ATOM     28  C   UNL     1      34.348 -13.689 -20.612  0.00  0.00    +0.022 C 
ATOM     29  C   UNL     1      34.838 -14.107 -23.342  0.00  0.00    +0.113 C 
ATOM     30  C   UNL     1      34.082 -12.753 -21.603  0.00  0.00    +0.099 C 
ATOM     31  H   UNL     1      35.928 -16.753 -23.419  0.00  0.00    +0.152 HD
ENDBRANCH  21  24
ENDBRANCH   2  21
TORSDOF 5
ENDMDL
MODEL 2
REMARK VINA RESULT:     -11.3      0.966      1.227
REMARK  Name = 445481
REMARK  5 active torsions:
REMARK  status: ('A' for Active; 'I' for Inactive)
REMARK    1  A    between atoms: N_2  and  C_21
REMARK    2  A    between atoms: C_3  and  N_7
REMARK    3  A    between atoms: N_7  and  S_9
REMARK    4  A    between atoms: S_9  and  C_14
REMARK    5  A    between atoms: C_21  and  C_24
REMARK                            x       y       z     vdW  Elec       q    Type
REMARK                         _______ _______ _______ _____ _____    ______ ____
ROOT
ATOM      1  O   UNL     1      36.377 -20.246 -18.552  0.00  0.00    -0.273 OA
ATOM      2  N   UNL     1      35.260 -19.224 -20.354  0.00  0.00    -0.273 N 
ATOM      3  C   UNL     1      34.107 -20.864 -19.164  0.00  0.00    +0.153 C 
ATOM      4  C   UNL     1      33.116 -20.012 -19.951  0.00  0.00    +0.048 C 
ATOM      5  C   UNL     1      33.978 -19.348 -21.007  0.00  0.00    +0.096 C 
ATOM      6  C   UNL     1      35.400 -20.093 -19.271  0.00  0.00    +0.242 C 
ENDROOT
BRANCH   3   7
ATOM      7  N   UNL     1      33.715 -20.965 -17.754  0.00  0.00    -0.171 NA
ATOM      8  H   UNL     1      34.453 -20.527 -17.202  0.00  0.00    +0.149 HD
BRANCH   7   9
ATOM      9  S   UNL     1      33.449 -22.527 -17.100  0.00  0.00    +0.066 S 
ATOM     10  O   UNL     1      33.897 -23.526 -18.050  0.00  0.00    -0.152 OA
ATOM     11  O   UNL     1      32.120 -22.580 -16.521  0.00  0.00    -0.152 OA
BRANCH   9  14
ATOM     12  S   UNL     1      33.780 -23.385 -14.330  0.00  0.00    -0.066 S 
ATOM     13  N   UNL     1      37.513 -22.505 -13.675  0.00  0.00    -0.243 NA
ATOM     14  C   UNL     1      34.532 -22.696 -15.682  0.00  0.00    +0.153 C 
ATOM     15  C   UNL     1      35.833 -22.376 -15.493  0.00  0.00    +0.046 C 
ATOM     16  C   UNL     1      36.261 -22.705 -14.171  0.00  0.00    +0.089 C 
ATOM     17  C   UNL     1      35.232 -23.270 -13.416  0.00  0.00    +0.048 C 
ATOM     18  C   UNL     1      35.467 -23.658 -12.089  0.00  0.00    +0.010 C 
ATOM     19  C   UNL     1      36.742 -23.457 -11.577  0.00  0.00    +0.021 C 
ATOM     20  C   UNL     1      37.702 -22.891 -12.396  0.00  0.00    +0.099 C 
ENDBRANCH   9  14
ENDBRANCH   7   9
ENDBRANCH   3   7
BRANCH   2  21
ATOM     21  C   UNL     1      36.300 -18.369 -20.882  0.00  0.00    +0.135 C 
BRANCH  21  24
ATOM     22  N   UNL     1      35.753 -16.458 -22.366  0.00  0.00    -0.313 N 
ATOM     23  N   UNL     1      34.473 -13.055 -23.003  0.00  0.00    -0.241 NA
ATOM     24  C   UNL     1      35.773 -16.980 -21.115  0.00  0.00    +0.046 C 
ATOM     25  C   UNL     1      35.274 -16.079 -20.230  0.00  0.00    +0.013 C 
ATOM     26  C   UNL     1      34.920 -14.921 -20.978  0.00  0.00    +0.017 C 
ATOM     27  C   UNL     1      35.231 -15.187 -22.313  0.00  0.00    +0.068 C 
ATOM     28  C   UNL     1      34.366 -13.675 -20.653  0.00  0.00    +0.022 C 
ATOM     29  C   UNL     1      35.009 -14.258 -23.321  0.00  0.00    +0.113 C 
ATOM     30  C   UNL     1      34.172 -12.796 -21.710  0.00  0.00    +0.099 C 
ATOM     31  H   UNL     1      36.064 -16.915 -23.180  0.00  0.00    +0.152 HD
ENDBRANCH  21  24
ENDBRANCH   2  21
TORSDOF 5
ENDMDL
MODEL 3
REMARK VINA RESULT:     -10.6      2.160      2.579
REMARK  Name = 445481
REMARK  5 active torsions:
REMARK  status: ('A' for Active; 'I' for Inactive)
REMARK    1  A    between atoms: N_2  and  C_21
REMARK    2  A    between atoms: C_3  and  N_7
REMARK    3  A    between atoms: N_7  and  S_9
REMARK    4  A    between atoms: S_9  and  C_14
REMARK    5  A    between atoms: C_21  and  C_24
REMARK                            x       y       z     vdW  Elec       q    Type
REMARK                         _______ _______ _______ _____ _____    ______ ____
ROOT
ATOM      1  O   UNL     1      36.606 -19.422 -19.171  0.00  0.00    -0.273 OA
ATOM      2  N   UNL     1      35.406 -18.394 -20.914  0.00  0.00    -0.273 N 
ATOM      3  C   UNL     1      34.485 -20.310 -19.959  0.00  0.00    +0.153 C 
ATOM      4  C   UNL     1      33.401 -19.539 -20.705  0.00  0.00    +0.048 C 
ATOM      5  C   UNL     1      34.184 -18.640 -21.642  0.00  0.00    +0.096 C 
ATOM      6  C   UNL     1      35.643 -19.343 -19.920  0.00  0.00    +0.242 C 
ENDROOT
BRANCH   3   7
ATOM      7  N   UNL     1      34.064 -20.622 -18.589  0.00  0.00    -0.171 NA
ATOM      8  H   UNL     1      34.461 -19.907 -17.979  0.00  0.00    +0.149 HD
BRANCH   7   9
ATOM      9  S   UNL     1      34.502 -22.146 -17.937  0.00  0.00    +0.066 S 
ATOM     10  O   UNL     1      35.797 -22.036 -17.294  0.00  0.00    -0.152 OA
ATOM     11  O   UNL     1      34.233 -23.178 -18.920  0.00  0.00    -0.152 OA
BRANCH   9  14
ATOM     12  S   UNL     1      34.069 -23.160 -15.234  0.00  0.00    -0.066 S 
ATOM     13  N   UNL     1      30.217 -22.772 -14.855  0.00  0.00    -0.243 NA
ATOM     14  C   UNL     1      33.343 -22.508 -16.618  0.00  0.00    +0.153 C 
ATOM     15  C   UNL     1      32.002 -22.358 -16.524  0.00  0.00    +0.046 C 
ATOM     16  C   UNL     1      31.518 -22.795 -15.254  0.00  0.00    +0.089 C 
ATOM     17  C   UNL     1      32.549 -23.264 -14.439  0.00  0.00    +0.048 C 
ATOM     18  C   UNL     1      32.264 -23.737 -13.149  0.00  0.00    +0.010 C 
ATOM     19  C   UNL     1      30.938 -23.715 -12.736  0.00  0.00    +0.021 C 
ATOM     20  C   UNL     1      29.981 -23.234 -13.610  0.00  0.00    +0.099 C 
ENDBRANCH   9  14
ENDBRANCH   7   9
ENDBRANCH   3   7
BRANCH   2  21
ATOM     21  C   UNL     1      36.317 -17.337 -21.297  0.00  0.00    +0.135 C 
BRANCH  21  24
ATOM     22  N   UNL     1      35.475 -15.420 -22.628  0.00  0.00    -0.313 N 
ATOM     23  N   UNL     1      33.692 -12.210 -22.998  0.00  0.00    -0.241 NA
ATOM     24  C   UNL     1      35.585 -16.029 -21.422  0.00  0.00    +0.046 C 
ATOM     25  C   UNL     1      34.964 -15.286 -20.470  0.00  0.00    +0.013 C 
ATOM     26  C   UNL     1      34.433 -14.139 -21.125  0.00  0.00    +0.017 C 
ATOM     27  C   UNL     1      34.768 -14.250 -22.476  0.00  0.00    +0.068 C 
ATOM     28  C   UNL     1      33.701 -13.021 -20.704  0.00  0.00    +0.022 C 
ATOM     29  C   UNL     1      34.399 -13.289 -23.408  0.00  0.00    +0.113 C 
ATOM     30  C   UNL     1      33.367 -12.101 -21.690  0.00  0.00    +0.099 C 
ATOM     31  H   UNL     1      35.843 -15.760 -23.475  0.00  0.00    +0.152 HD
ENDBRANCH  21  24
ENDBRANCH   2  21
TORSDOF 5
ENDMDL
MODEL 4
REMARK VINA RESULT:     -10.4      2.850     10.340
REMARK  Name = 445481
REMARK  5 active torsions:
REMARK  status: ('A' for Active; 'I' for Inactive)
REMARK    1  A    between atoms: N_2  and  C_21
REMARK    2  A    between atoms: C_3  and  N_7
REMARK    3  A    between atoms: N_7  and  S_9
REMARK    4  A    between atoms: S_9  and  C_14
REMARK    5  A    between atoms: C_21  and  C_24
REMARK                            x       y       z     vdW  Elec       q    Type
REMARK                         _______ _______ _______ _____ _____    ______ ____
ROOT
ATOM      1  O   UNL     1      36.310 -20.913 -19.327  0.00  0.00    -0.273 OA
ATOM      2  N   UNL     1      34.070 -21.485 -18.892  0.00  0.00    -0.273 N 
ATOM      3  C   UNL     1      34.484 -19.386 -19.818  0.00  0.00    +0.153 C 
ATOM      4  C   UNL     1      33.022 -19.762 -20.038  0.00  0.00    +0.048 C 
ATOM      5  C   UNL     1      32.777 -20.853 -19.014  0.00  0.00    +0.096 C 
ATOM      6  C   UNL     1      35.111 -20.672 -19.339  0.00  0.00    +0.242 C 
ENDROOT
BRANCH   3   7
ATOM      7  N   UNL     1      35.118 -18.972 -21.074  0.00  0.00    -0.171 NA
ATOM      8  H   UNL     1      35.701 -19.747 -21.389  0.00  0.00    +0.149 HD
BRANCH   7   9
ATOM      9  S   UNL     1      36.103 -17.569 -21.057  0.00  0.00    +0.066 S 
ATOM     10  O   UNL     1      37.424 -17.908 -21.549  0.00  0.00    -0.152 OA
ATOM     11  O   UNL     1      35.923 -16.877 -19.795  0.00  0.00    -0.152 OA
BRANCH   9  14
ATOM     12  S   UNL     1      35.004 -14.923 -21.614  0.00  0.00    -0.066 S 
ATOM     13  N   UNL     1      34.265 -15.163 -25.426  0.00  0.00    -0.243 NA
ATOM     14  C   UNL     1      35.421 -16.431 -22.262  0.00  0.00    +0.153 C 
ATOM     15  C   UNL     1      35.179 -16.553 -23.587  0.00  0.00    +0.046 C 
ATOM     16  C   UNL     1      34.619 -15.355 -24.125  0.00  0.00    +0.089 C 
ATOM     17  C   UNL     1      34.465 -14.369 -23.149  0.00  0.00    +0.048 C 
ATOM     18  C   UNL     1      33.929 -13.119 -23.492  0.00  0.00    +0.010 C 
ATOM     19  C   UNL     1      33.567 -12.918 -24.818  0.00  0.00    +0.021 C 
ATOM     20  C   UNL     1      33.753 -13.951 -25.719  0.00  0.00    +0.099 C 
ENDBRANCH   9  14
ENDBRANCH   7   9
ENDBRANCH   3   7
BRANCH   2  21
ATOM     21  C   UNL     1      34.227 -22.772 -18.251  0.00  0.00    +0.135 C 
BRANCH  21  24
ATOM     22  N   UNL     1      34.254 -23.167 -15.802  0.00  0.00    -0.313 N 
ATOM     23  N   UNL     1      32.684 -23.193 -12.462  0.00  0.00    -0.241 NA
ATOM     24  C   UNL     1      33.564 -22.773 -16.901  0.00  0.00    +0.046 C 
ATOM     25  C   UNL     1      32.299 -22.425 -16.552  0.00  0.00    +0.013 C 
ATOM     26  C   UNL     1      32.193 -22.613 -15.145  0.00  0.00    +0.017 C 
ATOM     27  C   UNL     1      33.433 -23.078 -14.702  0.00  0.00    +0.068 C 
ATOM     28  C   UNL     1      31.168 -22.434 -14.206  0.00  0.00    +0.022 C 
ATOM     29  C   UNL     1      33.677 -23.367 -13.366  0.00  0.00    +0.113 C 
ATOM     30  C   UNL     1      31.483 -22.743 -12.890  0.00  0.00    +0.099 C 
ATOM     31  H   UNL     1      35.191 -23.469 -15.794  0.00  0.00    +0.152 HD
ENDBRANCH  21  24
ENDBRANCH   2  21
TORSDOF 5
ENDMDL
MODEL 5
REMARK VINA RESULT:     -10.4      4.985     11.598
REMARK  Name = 445481
REMARK  5 active torsions:
REMARK  status: ('A' for Active; 'I' for Inactive)
REMARK    1  A    between atoms: N_2  and  C_21
REMARK    2  A    between atoms: C_3  and  N_7
REMARK    3  A    between atoms: N_7  and  S_9
REMARK    4  A    between atoms: S_9  and  C_14
REMARK    5  A    between atoms: C_21  and  C_24
REMARK                            x       y       z     vdW  Elec       q    Type
REMARK                         _______ _______ _______ _____ _____    ______ ____
ROOT
ATOM      1  O   UNL     1      35.336 -15.574 -19.611  0.00  0.00    -0.273 OA
ATOM      2  N   UNL     1      35.810 -16.512 -21.716  0.00  0.00    -0.273 N 
ATOM      3  C   UNL     1      34.258 -14.776 -21.638  0.00  0.00    +0.153 C 
ATOM      4  C   UNL     1      34.777 -14.933 -23.063  0.00  0.00    +0.048 C 
ATOM      5  C   UNL     1      35.362 -16.332 -23.076  0.00  0.00    +0.096 C 
ATOM      6  C   UNL     1      35.193 -15.635 -20.824  0.00  0.00    +0.242 C 
ENDROOT
BRANCH   3   7
ATOM      7  N   UNL     1      34.359 -13.383 -21.189  0.00  0.00    -0.171 NA
ATOM      8  H   UNL     1      34.470 -13.399 -20.175  0.00  0.00    +0.149 HD
BRANCH   7   9
ATOM      9  S   UNL     1      33.058 -12.324 -21.542  0.00  0.00    +0.066 S 
ATOM     10  O   UNL     1      32.593 -11.713 -20.312  0.00  0.00    -0.152 OA
ATOM     11  O   UNL     1      32.139 -12.986 -22.449  0.00  0.00    -0.152 OA
BRANCH   9  14
ATOM     12  S   UNL     1      33.132  -9.456 -22.078  0.00  0.00    -0.066 S 
ATOM     13  N   UNL     1      35.659  -9.272 -25.030  0.00  0.00    -0.243 NA
ATOM     14  C   UNL     1      33.724 -10.980 -22.523  0.00  0.00    +0.153 C 
ATOM     15  C   UNL     1      34.606 -10.956 -23.547  0.00  0.00    +0.046 C 
ATOM     16  C   UNL     1      34.827  -9.625 -24.012  0.00  0.00    +0.089 C 
ATOM     17  C   UNL     1      34.078  -8.692 -23.293  0.00  0.00    +0.048 C 
ATOM     18  C   UNL     1      34.166  -7.328 -23.608  0.00  0.00    +0.010 C 
ATOM     19  C   UNL     1      35.013  -6.963 -24.647  0.00  0.00    +0.021 C 
ATOM     20  C   UNL     1      35.718  -7.953 -25.305  0.00  0.00    +0.099 C 
ENDBRANCH   9  14
ENDBRANCH   7   9
ENDBRANCH   3   7
BRANCH   2  21
ATOM     21  C   UNL     1      36.709 -17.585 -21.349  0.00  0.00    +0.135 C 
BRANCH  21  24
ATOM     22  N   UNL     1      36.639 -19.368 -19.625  0.00  0.00    -0.313 N 
ATOM     23  N   UNL     1      34.907 -21.959 -17.649  0.00  0.00    -0.241 NA
ATOM     24  C   UNL     1      35.980 -18.636 -20.557  0.00  0.00    +0.046 C 
ATOM     25  C   UNL     1      34.678 -19.017 -20.608  0.00  0.00    +0.013 C 
ATOM     26  C   UNL     1      34.514 -20.053 -19.646  0.00  0.00    +0.017 C 
ATOM     27  C   UNL     1      35.759 -20.252 -19.046  0.00  0.00    +0.068 C 
ATOM     28  C   UNL     1      33.433 -20.840 -19.227  0.00  0.00    +0.022 C 
ATOM     29  C   UNL     1      35.954 -21.201 -18.051  0.00  0.00    +0.113 C 
ATOM     30  C   UNL     1      33.701 -21.769 -18.230  0.00  0.00    +0.099 C 
ATOM     31  H   UNL     1      37.593 -19.281 -19.401  0.00  0.00    +0.152 HD
ENDBRANCH  21  24
ENDBRANCH   2  21
TORSDOF 5
ENDMDL
MODEL 6
REMARK VINA RESULT:     -10.3      2.448     10.308
REMARK  Name = 445481
REMARK  5 active torsions:
REMARK  status: ('A' for Active; 'I' for Inactive)
REMARK    1  A    between atoms: N_2  and  C_21
REMARK    2  A    between atoms: C_3  and  N_7
REMARK    3  A    between atoms: N_7  and  S_9
REMARK    4  A    between atoms: S_9  and  C_14
REMARK    5  A    between atoms: C_21  and  C_24
REMARK                            x       y       z     vdW  Elec       q    Type
REMARK                         _______ _______ _______ _____ _____    ______ ____
ROOT
ATOM      1  O   UNL     1      33.170 -21.622 -18.371  0.00  0.00    -0.273 OA
ATOM      2  N   UNL     1      34.843 -21.999 -16.760  0.00  0.00    -0.273 N 
ATOM      3  C   UNL     1      35.479 -20.964 -18.749  0.00  0.00    +0.153 C 
ATOM      4  C   UNL     1      36.536 -20.708 -17.680  0.00  0.00    +0.048 C 
ATOM      5  C   UNL     1      36.267 -21.786 -16.648  0.00  0.00    +0.096 C 
ATOM      6  C   UNL     1      34.324 -21.546 -17.973  0.00  0.00    +0.242 C 
ENDROOT
BRANCH   3   7
ATOM      7  N   UNL     1      35.057 -19.712 -19.387  0.00  0.00    -0.171 NA
ATOM      8  H   UNL     1      34.096 -19.842 -19.703  0.00  0.00    +0.149 HD
BRANCH   7   9
ATOM      9  S   UNL     1      35.961 -19.145 -20.729  0.00  0.00    +0.066 S 
ATOM     10  O   UNL     1      35.502 -19.815 -21.931  0.00  0.00    -0.152 OA
ATOM     11  O   UNL     1      37.367 -19.111 -20.375  0.00  0.00    -0.152 OA
BRANCH   9  14
ATOM     12  S   UNL     1      35.461 -16.944 -22.579  0.00  0.00    -0.066 S 
ATOM     13  N   UNL     1      34.687 -14.020 -20.133  0.00  0.00    -0.243 NA
ATOM     14  C   UNL     1      35.541 -17.417 -20.955  0.00  0.00    +0.153 C 
ATOM     15  C   UNL     1      35.277 -16.427 -20.073  0.00  0.00    +0.046 C 
ATOM     16  C   UNL     1      34.990 -15.198 -20.742  0.00  0.00    +0.089 C 
ATOM     17  C   UNL     1      35.056 -15.335 -22.130  0.00  0.00    +0.048 C 
ATOM     18  C   UNL     1      34.803 -14.230 -22.956  0.00  0.00    +0.010 C 
ATOM     19  C   UNL     1      34.492 -13.025 -22.339  0.00  0.00    +0.021 C 
ATOM     20  C   UNL     1      34.450 -12.980 -20.958  0.00  0.00    +0.099 C 
ENDBRANCH   9  14
ENDBRANCH   7   9
ENDBRANCH   3   7
BRANCH   2  21
ATOM     21  C   UNL     1      34.104 -22.723 -15.750  0.00  0.00    +0.135 C 
BRANCH  21  24
ATOM     22  N   UNL     1      35.248 -22.531 -13.557  0.00  0.00    -0.313 N 
ATOM     23  N   UNL     1      37.516 -23.758 -10.917  0.00  0.00    -0.241 NA
ATOM     24  C   UNL     1      35.033 -23.245 -14.689  0.00  0.00    +0.046 C 
ATOM     25  C   UNL     1      35.755 -24.395 -14.654  0.00  0.00    +0.013 C 
ATOM     26  C   UNL     1      36.466 -24.396 -13.421  0.00  0.00    +0.017 C 
ATOM     27  C   UNL     1      36.129 -23.217 -12.754  0.00  0.00    +0.068 C 
ATOM     28  C   UNL     1      37.361 -25.283 -12.806  0.00  0.00    +0.022 C 
ATOM     29  C   UNL     1      36.652 -22.900 -11.508  0.00  0.00    +0.113 C 
ATOM     30  C   UNL     1      37.844 -24.901 -11.562  0.00  0.00    +0.099 C 
ATOM     31  H   UNL     1      34.840 -21.661 -13.345  0.00  0.00    +0.152 HD
ENDBRANCH  21  24
ENDBRANCH   2  21
TORSDOF 5
ENDMDL
MODEL 7
REMARK VINA RESULT:     -10.3      3.787      6.365
REMARK  Name = 445481
REMARK  5 active torsions:
REMARK  status: ('A' for Active; 'I' for Inactive)
REMARK    1  A    between atoms: N_2  and  C_21
REMARK    2  A    between atoms: C_3  and  N_7
REMARK    3  A    between atoms: N_7  and  S_9
REMARK    4  A    between atoms: S_9  and  C_14
REMARK    5  A    between atoms: C_21  and  C_24
REMARK                            x       y       z     vdW  Elec       q    Type
REMARK                         _______ _______ _______ _____ _____    ______ ____
ROOT
ATOM      1  O   UNL     1      31.977 -23.572 -13.676  0.00  0.00    -0.273 OA
ATOM      2  N   UNL     1      33.597 -22.843 -15.219  0.00  0.00    -0.273 N 
ATOM      3  C   UNL     1      34.177 -22.827 -12.961  0.00  0.00    +0.153 C 
ATOM      4  C   UNL     1      35.441 -22.784 -13.814  0.00  0.00    +0.048 C 
ATOM      5  C   UNL     1      34.941 -22.319 -15.168  0.00  0.00    +0.096 C 
ATOM      6  C   UNL     1      33.090 -23.151 -13.956  0.00  0.00    +0.242 C 
ENDROOT
BRANCH   3   7
ATOM      7  N   UNL     1      34.253 -23.892 -11.956  0.00  0.00    -0.171 NA
ATOM      8  H   UNL     1      33.410 -23.831 -11.385  0.00  0.00    +0.149 HD
BRANCH   7   9
ATOM      9  S   UNL     1      35.592 -23.899 -10.886  0.00  0.00    +0.066 S 
ATOM     10  O   UNL     1      35.391 -24.919  -9.875  0.00  0.00    -0.152 OA
ATOM     11  O   UNL     1      35.917 -22.533 -10.523  0.00  0.00    -0.152 OA
BRANCH   9  14
ATOM     12  S   UNL     1      38.314 -23.345 -11.783  0.00  0.00    -0.066 S 
ATOM     13  N   UNL     1      39.090 -26.493 -13.933  0.00  0.00    -0.243 NA
ATOM     14  C   UNL     1      37.019 -24.436 -11.829  0.00  0.00    +0.153 C 
ATOM     15  C   UNL     1      37.251 -25.545 -12.568  0.00  0.00    +0.046 C 
ATOM     16  C   UNL     1      38.559 -25.523 -13.139  0.00  0.00    +0.089 C 
ATOM     17  C   UNL     1      39.260 -24.367 -12.791  0.00  0.00    +0.048 C 
ATOM     18  C   UNL     1      40.566 -24.170 -13.260  0.00  0.00    +0.010 C 
ATOM     19  C   UNL     1      41.113 -25.158 -14.070  0.00  0.00    +0.021 C 
ATOM     20  C   UNL     1      40.347 -26.270 -14.366  0.00  0.00    +0.099 C 
ENDBRANCH   9  14
ENDBRANCH   7   9
ENDBRANCH   3   7
BRANCH   2  21
ATOM     21  C   UNL     1      32.853 -22.902 -16.457  0.00  0.00    +0.135 C 
BRANCH  21  24
ATOM     22  N   UNL     1      32.725 -21.266 -18.317  0.00  0.00    -0.313 N 
ATOM     23  N   UNL     1      34.237 -19.098 -20.894  0.00  0.00    -0.241 NA
ATOM     24  C   UNL     1      33.493 -22.027 -17.500  0.00  0.00    +0.046 C 
ATOM     25  C   UNL     1      34.805 -21.846 -17.797  0.00  0.00    +0.013 C 
ATOM     26  C   UNL     1      34.859 -20.911 -18.868  0.00  0.00    +0.017 C 
ATOM     27  C   UNL     1      33.542 -20.564 -19.173  0.00  0.00    +0.068 C 
ATOM     28  C   UNL     1      35.896 -20.326 -19.608  0.00  0.00    +0.022 C 
ATOM     29  C   UNL     1      33.232 -19.662 -20.183  0.00  0.00    +0.113 C 
ATOM     30  C   UNL     1      35.513 -19.433 -20.600  0.00  0.00    +0.099 C 
ATOM     31  H   UNL     1      31.742 -21.222 -18.301  0.00  0.00    +0.152 HD
ENDBRANCH  21  24
ENDBRANCH   2  21
TORSDOF 5
ENDMDL
MODEL 8
REMARK VINA RESULT:     -10.3      2.593     10.535
REMARK  Name = 445481
REMARK  5 active torsions:
REMARK  status: ('A' for Active; 'I' for Inactive)
REMARK    1  A    between atoms: N_2  and  C_21
REMARK    2  A    between atoms: C_3  and  N_7
REMARK    3  A    between atoms: N_7  and  S_9
REMARK    4  A    between atoms: S_9  and  C_14
REMARK    5  A    between atoms: C_21  and  C_24
REMARK                            x       y       z     vdW  Elec       q    Type
REMARK                         _______ _______ _______ _____ _____    ______ ____
ROOT
ATOM      1  O   UNL     1      33.063 -21.739 -18.309  0.00  0.00    -0.273 OA
ATOM      2  N   UNL     1      34.759 -22.036 -16.706  0.00  0.00    -0.273 N 
ATOM      3  C   UNL     1      35.383 -21.201 -18.790  0.00  0.00    +0.153 C 
ATOM      4  C   UNL     1      36.473 -20.892 -17.769  0.00  0.00    +0.048 C 
ATOM      5  C   UNL     1      36.191 -21.866 -16.642  0.00  0.00    +0.096 C 
ATOM      6  C   UNL     1      34.227 -21.671 -17.943  0.00  0.00    +0.242 C 
ENDROOT
BRANCH   3   7
ATOM      7  N   UNL     1      34.990 -19.995 -19.526  0.00  0.00    -0.171 NA
ATOM      8  H   UNL     1      34.384 -20.291 -20.292  0.00  0.00    +0.149 HD
BRANCH   7   9
ATOM      9  S   UNL     1      36.229 -19.022 -20.204  0.00  0.00    +0.066 S 
ATOM     10  O   UNL     1      37.278 -19.879 -20.723  0.00  0.00    -0.152 OA
ATOM     11  O   UNL     1      36.527 -17.931 -19.297  0.00  0.00    -0.152 OA
BRANCH   9  14
ATOM     12  S   UNL     1      35.746 -16.522 -21.630  0.00  0.00    -0.066 S 
ATOM     13  N   UNL     1      33.824 -17.767 -24.775  0.00  0.00    -0.243 NA
ATOM     14  C   UNL     1      35.530 -18.202 -21.637  0.00  0.00    +0.153 C 
ATOM     15  C   UNL     1      34.865 -18.673 -22.716  0.00  0.00    +0.046 C 
ATOM     16  C   UNL     1      34.501 -17.616 -23.603  0.00  0.00    +0.089 C 
ATOM     17  C   UNL     1      34.923 -16.372 -23.131  0.00  0.00    +0.048 C 
ATOM     18  C   UNL     1      34.654 -15.212 -23.873  0.00  0.00    +0.010 C 
ATOM     19  C   UNL     1      33.964 -15.360 -25.069  0.00  0.00    +0.021 C 
ATOM     20  C   UNL     1      33.584 -16.631 -25.460  0.00  0.00    +0.099 C 
ENDBRANCH   9  14
ENDBRANCH   7   9
ENDBRANCH   3   7
BRANCH   2  21
ATOM     21  C   UNL     1      34.019 -22.643 -15.621  0.00  0.00    +0.135 C 
BRANCH  21  24
ATOM     22  N   UNL     1      35.231 -22.476 -13.464  0.00  0.00    -0.313 N 
ATOM     23  N   UNL     1      37.529 -23.765 -10.879  0.00  0.00    -0.241 NA
ATOM     24  C   UNL     1      34.958 -23.190 -14.583  0.00  0.00    +0.046 C 
ATOM     25  C   UNL     1      35.640 -24.364 -14.559  0.00  0.00    +0.013 C 
ATOM     26  C   UNL     1      36.385 -24.383 -13.346  0.00  0.00    +0.017 C 
ATOM     27  C   UNL     1      36.110 -23.188 -12.681  0.00  0.00    +0.068 C 
ATOM     28  C   UNL     1      37.265 -25.297 -12.750  0.00  0.00    +0.022 C 
ATOM     29  C   UNL     1      36.679 -22.880 -11.452  0.00  0.00    +0.113 C 
ATOM     30  C   UNL     1      37.797 -24.923 -11.523  0.00  0.00    +0.099 C 
ATOM     31  H   UNL     1      34.861 -21.590 -13.248  0.00  0.00    +0.152 HD
ENDBRANCH  21  24
ENDBRANCH   2  21
TORSDOF 5
ENDMDL
MODEL 9
REMARK VINA RESULT:     -10.3      1.714      2.218
REMARK  Name = 445481
REMARK  5 active torsions:
REMARK  status: ('A' for Active; 'I' for Inactive)
REMARK    1  A    between atoms: N_2  and  C_21
REMARK    2  A    between atoms: C_3  and  N_7
REMARK    3  A    between atoms: N_7  and  S_9
REMARK    4  A    between atoms: S_9  and  C_14
REMARK    5  A    between atoms: C_21  and  C_24
REMARK                            x       y       z     vdW  Elec       q    Type
REMARK                         _______ _______ _______ _____ _____    ______ ____
ROOT
ATOM      1  O   UNL     1      34.123 -19.370 -21.489  0.00  0.00    -0.273 OA
ATOM      2  N   UNL     1      36.180 -18.235 -21.361  0.00  0.00    -0.273 N 
ATOM      3  C   UNL     1      35.682 -19.754 -19.665  0.00  0.00    +0.153 C 
ATOM      4  C   UNL     1      37.183 -19.481 -19.682  0.00  0.00    +0.048 C 
ATOM      5  C   UNL     1      37.299 -18.179 -20.450  0.00  0.00    +0.096 C 
ATOM      6  C   UNL     1      35.195 -19.134 -20.951  0.00  0.00    +0.242 C 
ENDROOT
BRANCH   3   7
ATOM      7  N   UNL     1      35.407 -21.195 -19.682  0.00  0.00    -0.171 NA
ATOM      8  H   UNL     1      35.125 -21.437 -20.633  0.00  0.00    +0.149 HD
BRANCH   7   9
ATOM      9  S   UNL     1      34.201 -21.800 -18.624  0.00  0.00    +0.066 S 
ATOM     10  O   UNL     1      33.798 -23.120 -19.065  0.00  0.00    -0.152 OA
ATOM     11  O   UNL     1      33.224 -20.758 -18.372  0.00  0.00    -0.152 OA
BRANCH   9  14
ATOM     12  S   UNL     1      33.965 -22.780 -15.885  0.00  0.00    -0.066 S 
ATOM     13  N   UNL     1      37.495 -21.985 -14.457  0.00  0.00    -0.243 NA
ATOM     14  C   UNL     1      34.977 -22.045 -17.027  0.00  0.00    +0.153 C 
ATOM     15  C   UNL     1      36.215 -21.753 -16.567  0.00  0.00    +0.046 C 
ATOM     16  C   UNL     1      36.368 -22.145 -15.203  0.00  0.00    +0.089 C 
ATOM     17  C   UNL     1      35.204 -22.726 -14.695  0.00  0.00    +0.048 C 
ATOM     18  C   UNL     1      35.165 -23.174 -13.367  0.00  0.00    +0.010 C 
ATOM     19  C   UNL     1      36.314 -23.014 -12.601  0.00  0.00    +0.021 C 
ATOM     20  C   UNL     1      37.421 -22.428 -13.185  0.00  0.00    +0.099 C 
ENDBRANCH   9  14
ENDBRANCH   7   9
ENDBRANCH   3   7
BRANCH   2  21
ATOM     21  C   UNL     1      36.081 -17.342 -22.494  0.00  0.00    +0.135 C 
BRANCH  21  24
ATOM     22  N   UNL     1      34.903 -15.236 -23.069  0.00  0.00    -0.313 N 
ATOM     23  N   UNL     1      33.109 -12.131 -22.193  0.00  0.00    -0.241 NA
ATOM     24  C   UNL     1      35.352 -16.083 -22.111  0.00  0.00    +0.046 C 
ATOM     25  C   UNL     1      35.037 -15.600 -20.882  0.00  0.00    +0.013 C 
ATOM     26  C   UNL     1      34.346 -14.372 -21.087  0.00  0.00    +0.017 C 
ATOM     27  C   UNL     1      34.277 -14.169 -22.466  0.00  0.00    +0.068 C 
ATOM     28  C   UNL     1      33.774 -13.416 -20.238  0.00  0.00    +0.022 C 
ATOM     29  C   UNL     1      33.661 -13.053 -23.017  0.00  0.00    +0.113 C 
ATOM     30  C   UNL     1      33.176 -12.326 -20.857  0.00  0.00    +0.099 C 
ATOM     31  H   UNL     1      35.009 -15.362 -24.039  0.00  0.00    +0.152 HD
ENDBRANCH  21  24
ENDBRANCH   2  21
TORSDOF 5
ENDMDL
