MODEL 1
REMARK VINA RESULT:     -12.4      0.000      0.000
REMARK  Name = 447767
REMARK  2 active torsions:
REMARK  status: ('A' for Active; 'I' for Inactive)
REMARK    1  A    between atoms: N_2  and  C_10
REMARK    2  A    between atoms: C_8  and  C_24
REMARK                            x       y       z     vdW  Elec       q    Type
REMARK                         _______ _______ _______ _____ _____    ______ ____
ROOT
ATOM      1  O   UNL     1      34.920 -18.305 -24.302  0.00  0.00    -0.270 OA
ATOM      2  N   UNL     1      34.116 -13.482 -23.338  0.00  0.00    +0.396 N 
ATOM      3  N   UNL     1      35.072 -16.181 -23.338  0.00  0.00    -0.280 N 
ATOM      4  C   UNL     1      34.238 -14.226 -22.076  0.00  0.00    -0.054 C 
ATOM      5  C   UNL     1      33.778 -14.393 -24.441  0.00  0.00    -0.054 C 
ATOM      6  C   UNL     1      35.310 -15.313 -22.178  0.00  0.00    +0.071 C 
ATOM      7  C   UNL     1      34.848 -15.471 -24.595  0.00  0.00    +0.071 C 
ATOM      8  C   UNL     1      35.119 -17.578 -23.331  0.00  0.00    +0.249 C 
ATOM      9  H   UNL     1      35.015 -13.046 -23.543  0.00  0.00    -0.079 HD
ENDROOT
BRANCH   2  10
ATOM     10  C   UNL     1      33.110 -12.427 -23.217  0.00  0.00    -0.011 C 
ATOM     11  C   UNL     1      33.645 -11.069 -23.652  0.00  0.00    -0.038 C 
ATOM     12  C   UNL     1      32.736 -12.152 -21.767  0.00  0.00    -0.038 C 
ATOM     13  C   UNL     1      33.580 -10.146 -22.584  0.00  0.00    -0.006 C 
ATOM     14  C   UNL     1      33.022 -10.811 -21.427  0.00  0.00    -0.006 C 
ATOM     15  C   UNL     1      34.126 -10.694 -24.896  0.00  0.00    -0.006 C 
ATOM     16  C   UNL     1      32.172 -13.022 -20.848  0.00  0.00    -0.006 C 
ATOM     17  C   UNL     1      34.010  -8.840 -22.753  0.00  0.00    -0.000 C 
ATOM     18  C   UNL     1      32.755 -10.334 -20.153  0.00  0.00    -0.000 C 
ATOM     19  C   UNL     1      34.559  -9.379 -25.067  0.00  0.00    -0.000 C 
ATOM     20  C   UNL     1      31.903 -12.541 -19.565  0.00  0.00    -0.000 C 
ATOM     21  C   UNL     1      34.502  -8.460 -24.005  0.00  0.00    -0.000 C 
ATOM     22  C   UNL     1      32.193 -11.211 -19.221  0.00  0.00    -0.000 C 
ENDBRANCH   2  10
BRANCH   8  24
ATOM     23  N   UNL     1      36.105 -20.258 -18.533  0.00  0.00    -0.312 N 
ATOM     24  C   UNL     1      35.439 -18.255 -22.067  0.00  0.00    +0.054 C 
ATOM     25  C   UNL     1      34.481 -19.078 -21.468  0.00  0.00    +0.006 C 
ATOM     26  C   UNL     1      36.689 -18.068 -21.486  0.00  0.00    +0.006 C 
ATOM     27  C   UNL     1      34.795 -19.725 -20.258  0.00  0.00    +0.015 C 
ATOM     28  C   UNL     1      36.057 -19.522 -19.695  0.00  0.00    +0.048 C 
ATOM     29  C   UNL     1      37.023 -18.701 -20.285  0.00  0.00    +0.015 C 
ATOM     30  C   UNL     1      34.089 -20.608 -19.393  0.00  0.00    +0.017 C 
ATOM     31  C   UNL     1      34.920 -20.918 -18.342  0.00  0.00    +0.062 C 
ATOM     32  H   UNL     1      36.879 -20.304 -17.927  0.00  0.00    +0.152 HD
ENDBRANCH   8  24
TORSDOF 2
ENDMDL
MODEL 2
REMARK VINA RESULT:     -12.1      1.725      2.907
REMARK  Name = 447767
REMARK  2 active torsions:
REMARK  status: ('A' for Active; 'I' for Inactive)
REMARK    1  A    between atoms: N_2  and  C_10
REMARK    2  A    between atoms: C_8  and  C_24
REMARK                            x       y       z     vdW  Elec       q    Type
REMARK                         _______ _______ _______ _____ _____    ______ ____
ROOT
ATOM      1  O   UNL     1      34.583 -14.886 -25.675  0.00  0.00    -0.270 OA
ATOM      2  N   UNL     1      33.262 -11.280 -22.498  0.00  0.00    +0.396 N 
ATOM      3  N   UNL     1      34.409 -13.595 -23.734  0.00  0.00    -0.280 N 
ATOM      4  C   UNL     1      33.229 -12.581 -21.813  0.00  0.00    -0.054 C 
ATOM      5  C   UNL     1      33.184 -11.464 -23.954  0.00  0.00    -0.054 C 
ATOM      6  C   UNL     1      34.383 -13.475 -22.272  0.00  0.00    +0.071 C 
ATOM      7  C   UNL     1      34.344 -12.324 -24.452  0.00  0.00    +0.071 C 
ATOM      8  C   UNL     1      34.561 -14.786 -24.450  0.00  0.00    +0.249 C 
ATOM      9  H   UNL     1      34.147 -10.823 -22.278  0.00  0.00    -0.079 HD
ENDROOT
BRANCH   2  10
ATOM     10  C   UNL     1      32.173 -10.425 -22.029  0.00  0.00    -0.011 C 
ATOM     11  C   UNL     1      32.473  -8.946 -22.235  0.00  0.00    -0.038 C 
ATOM     12  C   UNL     1      32.001 -10.489 -20.517  0.00  0.00    -0.038 C 
ATOM     13  C   UNL     1      32.470  -8.263 -20.998  0.00  0.00    -0.006 C 
ATOM     14  C   UNL     1      32.180  -9.211 -19.943  0.00  0.00    -0.006 C 
ATOM     15  C   UNL     1      32.706  -8.275 -23.425  0.00  0.00    -0.006 C 
ATOM     16  C   UNL     1      31.693 -11.591 -19.735  0.00  0.00    -0.006 C 
ATOM     17  C   UNL     1      32.713  -6.900 -20.943  0.00  0.00    -0.000 C 
ATOM     18  C   UNL     1      32.063  -9.028 -18.575  0.00  0.00    -0.000 C 
ATOM     19  C   UNL     1      32.952  -6.903 -23.370  0.00  0.00    -0.000 C 
ATOM     20  C   UNL     1      31.575 -11.407 -18.356  0.00  0.00    -0.000 C 
ATOM     21  C   UNL     1      32.956  -6.222 -22.142  0.00  0.00    -0.000 C 
ATOM     22  C   UNL     1      31.759 -10.139 -17.782  0.00  0.00    -0.000 C 
ENDBRANCH   2  10
BRANCH   8  24
ATOM     23  N   UNL     1      35.262 -19.401 -21.386  0.00  0.00    -0.312 N 
ATOM     24  C   UNL     1      34.716 -16.035 -23.692  0.00  0.00    +0.054 C 
ATOM     25  C   UNL     1      35.347 -16.007 -22.446  0.00  0.00    +0.006 C 
ATOM     26  C   UNL     1      34.232 -17.225 -24.226  0.00  0.00    +0.006 C 
ATOM     27  C   UNL     1      35.491 -17.208 -21.725  0.00  0.00    +0.015 C 
ATOM     28  C   UNL     1      34.997 -18.390 -22.281  0.00  0.00    +0.048 C 
ATOM     29  C   UNL     1      34.363 -18.429 -23.528  0.00  0.00    +0.015 C 
ATOM     30  C   UNL     1      36.061 -17.546 -20.465  0.00  0.00    +0.017 C 
ATOM     31  C   UNL     1      35.906 -18.901 -20.286  0.00  0.00    +0.062 C 
ATOM     32  H   UNL     1      35.024 -20.347 -21.518  0.00  0.00    +0.152 HD
ENDBRANCH   8  24
TORSDOF 2
ENDMDL
MODEL 3
REMARK VINA RESULT:     -11.7      3.616      6.718
REMARK  Name = 447767
REMARK  2 active torsions:
REMARK  status: ('A' for Active; 'I' for Inactive)
REMARK    1  A    between atoms: N_2  and  C_10
REMARK    2  A    between atoms: C_8  and  C_24
REMARK                            x       y       z     vdW  Elec       q    Type
REMARK                         _______ _______ _______ _____ _____    ______ ____
ROOT
ATOM      1  O   UNL     1      31.652 -12.441 -20.228  0.00  0.00    -0.270 OA
ATOM      2  N   UNL     1      32.770  -8.086 -22.381  0.00  0.00    +0.396 N 
ATOM      3  N   UNL     1      32.312 -10.856 -21.815  0.00  0.00    -0.280 N 
ATOM      4  C   UNL     1      33.772  -9.096 -22.754  0.00  0.00    -0.054 C 
ATOM      5  C   UNL     1      32.065  -8.491 -21.157  0.00  0.00    -0.054 C 
ATOM      6  C   UNL     1      33.122 -10.463 -22.975  0.00  0.00    +0.071 C 
ATOM      7  C   UNL     1      31.372  -9.838 -21.354  0.00  0.00    +0.071 C 
ATOM      8  C   UNL     1      32.330 -12.111 -21.200  0.00  0.00    +0.249 C 
ATOM      9  H   UNL     1      32.089  -8.014 -23.137  0.00  0.00    -0.079 HD
ENDROOT
BRANCH   2  10
ATOM     10  C   UNL     1      33.400  -6.779 -22.203  0.00  0.00    -0.011 C 
ATOM     11  C   UNL     1      33.058  -6.154 -20.857  0.00  0.00    -0.038 C 
ATOM     12  C   UNL     1      32.848  -5.738 -23.167  0.00  0.00    -0.038 C 
ATOM     13  C   UNL     1      32.398  -4.917 -21.039  0.00  0.00    -0.006 C 
ATOM     14  C   UNL     1      32.269  -4.662 -22.457  0.00  0.00    -0.006 C 
ATOM     15  C   UNL     1      33.332  -6.641 -19.589  0.00  0.00    -0.006 C 
ATOM     16  C   UNL     1      32.882  -5.749 -24.552  0.00  0.00    -0.006 C 
ATOM     17  C   UNL     1      31.996  -4.164 -19.947  0.00  0.00    -0.000 C 
ATOM     18  C   UNL     1      31.707  -3.591 -23.134  0.00  0.00    -0.000 C 
ATOM     19  C   UNL     1      32.928  -5.883 -18.490  0.00  0.00    -0.000 C 
ATOM     20  C   UNL     1      32.316  -4.670 -25.234  0.00  0.00    -0.000 C 
ATOM     21  C   UNL     1      32.265  -4.657 -18.667  0.00  0.00    -0.000 C 
ATOM     22  C   UNL     1      31.733  -3.603 -24.531  0.00  0.00    -0.000 C 
ENDBRANCH   2  10
BRANCH   8  24
ATOM     23  N   UNL     1      35.613 -15.989 -23.514  0.00  0.00    -0.312 N 
ATOM     24  C   UNL     1      33.222 -13.141 -21.750  0.00  0.00    +0.054 C 
ATOM     25  C   UNL     1      33.117 -13.490 -23.098  0.00  0.00    +0.006 C 
ATOM     26  C   UNL     1      34.158 -13.750 -20.921  0.00  0.00    +0.006 C 
ATOM     27  C   UNL     1      33.977 -14.477 -23.618  0.00  0.00    +0.015 C 
ATOM     28  C   UNL     1      34.908 -15.074 -22.766  0.00  0.00    +0.048 C 
ATOM     29  C   UNL     1      35.023 -14.731 -21.415  0.00  0.00    +0.015 C 
ATOM     30  C   UNL     1      34.148 -15.066 -24.902  0.00  0.00    +0.017 C 
ATOM     31  C   UNL     1      35.160 -15.992 -24.806  0.00  0.00    +0.062 C 
ATOM     32  H   UNL     1      36.338 -16.560 -23.170  0.00  0.00    +0.152 HD
ENDBRANCH   8  24
TORSDOF 2
ENDMDL
MODEL 4
REMARK VINA RESULT:     -11.6      3.499      6.287
REMARK  Name = 447767
REMARK  2 active torsions:
REMARK  status: ('A' for Active; 'I' for Inactive)
REMARK    1  A    between atoms: N_2  and  C_10
REMARK    2  A    between atoms: C_8  and  C_24
REMARK                            x       y       z     vdW  Elec       q    Type
REMARK                         _______ _______ _______ _____ _____    ______ ____
ROOT
ATOM      1  O   UNL     1      31.766 -12.648 -20.024  0.00  0.00    -0.270 OA
ATOM      2  N   UNL     1      32.873  -8.352 -22.296  0.00  0.00    +0.396 N 
ATOM      3  N   UNL     1      32.445 -11.108 -21.646  0.00  0.00    -0.280 N 
ATOM      4  C   UNL     1      33.902  -9.356 -22.605  0.00  0.00    -0.054 C 
ATOM      5  C   UNL     1      32.140  -8.726 -21.079  0.00  0.00    -0.054 C 
ATOM      6  C   UNL     1      33.281 -10.741 -22.796  0.00  0.00    +0.071 C 
ATOM      7  C   UNL     1      31.476 -10.091 -21.248  0.00  0.00    +0.071 C 
ATOM      8  C   UNL     1      32.467 -12.340 -20.987  0.00  0.00    +0.249 C 
ATOM      9  H   UNL     1      32.213  -8.318 -23.073  0.00  0.00    -0.079 HD
ENDROOT
BRANCH   2  10
ATOM     10  C   UNL     1      33.475  -7.028 -22.147  0.00  0.00    -0.011 C 
ATOM     11  C   UNL     1      33.100  -6.370 -20.825  0.00  0.00    -0.038 C 
ATOM     12  C   UNL     1      32.920  -6.026 -23.150  0.00  0.00    -0.038 C 
ATOM     13  C   UNL     1      32.420  -5.153 -21.055  0.00  0.00    -0.006 C 
ATOM     14  C   UNL     1      32.310  -4.942 -22.482  0.00  0.00    -0.006 C 
ATOM     15  C   UNL     1      33.362  -6.816 -19.540  0.00  0.00    -0.006 C 
ATOM     16  C   UNL     1      32.977  -6.077 -24.534  0.00  0.00    -0.006 C 
ATOM     17  C   UNL     1      31.986  -4.376 -19.992  0.00  0.00    -0.000 C 
ATOM     18  C   UNL     1      31.739  -3.902 -23.198  0.00  0.00    -0.000 C 
ATOM     19  C   UNL     1      32.926  -6.033 -18.470  0.00  0.00    -0.000 C 
ATOM     20  C   UNL     1      32.402  -5.030 -25.256  0.00  0.00    -0.000 C 
ATOM     21  C   UNL     1      32.244  -4.826 -18.693  0.00  0.00    -0.000 C 
ATOM     22  C   UNL     1      31.788  -3.954 -24.594  0.00  0.00    -0.000 C 
ENDBRANCH   2  10
BRANCH   8  24
ATOM     23  N   UNL     1      35.992 -16.356 -22.605  0.00  0.00    -0.312 N 
ATOM     24  C   UNL     1      33.391 -13.372 -21.474  0.00  0.00    +0.054 C 
ATOM     25  C   UNL     1      33.922 -14.299 -20.573  0.00  0.00    +0.006 C 
ATOM     26  C   UNL     1      33.722 -13.414 -22.825  0.00  0.00    +0.006 C 
ATOM     27  C   UNL     1      34.805 -15.286 -21.048  0.00  0.00    +0.015 C 
ATOM     28  C   UNL     1      35.123 -15.308 -22.408  0.00  0.00    +0.048 C 
ATOM     29  C   UNL     1      34.597 -14.386 -23.319  0.00  0.00    +0.015 C 
ATOM     30  C   UNL     1      35.515 -16.359 -20.437  0.00  0.00    +0.017 C 
ATOM     31  C   UNL     1      36.236 -16.997 -21.419  0.00  0.00    +0.062 C 
ATOM     32  H   UNL     1      36.383 -16.609 -23.472  0.00  0.00    +0.152 HD
ENDBRANCH   8  24
TORSDOF 2
ENDMDL
MODEL 5
REMARK VINA RESULT:     -10.6      3.294      5.240
REMARK  Name = 447767
REMARK  2 active torsions:
REMARK  status: ('A' for Active; 'I' for Inactive)
REMARK    1  A    between atoms: N_2  and  C_10
REMARK    2  A    between atoms: C_8  and  C_24
REMARK                            x       y       z     vdW  Elec       q    Type
REMARK                         _______ _______ _______ _____ _____    ______ ____
ROOT
ATOM      1  O   UNL     1      33.929 -12.751 -25.046  0.00  0.00    -0.270 OA
ATOM      2  N   UNL     1      32.967  -8.413 -22.788  0.00  0.00    +0.396 N 
ATOM      3  N   UNL     1      33.995 -10.985 -23.516  0.00  0.00    -0.280 N 
ATOM      4  C   UNL     1      33.072  -9.482 -21.784  0.00  0.00    -0.054 C 
ATOM      5  C   UNL     1      32.686  -8.980 -24.114  0.00  0.00    -0.054 C 
ATOM      6  C   UNL     1      34.176 -10.477 -22.151  0.00  0.00    +0.071 C 
ATOM      7  C   UNL     1      33.789  -9.953 -24.529  0.00  0.00    +0.071 C 
ATOM      8  C   UNL     1      34.079 -12.325 -23.902  0.00  0.00    +0.249 C 
ATOM      9  H   UNL     1      33.860  -7.921 -22.830  0.00  0.00    -0.079 HD
ENDROOT
BRANCH   2  10
ATOM     10  C   UNL     1      31.931  -7.453 -22.410  0.00  0.00    -0.011 C 
ATOM     11  C   UNL     1      32.009  -6.170 -23.226  0.00  0.00    -0.038 C 
ATOM     12  C   UNL     1      32.125  -6.924 -20.995  0.00  0.00    -0.038 C 
ATOM     13  C   UNL     1      32.221  -5.058 -22.379  0.00  0.00    -0.006 C 
ATOM     14  C   UNL     1      32.292  -5.521 -21.010  0.00  0.00    -0.006 C 
ATOM     15  C   UNL     1      31.883  -6.015 -24.596  0.00  0.00    -0.006 C 
ATOM     16  C   UNL     1      32.131  -7.636 -19.807  0.00  0.00    -0.006 C 
ATOM     17  C   UNL     1      32.319  -3.780 -22.905  0.00  0.00    -0.000 C 
ATOM     18  C   UNL     1      32.478  -4.820 -19.829  0.00  0.00    -0.000 C 
ATOM     19  C   UNL     1      31.982  -4.728 -25.126  0.00  0.00    -0.000 C 
ATOM     20  C   UNL     1      32.320  -6.929 -18.617  0.00  0.00    -0.000 C 
ATOM     21  C   UNL     1      32.199  -3.621 -24.289  0.00  0.00    -0.000 C 
ATOM     22  C   UNL     1      32.492  -5.536 -18.629  0.00  0.00    -0.000 C 
ENDBRANCH   2  10
BRANCH   8  24
ATOM     23  N   UNL     1      35.305 -16.286 -20.163  0.00  0.00    -0.312 N 
ATOM     24  C   UNL     1      34.380 -13.327 -22.870  0.00  0.00    +0.054 C 
ATOM     25  C   UNL     1      34.893 -14.570 -23.250  0.00  0.00    +0.006 C 
ATOM     26  C   UNL     1      34.153 -13.022 -21.532  0.00  0.00    +0.006 C 
ATOM     27  C   UNL     1      35.181 -15.524 -22.256  0.00  0.00    +0.015 C 
ATOM     28  C   UNL     1      34.944 -15.195 -20.919  0.00  0.00    +0.048 C 
ATOM     29  C   UNL     1      34.431 -13.953 -20.527  0.00  0.00    +0.015 C 
ATOM     30  C   UNL     1      35.697 -16.850 -22.273  0.00  0.00    +0.017 C 
ATOM     31  C   UNL     1      35.761 -17.292 -20.972  0.00  0.00    +0.062 C 
ATOM     32  H   UNL     1      35.244 -16.337 -19.181  0.00  0.00    +0.152 HD
ENDBRANCH   8  24
TORSDOF 2
ENDMDL
MODEL 6
REMARK VINA RESULT:     -10.1      5.665     12.853
REMARK  Name = 447767
REMARK  2 active torsions:
REMARK  status: ('A' for Active; 'I' for Inactive)
REMARK    1  A    between atoms: N_2  and  C_10
REMARK    2  A    between atoms: C_8  and  C_24
REMARK                            x       y       z     vdW  Elec       q    Type
REMARK                         _______ _______ _______ _____ _____    ______ ____
ROOT
ATOM      1  O   UNL     1      33.364 -22.281 -18.727  0.00  0.00    -0.270 OA
ATOM      2  N   UNL     1      35.555 -23.333 -14.375  0.00  0.00    +0.396 N 
ATOM      3  N   UNL     1      34.618 -22.064 -16.766  0.00  0.00    -0.280 N 
ATOM      4  C   UNL     1      36.484 -22.578 -15.229  0.00  0.00    -0.054 C 
ATOM      5  C   UNL     1      34.504 -23.959 -15.189  0.00  0.00    -0.054 C 
ATOM      6  C   UNL     1      35.749 -21.496 -16.023  0.00  0.00    +0.071 C 
ATOM      7  C   UNL     1      33.725 -22.902 -15.969  0.00  0.00    +0.071 C 
ATOM      8  C   UNL     1      34.313 -21.806 -18.105  0.00  0.00    +0.249 C 
ATOM      9  H   UNL     1      35.114 -22.682 -13.725  0.00  0.00    -0.079 HD
ENDROOT
BRANCH   2  10
ATOM     10  C   UNL     1      36.274 -24.342 -13.599  0.00  0.00    -0.011 C 
ATOM     11  C   UNL     1      36.337 -23.992 -12.118  0.00  0.00    -0.038 C 
ATOM     12  C   UNL     1      37.753 -24.399 -13.959  0.00  0.00    -0.038 C 
ATOM     13  C   UNL     1      37.681 -23.868 -11.696  0.00  0.00    -0.006 C 
ATOM     14  C   UNL     1      38.549 -24.118 -12.827  0.00  0.00    -0.006 C 
ATOM     15  C   UNL     1      35.287 -23.821 -11.231  0.00  0.00    -0.006 C 
ATOM     16  C   UNL     1      38.326 -24.695 -15.185  0.00  0.00    -0.006 C 
ATOM     17  C   UNL     1      37.981 -23.559 -10.380  0.00  0.00    -0.000 C 
ATOM     18  C   UNL     1      39.932 -24.120 -12.918  0.00  0.00    -0.000 C 
ATOM     19  C   UNL     1      35.590 -23.510  -9.905  0.00  0.00    -0.000 C 
ATOM     20  C   UNL     1      39.719 -24.697 -15.277  0.00  0.00    -0.000 C 
ATOM     21  C   UNL     1      36.923 -23.379  -9.483  0.00  0.00    -0.000 C 
ATOM     22  C   UNL     1      40.514 -24.412 -14.155  0.00  0.00    -0.000 C 
ENDBRANCH   2  10
BRANCH   8  24
ATOM     23  N   UNL     1      37.409 -18.204 -21.040  0.00  0.00    -0.312 N 
ATOM     24  C   UNL     1      35.181 -20.884 -18.849  0.00  0.00    +0.054 C 
ATOM     25  C   UNL     1      34.610 -19.976 -19.745  0.00  0.00    +0.006 C 
ATOM     26  C   UNL     1      36.557 -20.928 -18.650  0.00  0.00    +0.006 C 
ATOM     27  C   UNL     1      35.449 -19.095 -20.453  0.00  0.00    +0.015 C 
ATOM     28  C   UNL     1      36.828 -19.157 -20.236  0.00  0.00    +0.048 C 
ATOM     29  C   UNL     1      37.410 -20.062 -19.341  0.00  0.00    +0.015 C 
ATOM     30  C   UNL     1      35.225 -18.070 -21.415  0.00  0.00    +0.017 C 
ATOM     31  C   UNL     1      36.448 -17.541 -21.756  0.00  0.00    +0.062 C 
ATOM     32  H   UNL     1      38.375 -18.023 -21.092  0.00  0.00    +0.152 HD
ENDBRANCH   8  24
TORSDOF 2
ENDMDL
MODEL 7
REMARK VINA RESULT:      -9.8      2.650      4.132
REMARK  Name = 447767
REMARK  2 active torsions:
REMARK  status: ('A' for Active; 'I' for Inactive)
REMARK    1  A    between atoms: N_2  and  C_10
REMARK    2  A    between atoms: C_8  and  C_24
REMARK                            x       y       z     vdW  Elec       q    Type
REMARK                         _______ _______ _______ _____ _____    ______ ____
ROOT
ATOM      1  O   UNL     1      34.178 -13.283 -26.122  0.00  0.00    -0.270 OA
ATOM      2  N   UNL     1      33.016 -10.183 -22.396  0.00  0.00    +0.396 N 
ATOM      3  N   UNL     1      34.131 -12.262 -24.019  0.00  0.00    -0.280 N 
ATOM      4  C   UNL     1      33.089 -11.561 -21.890  0.00  0.00    -0.054 C 
ATOM      5  C   UNL     1      32.816 -10.181 -23.852  0.00  0.00    -0.054 C 
ATOM      6  C   UNL     1      34.229 -12.334 -22.556  0.00  0.00    +0.071 C 
ATOM      7  C   UNL     1      33.957 -10.914 -24.553  0.00  0.00    +0.071 C 
ATOM      8  C   UNL     1      34.261 -13.343 -24.896  0.00  0.00    +0.249 C 
ATOM      9  H   UNL     1      33.900  -9.717 -22.191  0.00  0.00    -0.079 HD
ENDROOT
BRANCH   2  10
ATOM     10  C   UNL     1      31.943  -9.447 -21.729  0.00  0.00    -0.011 C 
ATOM     11  C   UNL     1      32.235  -7.955 -21.642  0.00  0.00    -0.038 C 
ATOM     12  C   UNL     1      31.820  -9.816 -20.257  0.00  0.00    -0.038 C 
ATOM     13  C   UNL     1      32.273  -7.536 -20.293  0.00  0.00    -0.006 C 
ATOM     14  C   UNL     1      32.018  -8.679 -19.443  0.00  0.00    -0.006 C 
ATOM     15  C   UNL     1      32.430  -7.057 -22.679  0.00  0.00    -0.006 C 
ATOM     16  C   UNL     1      31.538 -11.055 -19.704  0.00  0.00    -0.006 C 
ATOM     17  C   UNL     1      32.518  -6.211 -19.972  0.00  0.00    -0.000 C 
ATOM     18  C   UNL     1      31.945  -8.777 -18.062  0.00  0.00    -0.000 C 
ATOM     19  C   UNL     1      32.677  -5.722 -22.356  0.00  0.00    -0.000 C 
ATOM     20  C   UNL     1      31.465 -11.154 -18.313  0.00  0.00    -0.000 C 
ATOM     21  C   UNL     1      32.722  -5.302 -21.016  0.00  0.00    -0.000 C 
ATOM     22  C   UNL     1      31.668 -10.027 -17.501  0.00  0.00    -0.000 C 
ENDBRANCH   2  10
BRANCH   8  24
ATOM     23  N   UNL     1      35.151 -18.492 -22.930  0.00  0.00    -0.312 N 
ATOM     24  C   UNL     1      34.526 -14.671 -24.327  0.00  0.00    +0.054 C 
ATOM     25  C   UNL     1      34.051 -15.807 -24.986  0.00  0.00    +0.006 C 
ATOM     26  C   UNL     1      35.248 -14.777 -23.142  0.00  0.00    +0.006 C 
ATOM     27  C   UNL     1      34.311 -17.076 -24.436  0.00  0.00    +0.015 C 
ATOM     28  C   UNL     1      35.038 -17.158 -23.246  0.00  0.00    +0.048 C 
ATOM     29  C   UNL     1      35.519 -16.026 -22.577  0.00  0.00    +0.015 C 
ATOM     30  C   UNL     1      33.993 -18.409 -24.821  0.00  0.00    +0.017 C 
ATOM     31  C   UNL     1      34.522 -19.256 -23.876  0.00  0.00    +0.062 C 
ATOM     32  H   UNL     1      35.616 -18.846 -22.138  0.00  0.00    +0.152 HD
ENDBRANCH   8  24
TORSDOF 2
ENDMDL
MODEL 8
REMARK VINA RESULT:      -9.6      3.089      5.976
REMARK  Name = 447767
REMARK  2 active torsions:
REMARK  status: ('A' for Active; 'I' for Inactive)
REMARK    1  A    between atoms: N_2  and  C_10
REMARK    2  A    between atoms: C_8  and  C_24
REMARK                            x       y       z     vdW  Elec       q    Type
REMARK                         _______ _______ _______ _____ _____    ______ ____
ROOT
ATOM      1  O   UNL     1      32.130 -12.903 -19.814  0.00  0.00    -0.270 OA
ATOM      2  N   UNL     1      33.129  -8.682 -22.269  0.00  0.00    +0.396 N 
ATOM      3  N   UNL     1      32.719 -11.415 -21.518  0.00  0.00    -0.280 N 
ATOM      4  C   UNL     1      34.128  -9.705 -22.614  0.00  0.00    -0.054 C 
ATOM      5  C   UNL     1      32.471  -9.015 -20.998  0.00  0.00    -0.054 C 
ATOM      6  C   UNL     1      33.484 -11.088 -22.728  0.00  0.00    +0.071 C 
ATOM      7  C   UNL     1      31.785 -10.377 -21.088  0.00  0.00    +0.071 C 
ATOM      8  C   UNL     1      32.771 -12.628 -20.827  0.00  0.00    +0.249 C 
ATOM      9  H   UNL     1      32.422  -8.662 -23.004  0.00  0.00    -0.079 HD
ENDROOT
BRANCH   2  10
ATOM     10  C   UNL     1      33.752  -7.361 -22.194  0.00  0.00    -0.011 C 
ATOM     11  C   UNL     1      32.761  -6.280 -21.782  0.00  0.00    -0.038 C 
ATOM     12  C   UNL     1      34.197  -6.856 -23.560  0.00  0.00    -0.038 C 
ATOM     13  C   UNL     1      32.661  -5.291 -22.787  0.00  0.00    -0.006 C 
ATOM     14  C   UNL     1      33.542  -5.645 -23.878  0.00  0.00    -0.006 C 
ATOM     15  C   UNL     1      32.034  -6.185 -20.606  0.00  0.00    -0.006 C 
ATOM     16  C   UNL     1      35.119  -7.423 -24.425  0.00  0.00    -0.006 C 
ATOM     17  C   UNL     1      31.819  -4.203 -22.624  0.00  0.00    -0.000 C 
ATOM     18  C   UNL     1      33.799  -4.997 -25.076  0.00  0.00    -0.000 C 
ATOM     19  C   UNL     1      31.186  -5.089 -20.442  0.00  0.00    -0.000 C 
ATOM     20  C   UNL     1      35.378  -6.770 -25.632  0.00  0.00    -0.000 C 
ATOM     21  C   UNL     1      31.078  -4.108 -21.441  0.00  0.00    -0.000 C 
ATOM     22  C   UNL     1      34.723  -5.570 -25.954  0.00  0.00    -0.000 C 
ENDBRANCH   2  10
BRANCH   8  24
ATOM     23  N   UNL     1      36.142 -16.731 -22.553  0.00  0.00    -0.312 N 
ATOM     24  C   UNL     1      33.654 -13.683 -21.343  0.00  0.00    +0.054 C 
ATOM     25  C   UNL     1      34.183 -14.627 -20.459  0.00  0.00    +0.006 C 
ATOM     26  C   UNL     1      33.948 -13.728 -22.702  0.00  0.00    +0.006 C 
ATOM     27  C   UNL     1      35.027 -15.636 -20.961  0.00  0.00    +0.015 C 
ATOM     28  C   UNL     1      35.307 -15.661 -22.329  0.00  0.00    +0.048 C 
ATOM     29  C   UNL     1      34.783 -14.721 -23.223  0.00  0.00    +0.015 C 
ATOM     30  C   UNL     1      35.723 -16.730 -20.373  0.00  0.00    +0.017 C 
ATOM     31  C   UNL     1      36.400 -17.383 -21.376  0.00  0.00    +0.062 C 
ATOM     32  H   UNL     1      36.503 -16.991 -23.431  0.00  0.00    +0.152 HD
ENDBRANCH   8  24
TORSDOF 2
ENDMDL
MODEL 9
REMARK VINA RESULT:      -9.5      4.570     10.883
REMARK  Name = 447767
REMARK  2 active torsions:
REMARK  status: ('A' for Active; 'I' for Inactive)
REMARK    1  A    between atoms: N_2  and  C_10
REMARK    2  A    between atoms: C_8  and  C_24
REMARK                            x       y       z     vdW  Elec       q    Type
REMARK                         _______ _______ _______ _____ _____    ______ ____
ROOT
ATOM      1  O   UNL     1      36.776 -21.023 -19.889  0.00  0.00    -0.270 OA
ATOM      2  N   UNL     1      32.564 -21.851 -17.356  0.00  0.00    +0.396 N 
ATOM      3  N   UNL     1      34.509 -21.116 -19.325  0.00  0.00    -0.280 N 
ATOM      4  C   UNL     1      32.500 -20.534 -18.008  0.00  0.00    -0.054 C 
ATOM      5  C   UNL     1      33.959 -22.292 -17.227  0.00  0.00    -0.054 C 
ATOM      6  C   UNL     1      33.147 -20.573 -19.394  0.00  0.00    +0.071 C 
ATOM      7  C   UNL     1      34.627 -22.377 -18.598  0.00  0.00    +0.071 C 
ATOM      8  C   UNL     1      35.634 -20.568 -19.946  0.00  0.00    +0.249 C 
ATOM      9  H   UNL     1      32.065 -22.523 -17.939  0.00  0.00    -0.079 HD
ENDROOT
BRANCH   2  10
ATOM     10  C   UNL     1      31.915 -21.808 -16.047  0.00  0.00    -0.011 C 
ATOM     11  C   UNL     1      32.687 -22.594 -14.996  0.00  0.00    -0.038 C 
ATOM     12  C   UNL     1      30.576 -22.534 -16.043  0.00  0.00    -0.038 C 
ATOM     13  C   UNL     1      31.885 -23.631 -14.466  0.00  0.00    -0.006 C 
ATOM     14  C   UNL     1      30.590 -23.594 -15.110  0.00  0.00    -0.006 C 
ATOM     15  C   UNL     1      33.980 -22.385 -14.545  0.00  0.00    -0.006 C 
ATOM     16  C   UNL     1      29.447 -22.253 -16.795  0.00  0.00    -0.006 C 
ATOM     17  C   UNL     1      32.381 -24.476 -13.486  0.00  0.00    -0.000 C 
ATOM     18  C   UNL     1      29.471 -24.391 -14.931  0.00  0.00    -0.000 C 
ATOM     19  C   UNL     1      34.479 -23.235 -13.557  0.00  0.00    -0.000 C 
ATOM     20  C   UNL     1      28.319 -23.056 -16.615  0.00  0.00    -0.000 C 
ATOM     21  C   UNL     1      33.688 -24.271 -13.033  0.00  0.00    -0.000 C 
ATOM     22  C   UNL     1      28.332 -24.115 -15.693  0.00  0.00    -0.000 C 
ENDBRANCH   2  10
BRANCH   8  24
ATOM     23  N   UNL     1      34.881 -16.075 -23.175  0.00  0.00    -0.312 N 
ATOM     24  C   UNL     1      35.461 -19.348 -20.747  0.00  0.00    +0.054 C 
ATOM     25  C   UNL     1      34.961 -19.448 -22.048  0.00  0.00    +0.006 C 
ATOM     26  C   UNL     1      35.793 -18.114 -20.197  0.00  0.00    +0.006 C 
ATOM     27  C   UNL     1      34.796 -18.274 -22.808  0.00  0.00    +0.015 C 
ATOM     28  C   UNL     1      35.136 -17.047 -22.235  0.00  0.00    +0.048 C 
ATOM     29  C   UNL     1      35.636 -16.936 -20.932  0.00  0.00    +0.015 C 
ATOM     30  C   UNL     1      34.328 -18.003 -24.125  0.00  0.00    +0.017 C 
ATOM     31  C   UNL     1      34.393 -16.644 -24.321  0.00  0.00    +0.062 C 
ATOM     32  H   UNL     1      35.029 -15.111 -23.043  0.00  0.00    +0.152 HD
ENDBRANCH   8  24
TORSDOF 2
ENDMDL
