MODEL 1
REMARK VINA RESULT:     -11.6      0.000      0.000
REMARK  Name = 44144378
REMARK  5 active torsions:
REMARK  status: ('A' for Active; 'I' for Inactive)
REMARK    1  A    between atoms: C_1  and  C_3
REMARK    2  A    between atoms: C_1  and  C_18
REMARK    3  A    between atoms: C_4  and  C_9
REMARK    4  A    between atoms: C_8  and  O_16
REMARK    5  A    between atoms: C_19  and  C_24
REMARK                            x       y       z     vdW  Elec       q    Type
REMARK                         _______ _______ _______ _____ _____    ______ ____
ROOT
ATOM      1  C   UNL     1      32.689 -23.425 -13.290  0.00  0.00    +0.086 C 
ATOM      2  C   UNL     1      31.882 -24.637 -12.786  0.00  0.00    +0.019 C 
ENDROOT
BRANCH   1   3
ATOM      3  C   UNL     1      32.189 -22.908 -14.597  0.00  0.00    -0.007 C 
ATOM      4  C   UNL     1      32.619 -21.914 -16.757  0.00  0.00    +0.003 C 
ATOM      5  C   UNL     1      33.087 -22.397 -15.534  0.00  0.00    -0.003 C 
ATOM      6  C   UNL     1      30.824 -22.937 -14.882  0.00  0.00    +0.034 C 
ATOM      7  C   UNL     1      31.253 -21.943 -17.041  0.00  0.00    +0.037 C 
ATOM      8  C   UNL     1      30.356 -22.454 -16.104  0.00  0.00    +0.138 C 
BRANCH   4   9
ATOM      9  C   UNL     1      33.550 -21.384 -17.730  0.00  0.00    +0.000 C 
ATOM     10  C   UNL     1      34.917 -21.626 -17.591  0.00  0.00    -0.000 C 
ATOM     11  C   UNL     1      33.080 -20.631 -18.806  0.00  0.00    -0.000 C 
ATOM     12  C   UNL     1      35.344 -20.362 -19.606  0.00  0.00    -0.022 C 
ATOM     13  C   UNL     1      35.814 -21.115 -18.529  0.00  0.00    -0.004 C 
ATOM     14  C   UNL     1      33.977 -20.121 -19.744  0.00  0.00    -0.004 C 
ATOM     15  C   UNL     1      36.304 -19.816 -20.608  0.00  0.00    +0.031 C 
ENDBRANCH   4   9
BRANCH   8  16
ATOM     16  O   UNL     1      29.024 -22.482 -16.381  0.00  0.00    -0.471 OA
ATOM     17  C   UNL     1      28.140 -21.997 -15.371  0.00  0.00    +0.252 C 
ENDBRANCH   8  16
ENDBRANCH   1   3
BRANCH   1  18
ATOM     18  C   UNL     1      34.133 -23.769 -13.334  0.00  0.00    -0.087 C 
ATOM     19  C   UNL     1      35.298 -24.057 -13.391  0.00  0.00    -0.076 C 
BRANCH  19  24
ATOM     20  N   UNL     1      38.966 -23.958 -12.835  0.00  0.00    -0.336 NA
ATOM     21  N   UNL     1      38.451 -25.809 -14.291  0.00  0.00    -0.317 NA
ATOM     22  N   UNL     1      36.217 -26.256 -14.921  0.00  0.00    -0.334 N 
ATOM     23  N   UNL     1      40.664 -25.354 -13.658  0.00  0.00    -0.283 N 
ATOM     24  C   UNL     1      36.685 -24.398 -13.465  0.00  0.00    +0.179 C 
ATOM     25  C   UNL     1      37.648 -23.674 -12.794  0.00  0.00    +0.120 C 
ATOM     26  C   UNL     1      37.149 -25.466 -14.206  0.00  0.00    +0.186 C 
ATOM     27  C   UNL     1      37.278 -22.492 -11.956  0.00  0.00    +0.064 C 
ATOM     28  C   UNL     1      39.293 -25.024 -13.592  0.00  0.00    +0.196 C 
ATOM     29  H   UNL     1      36.528 -27.023 -15.456  0.00  0.00    +0.144 HD
ATOM     30  H   UNL     1      35.257 -26.041 -14.885  0.00  0.00    +0.144 HD
ATOM     31  H   UNL     1      41.324 -24.813 -13.166  0.00  0.00    +0.156 HD
ATOM     32  H   UNL     1      40.960 -26.123 -14.197  0.00  0.00    +0.156 HD
ENDBRANCH  19  24
ENDBRANCH   1  18
TORSDOF 5
ENDMDL
MODEL 2
REMARK VINA RESULT:     -11.2      3.919      6.861
REMARK  Name = 44144378
REMARK  5 active torsions:
REMARK  status: ('A' for Active; 'I' for Inactive)
REMARK    1  A    between atoms: C_1  and  C_3
REMARK    2  A    between atoms: C_1  and  C_18
REMARK    3  A    between atoms: C_4  and  C_9
REMARK    4  A    between atoms: C_8  and  O_16
REMARK    5  A    between atoms: C_19  and  C_24
REMARK                            x       y       z     vdW  Elec       q    Type
REMARK                         _______ _______ _______ _____ _____    ______ ____
ROOT
ATOM      1  C   UNL     1      32.480 -22.657 -16.911  0.00  0.00    +0.086 C 
ATOM      2  C   UNL     1      31.068 -22.048 -16.814  0.00  0.00    +0.019 C 
ENDROOT
BRANCH   1   3
ATOM      3  C   UNL     1      33.081 -22.925 -15.572  0.00  0.00    -0.007 C 
ATOM      4  C   UNL     1      34.992 -23.518 -14.217  0.00  0.00    +0.003 C 
ATOM      5  C   UNL     1      34.429 -23.268 -15.469  0.00  0.00    -0.003 C 
ATOM      6  C   UNL     1      32.296 -22.830 -14.424  0.00  0.00    +0.034 C 
ATOM      7  C   UNL     1      34.205 -23.423 -13.068  0.00  0.00    +0.037 C 
ATOM      8  C   UNL     1      32.858 -23.080 -13.171  0.00  0.00    +0.138 C 
BRANCH   4   9
ATOM      9  C   UNL     1      36.391 -23.874 -14.109  0.00  0.00    +0.000 C 
ATOM     10  C   UNL     1      37.357 -23.110 -14.763  0.00  0.00    -0.000 C 
ATOM     11  C   UNL     1      36.771 -24.982 -13.351  0.00  0.00    -0.000 C 
ATOM     12  C   UNL     1      39.086 -24.561 -13.902  0.00  0.00    -0.022 C 
ATOM     13  C   UNL     1      38.705 -23.453 -14.659  0.00  0.00    -0.004 C 
ATOM     14  C   UNL     1      38.119 -25.325 -13.248  0.00  0.00    -0.004 C 
ATOM     15  C   UNL     1      40.527 -24.929 -13.791  0.00  0.00    +0.031 C 
ENDBRANCH   4   9
BRANCH   8  16
ATOM     16  O   UNL     1      32.091 -22.988 -12.051  0.00  0.00    -0.471 OA
ATOM     17  C   UNL     1      30.736 -23.425 -12.155  0.00  0.00    +0.252 C 
ENDBRANCH   8  16
ENDBRANCH   1   3
BRANCH   1  18
ATOM     18  C   UNL     1      33.342 -21.789 -17.754  0.00  0.00    -0.087 C 
ATOM     19  C   UNL     1      34.020 -21.074 -18.441  0.00  0.00    -0.076 C 
BRANCH  19  24
ATOM     20  N   UNL     1      36.978 -19.298 -19.806  0.00  0.00    -0.336 NA
ATOM     21  N   UNL     1      35.032 -18.653 -21.075  0.00  0.00    -0.317 NA
ATOM     22  N   UNL     1      32.906 -19.546 -20.551  0.00  0.00    -0.334 N 
ATOM     23  N   UNL     1      37.148 -17.775 -21.584  0.00  0.00    -0.283 N 
ATOM     24  C   UNL     1      34.823 -20.218 -19.258  0.00  0.00    +0.179 C 
ATOM     25  C   UNL     1      36.182 -20.092 -19.061  0.00  0.00    +0.120 C 
ATOM     26  C   UNL     1      34.297 -19.467 -20.290  0.00  0.00    +0.186 C 
ATOM     27  C   UNL     1      36.877 -20.852 -17.976  0.00  0.00    +0.064 C 
ATOM     28  C   UNL     1      36.346 -18.616 -20.782  0.00  0.00    +0.196 C 
ATOM     29  H   UNL     1      32.512 -19.018 -21.282  0.00  0.00    +0.144 HD
ATOM     30  H   UNL     1      32.334 -20.128 -20.002  0.00  0.00    +0.144 HD
ATOM     31  H   UNL     1      38.116 -17.709 -21.414  0.00  0.00    +0.156 HD
ATOM     32  H   UNL     1      36.739 -17.253 -22.311  0.00  0.00    +0.156 HD
ENDBRANCH  19  24
ENDBRANCH   1  18
TORSDOF 5
ENDMDL
MODEL 3
REMARK VINA RESULT:     -11.1     12.486     15.879
REMARK  Name = 44144378
REMARK  5 active torsions:
REMARK  status: ('A' for Active; 'I' for Inactive)
REMARK    1  A    between atoms: C_1  and  C_3
REMARK    2  A    between atoms: C_1  and  C_18
REMARK    3  A    between atoms: C_4  and  C_9
REMARK    4  A    between atoms: C_8  and  O_16
REMARK    5  A    between atoms: C_19  and  C_24
REMARK                            x       y       z     vdW  Elec       q    Type
REMARK                         _______ _______ _______ _____ _____    ______ ____
ROOT
ATOM      1  C   UNL     1      31.797 -10.727 -20.603  0.00  0.00    +0.086 C 
ATOM      2  C   UNL     1      31.972 -11.133 -19.126  0.00  0.00    +0.019 C 
ENDROOT
BRANCH   1   3
ATOM      3  C   UNL     1      32.767 -11.413 -21.504  0.00  0.00    -0.007 C 
ATOM      4  C   UNL     1      34.186 -13.304 -22.001  0.00  0.00    +0.003 C 
ATOM      5  C   UNL     1      33.279 -12.663 -21.157  0.00  0.00    -0.003 C 
ATOM      6  C   UNL     1      33.162 -10.804 -22.695  0.00  0.00    +0.034 C 
ATOM      7  C   UNL     1      34.581 -12.695 -23.192  0.00  0.00    +0.037 C 
ATOM      8  C   UNL     1      34.070 -11.445 -23.539  0.00  0.00    +0.138 C 
BRANCH   4   9
ATOM      9  C   UNL     1      34.717 -14.602 -21.641  0.00  0.00    +0.000 C 
ATOM     10  C   UNL     1      35.122 -15.491 -22.637  0.00  0.00    -0.000 C 
ATOM     11  C   UNL     1      34.823 -14.963 -20.298  0.00  0.00    -0.000 C 
ATOM     12  C   UNL     1      35.740 -17.103 -20.946  0.00  0.00    -0.022 C 
ATOM     13  C   UNL     1      35.633 -16.741 -22.290  0.00  0.00    -0.004 C 
ATOM     14  C   UNL     1      35.335 -16.213 -19.951  0.00  0.00    -0.004 C 
ATOM     15  C   UNL     1      36.286 -18.440 -20.575  0.00  0.00    +0.031 C 
ENDBRANCH   4   9
BRANCH   8  16
ATOM     16  O   UNL     1      34.455 -10.850 -24.701  0.00  0.00    -0.471 OA
ATOM     17  C   UNL     1      33.840 -11.314 -25.903  0.00  0.00    +0.252 C 
ENDBRANCH   8  16
ENDBRANCH   1   3
BRANCH   1  18
ATOM     18  C   UNL     1      31.860  -9.248 -20.724  0.00  0.00    -0.087 C 
ATOM     19  C   UNL     1      31.911  -8.054 -20.846  0.00  0.00    -0.076 C 
BRANCH  19  24
ATOM     20  N   UNL     1      31.819  -4.688 -22.406  0.00  0.00    -0.336 NA
ATOM     21  N   UNL     1      32.280  -4.440 -20.053  0.00  0.00    -0.317 NA
ATOM     22  N   UNL     1      32.431  -6.339 -18.652  0.00  0.00    -0.334 N 
ATOM     23  N   UNL     1      32.127  -2.565 -21.455  0.00  0.00    -0.283 N 
ATOM     24  C   UNL     1      31.968  -6.633 -20.996  0.00  0.00    +0.179 C 
ATOM     25  C   UNL     1      31.773  -6.023 -22.218  0.00  0.00    +0.120 C 
ATOM     26  C   UNL     1      32.221  -5.784 -19.938  0.00  0.00    +0.186 C 
ATOM     27  C   UNL     1      31.491  -6.830 -23.445  0.00  0.00    +0.064 C 
ATOM     28  C   UNL     1      32.073  -3.967 -21.297  0.00  0.00    +0.196 C 
ATOM     29  H   UNL     1      32.613  -5.750 -17.885  0.00  0.00    +0.144 HD
ATOM     30  H   UNL     1      32.396  -7.315 -18.525  0.00  0.00    +0.144 HD
ATOM     31  H   UNL     1      31.984  -2.164 -22.343  0.00  0.00    +0.156 HD
ATOM     32  H   UNL     1      32.310  -1.989 -20.678  0.00  0.00    +0.156 HD
ENDBRANCH  19  24
ENDBRANCH   1  18
TORSDOF 5
ENDMDL
MODEL 4
REMARK VINA RESULT:     -11.0     12.631     15.884
REMARK  Name = 44144378
REMARK  5 active torsions:
REMARK  status: ('A' for Active; 'I' for Inactive)
REMARK    1  A    between atoms: C_1  and  C_3
REMARK    2  A    between atoms: C_1  and  C_18
REMARK    3  A    between atoms: C_4  and  C_9
REMARK    4  A    between atoms: C_8  and  O_16
REMARK    5  A    between atoms: C_19  and  C_24
REMARK                            x       y       z     vdW  Elec       q    Type
REMARK                         _______ _______ _______ _____ _____    ______ ____
ROOT
ATOM      1  C   UNL     1      31.830 -10.694 -20.654  0.00  0.00    +0.086 C 
ATOM      2  C   UNL     1      32.044 -11.050 -19.170  0.00  0.00    +0.019 C 
ENDROOT
BRANCH   1   3
ATOM      3  C   UNL     1      32.789 -11.397 -21.555  0.00  0.00    -0.007 C 
ATOM      4  C   UNL     1      34.195 -13.302 -22.038  0.00  0.00    +0.003 C 
ATOM      5  C   UNL     1      33.299 -12.644 -21.194  0.00  0.00    -0.003 C 
ATOM      6  C   UNL     1      33.173 -10.808 -22.760  0.00  0.00    +0.034 C 
ATOM      7  C   UNL     1      34.579 -12.712 -23.243  0.00  0.00    +0.037 C 
ATOM      8  C   UNL     1      34.069 -11.465 -23.604  0.00  0.00    +0.138 C 
BRANCH   4   9
ATOM      9  C   UNL     1      34.724 -14.596 -21.664  0.00  0.00    +0.000 C 
ATOM     10  C   UNL     1      35.158 -15.483 -22.649  0.00  0.00    -0.000 C 
ATOM     11  C   UNL     1      34.801 -14.954 -20.318  0.00  0.00    -0.000 C 
ATOM     12  C   UNL     1      35.745 -17.089 -20.942  0.00  0.00    -0.022 C 
ATOM     13  C   UNL     1      35.668 -16.730 -22.288  0.00  0.00    -0.004 C 
ATOM     14  C   UNL     1      35.312 -16.201 -19.958  0.00  0.00    -0.004 C 
ATOM     15  C   UNL     1      36.291 -18.423 -20.557  0.00  0.00    +0.031 C 
ENDBRANCH   4   9
BRANCH   8  16
ATOM     16  O   UNL     1      34.444 -10.890 -24.778  0.00  0.00    -0.471 OA
ATOM     17  C   UNL     1      33.857 -11.409 -25.972  0.00  0.00    +0.252 C 
ENDBRANCH   8  16
ENDBRANCH   1   3
BRANCH   1  18
ATOM     18  C   UNL     1      31.872  -9.219 -20.825  0.00  0.00    -0.087 C 
ATOM     19  C   UNL     1      31.900  -8.029 -20.986  0.00  0.00    -0.076 C 
BRANCH  19  24
ATOM     20  N   UNL     1      32.151  -4.396 -20.268  0.00  0.00    -0.336 NA
ATOM     21  N   UNL     1      31.795  -4.697 -22.633  0.00  0.00    -0.317 NA
ATOM     22  N   UNL     1      31.574  -6.866 -23.548  0.00  0.00    -0.334 N 
ATOM     23  N   UNL     1      32.016  -2.551 -21.712  0.00  0.00    -0.283 N 
ATOM     24  C   UNL     1      31.929  -6.613 -21.181  0.00  0.00    +0.179 C 
ATOM     25  C   UNL     1      32.117  -5.738 -20.131  0.00  0.00    +0.120 C 
ATOM     26  C   UNL     1      31.771  -6.030 -22.422  0.00  0.00    +0.186 C 
ATOM     27  C   UNL     1      32.300  -6.241 -18.734  0.00  0.00    +0.064 C 
ATOM     28  C   UNL     1      31.985  -3.951 -21.528  0.00  0.00    +0.196 C 
ATOM     29  H   UNL     1      31.460  -6.470 -24.442  0.00  0.00    +0.144 HD
ATOM     30  H   UNL     1      31.551  -7.844 -23.438  0.00  0.00    +0.144 HD
ATOM     31  H   UNL     1      32.152  -1.956 -20.938  0.00  0.00    +0.156 HD
ATOM     32  H   UNL     1      31.900  -2.170 -22.612  0.00  0.00    +0.156 HD
ENDBRANCH  19  24
ENDBRANCH   1  18
TORSDOF 5
ENDMDL
MODEL 5
REMARK VINA RESULT:     -10.9      4.002      6.823
REMARK  Name = 44144378
REMARK  5 active torsions:
REMARK  status: ('A' for Active; 'I' for Inactive)
REMARK    1  A    between atoms: C_1  and  C_3
REMARK    2  A    between atoms: C_1  and  C_18
REMARK    3  A    between atoms: C_4  and  C_9
REMARK    4  A    between atoms: C_8  and  O_16
REMARK    5  A    between atoms: C_19  and  C_24
REMARK                            x       y       z     vdW  Elec       q    Type
REMARK                         _______ _______ _______ _____ _____    ______ ____
ROOT
ATOM      1  C   UNL     1      34.517 -23.882 -13.791  0.00  0.00    +0.086 C 
ATOM      2  C   UNL     1      34.629 -23.488 -12.305  0.00  0.00    +0.019 C 
ENDROOT
BRANCH   1   3
ATOM      3  C   UNL     1      35.586 -23.266 -14.628  0.00  0.00    -0.007 C 
ATOM      4  C   UNL     1      36.247 -21.957 -16.549  0.00  0.00    +0.003 C 
ATOM      5  C   UNL     1      35.247 -22.534 -15.766  0.00  0.00    -0.003 C 
ATOM      6  C   UNL     1      36.926 -23.420 -14.272  0.00  0.00    +0.034 C 
ATOM      7  C   UNL     1      37.587 -22.112 -16.193  0.00  0.00    +0.037 C 
ATOM      8  C   UNL     1      37.927 -22.844 -15.055  0.00  0.00    +0.138 C 
BRANCH   4   9
ATOM      9  C   UNL     1      35.895 -21.198 -17.730  0.00  0.00    +0.000 C 
ATOM     10  C   UNL     1      36.868 -20.455 -18.397  0.00  0.00    -0.000 C 
ATOM     11  C   UNL     1      34.582 -21.210 -18.200  0.00  0.00    -0.000 C 
ATOM     12  C   UNL     1      35.216 -19.734 -20.006  0.00  0.00    -0.022 C 
ATOM     13  C   UNL     1      36.529 -19.723 -19.535  0.00  0.00    -0.004 C 
ATOM     14  C   UNL     1      34.242 -20.478 -19.338  0.00  0.00    -0.004 C 
ATOM     15  C   UNL     1      34.853 -18.952 -21.222  0.00  0.00    +0.031 C 
ENDBRANCH   4   9
BRANCH   8  16
ATOM     16  O   UNL     1      39.234 -22.995 -14.708  0.00  0.00    -0.471 OA
ATOM     17  C   UNL     1      39.669 -24.314 -14.376  0.00  0.00    +0.252 C 
ENDBRANCH   8  16
ENDBRANCH   1   3
BRANCH   1  18
ATOM     18  C   UNL     1      33.155 -23.564 -14.291  0.00  0.00    -0.087 C 
ATOM     19  C   UNL     1      32.046 -23.304 -14.673  0.00  0.00    -0.076 C 
BRANCH  19  24
ATOM     20  N   UNL     1      28.341 -23.212 -14.874  0.00  0.00    -0.336 NA
ATOM     21  N   UNL     1      29.249 -21.872 -16.660  0.00  0.00    -0.317 NA
ATOM     22  N   UNL     1      31.588 -21.643 -16.921  0.00  0.00    -0.334 N 
ATOM     23  N   UNL     1      26.930 -22.109 -16.390  0.00  0.00    -0.283 N 
ATOM     24  C   UNL     1      30.725 -22.990 -15.122  0.00  0.00    +0.179 C 
ATOM     25  C   UNL     1      29.605 -23.481 -14.485  0.00  0.00    +0.120 C 
ATOM     26  C   UNL     1      30.484 -22.183 -16.216  0.00  0.00    +0.186 C 
ATOM     27  C   UNL     1      29.728 -24.368 -13.286  0.00  0.00    +0.064 C 
ATOM     28  C   UNL     1      28.238 -22.413 -15.953  0.00  0.00    +0.196 C 
ATOM     29  H   UNL     1      31.437 -21.065 -17.704  0.00  0.00    +0.144 HD
ATOM     30  H   UNL     1      32.506 -21.845 -16.630  0.00  0.00    +0.144 HD
ATOM     31  H   UNL     1      26.153 -22.477 -15.910  0.00  0.00    +0.156 HD
ATOM     32  H   UNL     1      26.796 -21.529 -17.174  0.00  0.00    +0.156 HD
ENDBRANCH  19  24
ENDBRANCH   1  18
TORSDOF 5
ENDMDL
MODEL 6
REMARK VINA RESULT:     -10.6     11.382     14.362
REMARK  Name = 44144378
REMARK  5 active torsions:
REMARK  status: ('A' for Active; 'I' for Inactive)
REMARK    1  A    between atoms: C_1  and  C_3
REMARK    2  A    between atoms: C_1  and  C_18
REMARK    3  A    between atoms: C_4  and  C_9
REMARK    4  A    between atoms: C_8  and  O_16
REMARK    5  A    between atoms: C_19  and  C_24
REMARK                            x       y       z     vdW  Elec       q    Type
REMARK                         _______ _______ _______ _____ _____    ______ ____
ROOT
ATOM      1  C   UNL     1      33.704 -11.171 -23.661  0.00  0.00    +0.086 C 
ATOM      2  C   UNL     1      34.884 -10.414 -24.302  0.00  0.00    +0.019 C 
ENDROOT
BRANCH   1   3
ATOM      3  C   UNL     1      33.033 -10.383 -22.588  0.00  0.00    -0.007 C 
ATOM      4  C   UNL     1      32.347  -8.255 -21.672  0.00  0.00    +0.003 C 
ATOM      5  C   UNL     1      32.975  -8.992 -22.676  0.00  0.00    -0.003 C 
ATOM      6  C   UNL     1      32.462 -11.037 -21.496  0.00  0.00    +0.034 C 
ATOM      7  C   UNL     1      31.776  -8.909 -20.580  0.00  0.00    +0.037 C 
ATOM      8  C   UNL     1      31.834 -10.300 -20.491  0.00  0.00    +0.138 C 
BRANCH   4   9
ATOM      9  C   UNL     1      32.287  -6.811 -21.764  0.00  0.00    +0.000 C 
ATOM     10  C   UNL     1      32.219  -6.194 -23.012  0.00  0.00    -0.000 C 
ATOM     11  C   UNL     1      32.296  -6.038 -20.602  0.00  0.00    -0.000 C 
ATOM     12  C   UNL     1      32.170  -4.030 -21.940  0.00  0.00    -0.022 C 
ATOM     13  C   UNL     1      32.161  -4.803 -23.101  0.00  0.00    -0.004 C 
ATOM     14  C   UNL     1      32.238  -4.648 -20.691  0.00  0.00    -0.004 C 
ATOM     15  C   UNL     1      32.108  -2.543 -22.034  0.00  0.00    +0.031 C 
ENDBRANCH   4   9
BRANCH   8  16
ATOM     16  O   UNL     1      31.277 -10.938 -19.426  0.00  0.00    -0.471 OA
ATOM     17  C   UNL     1      31.514 -10.375 -18.136  0.00  0.00    +0.252 C 
ENDBRANCH   8  16
ENDBRANCH   1   3
BRANCH   1  18
ATOM     18  C   UNL     1      34.164 -12.500 -23.183  0.00  0.00    -0.087 C 
ATOM     19  C   UNL     1      34.514 -13.579 -22.788  0.00  0.00    -0.076 C 
BRANCH  19  24
ATOM     20  N   UNL     1      35.391 -16.352 -20.482  0.00  0.00    -0.336 NA
ATOM     21  N   UNL     1      35.659 -17.116 -22.752  0.00  0.00    -0.317 NA
ATOM     22  N   UNL     1      35.208 -15.670 -24.568  0.00  0.00    -0.334 N 
ATOM     23  N   UNL     1      36.103 -18.540 -20.941  0.00  0.00    -0.283 N 
ATOM     24  C   UNL     1      34.926 -14.865 -22.317  0.00  0.00    +0.179 C 
ATOM     25  C   UNL     1      35.007 -15.154 -20.971  0.00  0.00    +0.120 C 
ATOM     26  C   UNL     1      35.268 -15.894 -23.171  0.00  0.00    +0.186 C 
ATOM     27  C   UNL     1      34.665 -14.126 -19.940  0.00  0.00    +0.064 C 
ATOM     28  C   UNL     1      35.698 -17.273 -21.415  0.00  0.00    +0.196 C 
ATOM     29  H   UNL     1      35.448 -16.392 -25.193  0.00  0.00    +0.144 HD
ATOM     30  H   UNL     1      34.927 -14.793 -24.915  0.00  0.00    +0.144 HD
ATOM     31  H   UNL     1      36.150 -18.711 -19.972  0.00  0.00    +0.156 HD
ATOM     32  H   UNL     1      36.340 -19.252 -21.579  0.00  0.00    +0.156 HD
ENDBRANCH  19  24
ENDBRANCH   1  18
TORSDOF 5
ENDMDL
MODEL 7
REMARK VINA RESULT:     -10.5     12.849     16.205
REMARK  Name = 44144378
REMARK  5 active torsions:
REMARK  status: ('A' for Active; 'I' for Inactive)
REMARK    1  A    between atoms: C_1  and  C_3
REMARK    2  A    between atoms: C_1  and  C_18
REMARK    3  A    between atoms: C_4  and  C_9
REMARK    4  A    between atoms: C_8  and  O_16
REMARK    5  A    between atoms: C_19  and  C_24
REMARK                            x       y       z     vdW  Elec       q    Type
REMARK                         _______ _______ _______ _____ _____    ______ ____
ROOT
ATOM      1  C   UNL     1      34.063  -9.893 -23.461  0.00  0.00    +0.086 C 
ATOM      2  C   UNL     1      33.726 -10.237 -24.925  0.00  0.00    +0.019 C 
ENDROOT
BRANCH   1   3
ATOM      3  C   UNL     1      33.588 -10.933 -22.504  0.00  0.00    -0.007 C 
ATOM      4  C   UNL     1      33.801 -13.134 -21.530  0.00  0.00    +0.003 C 
ATOM      5  C   UNL     1      34.245 -12.161 -22.426  0.00  0.00    -0.003 C 
ATOM      6  C   UNL     1      32.488 -10.678 -21.686  0.00  0.00    +0.034 C 
ATOM      7  C   UNL     1      32.699 -12.879 -20.713  0.00  0.00    +0.037 C 
ATOM      8  C   UNL     1      32.043 -11.651 -20.791  0.00  0.00    +0.138 C 
BRANCH   4   9
ATOM      9  C   UNL     1      34.482 -14.409 -21.449  0.00  0.00    +0.000 C 
ATOM     10  C   UNL     1      34.712 -14.999 -20.206  0.00  0.00    -0.000 C 
ATOM     11  C   UNL     1      34.909 -15.047 -22.614  0.00  0.00    -0.000 C 
ATOM     12  C   UNL     1      35.796 -16.865 -21.293  0.00  0.00    -0.022 C 
ATOM     13  C   UNL     1      35.369 -16.226 -20.127  0.00  0.00    -0.004 C 
ATOM     14  C   UNL     1      35.565 -16.274 -22.535  0.00  0.00    -0.004 C 
ATOM     15  C   UNL     1      36.498 -18.178 -21.209  0.00  0.00    +0.031 C 
ENDBRANCH   4   9
BRANCH   8  16
ATOM     16  O   UNL     1      30.968 -11.401 -19.994  0.00  0.00    -0.471 OA
ATOM     17  C   UNL     1      31.213 -10.697 -18.776  0.00  0.00    +0.252 C 
ENDBRANCH   8  16
ENDBRANCH   1   3
BRANCH   1  18
ATOM     18  C   UNL     1      33.540  -8.542 -23.132  0.00  0.00    -0.087 C 
ATOM     19  C   UNL     1      33.104  -7.459 -22.849  0.00  0.00    -0.076 C 
BRANCH  19  24
ATOM     20  N   UNL     1      32.088  -4.512 -20.835  0.00  0.00    -0.336 NA
ATOM     21  N   UNL     1      31.573  -4.084 -23.151  0.00  0.00    -0.317 NA
ATOM     22  N   UNL     1      32.053  -5.702 -24.807  0.00  0.00    -0.334 N 
ATOM     23  N   UNL     1      31.102  -2.488 -21.498  0.00  0.00    -0.283 N 
ATOM     24  C   UNL     1      32.585  -6.171 -22.507  0.00  0.00    +0.179 C 
ATOM     25  C   UNL     1      32.568  -5.717 -21.204  0.00  0.00    +0.120 C 
ATOM     26  C   UNL     1      32.069  -5.303 -23.448  0.00  0.00    +0.186 C 
ATOM     27  C   UNL     1      33.098  -6.561 -20.088  0.00  0.00    +0.064 C 
ATOM     28  C   UNL     1      31.613  -3.757 -21.845  0.00  0.00    +0.196 C 
ATOM     29  H   UNL     1      31.690  -5.097 -25.494  0.00  0.00    +0.144 HD
ATOM     30  H   UNL     1      32.406  -6.584 -25.067  0.00  0.00    +0.144 HD
ATOM     31  H   UNL     1      31.106  -2.197 -20.557  0.00  0.00    +0.156 HD
ATOM     32  H   UNL     1      30.742  -1.894 -22.195  0.00  0.00    +0.156 HD
ENDBRANCH  19  24
ENDBRANCH   1  18
TORSDOF 5
ENDMDL
MODEL 8
REMARK VINA RESULT:     -10.4      5.764      9.197
REMARK  Name = 44144378
REMARK  5 active torsions:
REMARK  status: ('A' for Active; 'I' for Inactive)
REMARK    1  A    between atoms: C_1  and  C_3
REMARK    2  A    between atoms: C_1  and  C_18
REMARK    3  A    between atoms: C_4  and  C_9
REMARK    4  A    between atoms: C_8  and  O_16
REMARK    5  A    between atoms: C_19  and  C_24
REMARK                            x       y       z     vdW  Elec       q    Type
REMARK                         _______ _______ _______ _____ _____    ______ ____
ROOT
ATOM      1  C   UNL     1      36.562 -18.543 -21.905  0.00  0.00    +0.086 C 
ATOM      2  C   UNL     1      37.579 -17.571 -21.276  0.00  0.00    +0.019 C 
ENDROOT
BRANCH   1   3
ATOM      3  C   UNL     1      35.594 -17.855 -22.807  0.00  0.00    -0.007 C 
ATOM      4  C   UNL     1      34.532 -15.827 -23.581  0.00  0.00    +0.003 C 
ATOM      5  C   UNL     1      35.437 -16.471 -22.736  0.00  0.00    -0.003 C 
ATOM      6  C   UNL     1      34.847 -18.595 -23.722  0.00  0.00    +0.034 C 
ATOM      7  C   UNL     1      33.784 -16.568 -24.496  0.00  0.00    +0.037 C 
ATOM      8  C   UNL     1      33.941 -17.952 -24.567  0.00  0.00    +0.138 C 
BRANCH   4   9
ATOM      9  C   UNL     1      34.370 -14.390 -23.507  0.00  0.00    +0.000 C 
ATOM     10  C   UNL     1      33.911 -13.683 -24.618  0.00  0.00    -0.000 C 
ATOM     11  C   UNL     1      34.671 -13.715 -22.325  0.00  0.00    -0.000 C 
ATOM     12  C   UNL     1      34.056 -11.622 -23.366  0.00  0.00    -0.022 C 
ATOM     13  C   UNL     1      33.754 -12.299 -24.548  0.00  0.00    -0.004 C 
ATOM     14  C   UNL     1      34.515 -12.330 -22.255  0.00  0.00    -0.004 C 
ATOM     15  C   UNL     1      33.889 -10.142 -23.290  0.00  0.00    +0.031 C 
ENDBRANCH   4   9
BRANCH   8  16
ATOM     16  O   UNL     1      33.211 -18.675 -25.459  0.00  0.00    -0.471 OA
ATOM     17  C   UNL     1      31.910 -18.185 -25.783  0.00  0.00    +0.252 C 
ENDBRANCH   8  16
ENDBRANCH   1   3
BRANCH   1  18
ATOM     18  C   UNL     1      35.885 -19.319 -20.835  0.00  0.00    -0.087 C 
ATOM     19  C   UNL     1      35.353 -19.963 -19.971  0.00  0.00    -0.076 C 
BRANCH  19  24
ATOM     20  N   UNL     1      34.902 -22.034 -16.925  0.00  0.00    -0.336 NA
ATOM     21  N   UNL     1      32.747 -21.674 -17.945  0.00  0.00    -0.317 NA
ATOM     22  N   UNL     1      32.554 -20.398 -19.927  0.00  0.00    -0.334 N 
ATOM     23  N   UNL     1      32.954 -22.939 -15.979  0.00  0.00    -0.283 N 
ATOM     24  C   UNL     1      34.726 -20.731 -18.942  0.00  0.00    +0.179 C 
ATOM     25  C   UNL     1      35.451 -21.301 -17.916  0.00  0.00    +0.120 C 
ATOM     26  C   UNL     1      33.364 -20.954 -18.905  0.00  0.00    +0.186 C 
ATOM     27  C   UNL     1      36.935 -21.136 -17.839  0.00  0.00    +0.064 C 
ATOM     28  C   UNL     1      33.565 -22.179 -17.001  0.00  0.00    +0.196 C 
ATOM     29  H   UNL     1      31.581 -20.545 -19.918  0.00  0.00    +0.144 HD
ATOM     30  H   UNL     1      32.964 -19.865 -20.645  0.00  0.00    +0.144 HD
ATOM     31  H   UNL     1      33.503 -23.331 -15.263  0.00  0.00    +0.156 HD
ATOM     32  H   UNL     1      31.979 -23.077 -15.985  0.00  0.00    +0.156 HD
ENDBRANCH  19  24
ENDBRANCH   1  18
TORSDOF 5
ENDMDL
MODEL 9
REMARK VINA RESULT:     -10.2      4.240      7.533
REMARK  Name = 44144378
REMARK  5 active torsions:
REMARK  status: ('A' for Active; 'I' for Inactive)
REMARK    1  A    between atoms: C_1  and  C_3
REMARK    2  A    between atoms: C_1  and  C_18
REMARK    3  A    between atoms: C_4  and  C_9
REMARK    4  A    between atoms: C_8  and  O_16
REMARK    5  A    between atoms: C_19  and  C_24
REMARK                            x       y       z     vdW  Elec       q    Type
REMARK                         _______ _______ _______ _____ _____    ______ ____
ROOT
ATOM      1  C   UNL     1      37.443 -21.581 -15.680  0.00  0.00    +0.086 C 
ATOM      2  C   UNL     1      38.693 -22.416 -16.022  0.00  0.00    +0.019 C 
ENDROOT
BRANCH   1   3
ATOM      3  C   UNL     1      36.465 -22.331 -14.841  0.00  0.00    -0.007 C 
ATOM      4  C   UNL     1      34.182 -22.894 -14.287  0.00  0.00    +0.003 C 
ATOM      5  C   UNL     1      35.097 -22.191 -15.072  0.00  0.00    -0.003 C 
ATOM      6  C   UNL     1      36.919 -23.175 -13.828  0.00  0.00    +0.034 C 
ATOM      7  C   UNL     1      34.636 -23.738 -13.273  0.00  0.00    +0.037 C 
ATOM      8  C   UNL     1      36.004 -23.878 -13.043  0.00  0.00    +0.138 C 
BRANCH   4   9
ATOM      9  C   UNL     1      32.761 -22.749 -14.526  0.00  0.00    +0.000 C 
ATOM     10  C   UNL     1      31.865 -22.803 -13.459  0.00  0.00    -0.000 C 
ATOM     11  C   UNL     1      32.290 -22.555 -15.825  0.00  0.00    -0.000 C 
ATOM     12  C   UNL     1      30.024 -22.470 -14.988  0.00  0.00    -0.022 C 
ATOM     13  C   UNL     1      30.497 -22.664 -13.689  0.00  0.00    -0.004 C 
ATOM     14  C   UNL     1      30.921 -22.415 -16.055  0.00  0.00    -0.004 C 
ATOM     15  C   UNL     1      28.561 -22.320 -15.234  0.00  0.00    +0.031 C 
ENDBRANCH   4   9
BRANCH   8  16
ATOM     16  O   UNL     1      36.448 -24.700 -12.053  0.00  0.00    -0.471 OA
ATOM     17  C   UNL     1      37.577 -25.521 -12.349  0.00  0.00    +0.252 C 
ENDBRANCH   8  16
ENDBRANCH   1   3
BRANCH   1  18
ATOM     18  C   UNL     1      36.833 -21.060 -16.930  0.00  0.00    -0.087 C 
ATOM     19  C   UNL     1      36.354 -20.619 -17.939  0.00  0.00    -0.076 C 
BRANCH  19  24
ATOM     20  N   UNL     1      33.887 -19.817 -20.594  0.00  0.00    -0.336 NA
ATOM     21  N   UNL     1      36.010 -18.841 -21.187  0.00  0.00    -0.317 NA
ATOM     22  N   UNL     1      37.888 -19.101 -19.774  0.00  0.00    -0.334 N 
ATOM     23  N   UNL     1      34.139 -18.592 -22.580  0.00  0.00    -0.283 N 
ATOM     24  C   UNL     1      35.787 -20.091 -19.141  0.00  0.00    +0.179 C 
ATOM     25  C   UNL     1      34.463 -20.294 -19.471  0.00  0.00    +0.120 C 
ATOM     26  C   UNL     1      36.521 -19.350 -20.046  0.00  0.00    +0.186 C 
ATOM     27  C   UNL     1      33.559 -21.081 -18.576  0.00  0.00    +0.064 C 
ATOM     28  C   UNL     1      34.707 -19.109 -21.395  0.00  0.00    +0.196 C 
ATOM     29  H   UNL     1      38.428 -18.574 -20.407  0.00  0.00    +0.144 HD
ATOM     30  H   UNL     1      38.300 -19.453 -18.952  0.00  0.00    +0.144 HD
ATOM     31  H   UNL     1      33.189 -18.757 -22.783  0.00  0.00    +0.156 HD
ATOM     32  H   UNL     1      34.692 -18.067 -23.202  0.00  0.00    +0.156 HD
ENDBRANCH  19  24
ENDBRANCH   1  18
TORSDOF 5
ENDMDL
