MODEL 1
REMARK VINA RESULT:     -11.3      0.000      0.000
REMARK  Name = 6450813
REMARK  4 active torsions:
REMARK  status: ('A' for Active; 'I' for Inactive)
REMARK    1  A    between atoms: C_4  and  C_10
REMARK    2  A    between atoms: C_6  and  C_22
REMARK    3  A    between atoms: C_12  and  N_17
REMARK    4  A    between atoms: C_22  and  C_24
REMARK                            x       y       z     vdW  Elec       q    Type
REMARK                         _______ _______ _______ _____ _____    ______ ____
ROOT
ATOM      1  N   UNL     1      35.089 -15.572 -22.028  0.00  0.00    -0.191 N 
ATOM      2  N   UNL     1      35.299 -16.286 -23.170  0.00  0.00    -0.179 NA
ATOM      3  N   UNL     1      35.275 -15.834 -19.638  0.00  0.00    -0.231 NA
ATOM      4  C   UNL     1      34.610 -14.256 -21.907  0.00  0.00    +0.143 C 
ATOM      5  C   UNL     1      35.410 -16.331 -20.899  0.00  0.00    +0.141 C 
ATOM      6  C   UNL     1      35.842 -17.555 -21.359  0.00  0.00    +0.161 C 
ATOM      7  C   UNL     1      34.461 -13.726 -20.682  0.00  0.00    +0.020 C 
ATOM      8  C   UNL     1      35.751 -17.467 -22.753  0.00  0.00    +0.106 C 
ATOM      9  C   UNL     1      34.829 -14.619 -19.554  0.00  0.00    +0.097 C 
ENDROOT
BRANCH   4  10
ATOM     10  C   UNL     1      34.280 -13.439 -23.089  0.00  0.00    +0.003 C 
ATOM     11  C   UNL     1      34.517 -12.063 -23.076  0.00  0.00    +0.013 C 
ATOM     12  C   UNL     1      34.205 -11.290 -24.193  0.00  0.00    +0.054 C 
ATOM     13  C   UNL     1      33.732 -14.040 -24.222  0.00  0.00    -0.002 C 
ATOM     14  C   UNL     1      33.656 -11.892 -25.326  0.00  0.00    +0.015 C 
ATOM     15  C   UNL     1      33.420 -13.267 -25.341  0.00  0.00    +0.001 C 
BRANCH  12  17
ATOM     16  O   UNL     1      32.627  -9.304 -22.799  0.00  0.00    -0.275 OA
ATOM     17  N   UNL     1      34.441  -9.915 -24.180  0.00  0.00    -0.257 N 
ATOM     18  C   UNL     1      35.640  -9.391 -24.903  0.00  0.00    +0.120 C 
ATOM     19  C   UNL     1      33.636  -8.986 -23.434  0.00  0.00    +0.230 C 
ATOM     20  C   UNL     1      34.071  -7.540 -23.389  0.00  0.00    +0.095 C 
ENDBRANCH  12  17
ENDBRANCH   4  10
BRANCH   6  22
ATOM     21  O   UNL     1      37.484 -18.864 -20.317  0.00  0.00    -0.290 OA
ATOM     22  C   UNL     1      36.277 -18.653 -20.550  0.00  0.00    +0.191 C 
BRANCH  22  24
ATOM     23  S   UNL     1      35.773 -20.793 -18.966  0.00  0.00    -0.084 S 
ATOM     24  C   UNL     1      35.247 -19.552 -19.979  0.00  0.00    +0.065 C 
ATOM     25  C   UNL     1      33.919 -19.490 -20.177  0.00  0.00    +0.010 C 
ATOM     26  C   UNL     1      33.265 -20.528 -19.455  0.00  0.00    +0.008 C 
ATOM     27  C   UNL     1      34.154 -21.311 -18.753  0.00  0.00    +0.036 C 
ENDBRANCH  22  24
ENDBRANCH   6  22
TORSDOF 4
ENDMDL
MODEL 2
REMARK VINA RESULT:     -11.1      3.170      8.757
REMARK  Name = 6450813
REMARK  4 active torsions:
REMARK  status: ('A' for Active; 'I' for Inactive)
REMARK    1  A    between atoms: C_4  and  C_10
REMARK    2  A    between atoms: C_6  and  C_22
REMARK    3  A    between atoms: C_12  and  N_17
REMARK    4  A    between atoms: C_22  and  C_24
REMARK                            x       y       z     vdW  Elec       q    Type
REMARK                         _______ _______ _______ _____ _____    ______ ____
ROOT
ATOM      1  N   UNL     1      34.965 -15.433 -21.923  0.00  0.00    -0.191 N 
ATOM      2  N   UNL     1      35.074 -14.934 -20.660  0.00  0.00    -0.179 NA
ATOM      3  N   UNL     1      34.347 -14.707 -24.138  0.00  0.00    -0.231 NA
ATOM      4  C   UNL     1      35.218 -16.745 -22.358  0.00  0.00    +0.143 C 
ATOM      5  C   UNL     1      34.537 -14.445 -22.815  0.00  0.00    +0.141 C 
ATOM      6  C   UNL     1      34.384 -13.292 -22.078  0.00  0.00    +0.161 C 
ATOM      7  C   UNL     1      35.042 -17.047 -23.656  0.00  0.00    +0.020 C 
ATOM      8  C   UNL     1      34.726 -13.653 -20.770  0.00  0.00    +0.106 C 
ATOM      9  C   UNL     1      34.585 -15.926 -24.514  0.00  0.00    +0.097 C 
ENDROOT
BRANCH   4  10
ATOM     10  C   UNL     1      35.682 -17.794 -21.432  0.00  0.00    +0.003 C 
ATOM     11  C   UNL     1      34.758 -18.623 -20.795  0.00  0.00    +0.013 C 
ATOM     12  C   UNL     1      35.197 -19.615 -19.920  0.00  0.00    +0.054 C 
ATOM     13  C   UNL     1      37.046 -17.959 -21.194  0.00  0.00    -0.002 C 
ATOM     14  C   UNL     1      36.562 -19.780 -19.681  0.00  0.00    +0.015 C 
ATOM     15  C   UNL     1      37.487 -18.952 -20.318  0.00  0.00    +0.001 C 
BRANCH  12  17
ATOM     16  O   UNL     1      35.802 -21.615 -17.916  0.00  0.00    -0.275 OA
ATOM     17  N   UNL     1      34.274 -20.444 -19.281  0.00  0.00    -0.257 N 
ATOM     18  C   UNL     1      32.824 -20.275 -19.602  0.00  0.00    +0.120 C 
ATOM     19  C   UNL     1      34.640 -21.392 -18.264  0.00  0.00    +0.230 C 
ATOM     20  C   UNL     1      33.535 -22.136 -17.551  0.00  0.00    +0.095 C 
ENDBRANCH  12  17
ENDBRANCH   4  10
BRANCH   6  22
ATOM     21  O   UNL     1      34.463 -11.514 -23.605  0.00  0.00    -0.290 OA
ATOM     22  C   UNL     1      33.960 -12.021 -22.583  0.00  0.00    +0.191 C 
BRANCH  22  24
ATOM     23  S   UNL     1      32.700  -9.657 -22.172  0.00  0.00    -0.084 S 
ATOM     24  C   UNL     1      32.887 -11.302 -21.855  0.00  0.00    +0.065 C 
ATOM     25  C   UNL     1      32.031 -11.820 -20.958  0.00  0.00    +0.010 C 
ATOM     26  C   UNL     1      31.147 -10.810 -20.482  0.00  0.00    +0.008 C 
ATOM     27  C   UNL     1      31.400  -9.586 -21.059  0.00  0.00    +0.036 C 
ENDBRANCH  22  24
ENDBRANCH   6  22
TORSDOF 4
ENDMDL
MODEL 3
REMARK VINA RESULT:     -11.0      1.612      2.666
REMARK  Name = 6450813
REMARK  4 active torsions:
REMARK  status: ('A' for Active; 'I' for Inactive)
REMARK    1  A    between atoms: C_4  and  C_10
REMARK    2  A    between atoms: C_6  and  C_22
REMARK    3  A    between atoms: C_12  and  N_17
REMARK    4  A    between atoms: C_22  and  C_24
REMARK                            x       y       z     vdW  Elec       q    Type
REMARK                         _______ _______ _______ _____ _____    ______ ____
ROOT
ATOM      1  N   UNL     1      34.508 -14.550 -21.887  0.00  0.00    -0.191 N 
ATOM      2  N   UNL     1      34.613 -14.421 -20.534  0.00  0.00    -0.179 NA
ATOM      3  N   UNL     1      35.091 -16.106 -23.634  0.00  0.00    -0.231 NA
ATOM      4  C   UNL     1      33.939 -13.645 -22.799  0.00  0.00    +0.143 C 
ATOM      5  C   UNL     1      35.070 -15.755 -22.318  0.00  0.00    +0.141 C 
ATOM      6  C   UNL     1      35.532 -16.398 -21.192  0.00  0.00    +0.161 C 
ATOM      7  C   UNL     1      33.939 -13.952 -24.108  0.00  0.00    +0.020 C 
ATOM      8  C   UNL     1      35.225 -15.535 -20.134  0.00  0.00    +0.106 C 
ATOM      9  C   UNL     1      34.562 -15.253 -24.456  0.00  0.00    +0.097 C 
ENDROOT
BRANCH   4  10
ATOM     10  C   UNL     1      33.331 -12.377 -22.358  0.00  0.00    +0.003 C 
ATOM     11  C   UNL     1      33.681 -11.179 -22.982  0.00  0.00    +0.013 C 
ATOM     12  C   UNL     1      33.106  -9.980 -22.566  0.00  0.00    +0.054 C 
ATOM     13  C   UNL     1      32.404 -12.373 -21.316  0.00  0.00    -0.002 C 
ATOM     14  C   UNL     1      32.179  -9.976 -21.523  0.00  0.00    +0.015 C 
ATOM     15  C   UNL     1      31.828 -11.174 -20.897  0.00  0.00    +0.001 C 
BRANCH  12  17
ATOM     16  O   UNL     1      35.793  -9.110 -23.199  0.00  0.00    -0.275 OA
ATOM     17  N   UNL     1      33.456  -8.781 -23.189  0.00  0.00    -0.257 N 
ATOM     18  C   UNL     1      32.363  -7.861 -23.628  0.00  0.00    +0.120 C 
ATOM     19  C   UNL     1      34.813  -8.429 -23.509  0.00  0.00    +0.230 C 
ATOM     20  C   UNL     1      35.054  -7.167 -24.305  0.00  0.00    +0.095 C 
ENDBRANCH  12  17
ENDBRANCH   4  10
BRANCH   6  22
ATOM     21  O   UNL     1      37.290 -17.864 -21.696  0.00  0.00    -0.290 OA
ATOM     22  C   UNL     1      36.182 -17.673 -21.157  0.00  0.00    +0.191 C 
BRANCH  22  24
ATOM     23  S   UNL     1      36.470 -19.861 -19.584  0.00  0.00    -0.084 S 
ATOM     24  C   UNL     1      35.504 -18.785 -20.451  0.00  0.00    +0.065 C 
ATOM     25  C   UNL     1      34.184 -19.040 -20.420  0.00  0.00    +0.010 C 
ATOM     26  C   UNL     1      33.924 -20.198 -19.634  0.00  0.00    +0.008 C 
ATOM     27  C   UNL     1      35.079 -20.745 -19.119  0.00  0.00    +0.036 C 
ENDBRANCH  22  24
ENDBRANCH   6  22
TORSDOF 4
ENDMDL
MODEL 4
REMARK VINA RESULT:     -10.9      6.579     12.558
REMARK  Name = 6450813
REMARK  4 active torsions:
REMARK  status: ('A' for Active; 'I' for Inactive)
REMARK    1  A    between atoms: C_4  and  C_10
REMARK    2  A    between atoms: C_6  and  C_22
REMARK    3  A    between atoms: C_12  and  N_17
REMARK    4  A    between atoms: C_22  and  C_24
REMARK                            x       y       z     vdW  Elec       q    Type
REMARK                         _______ _______ _______ _____ _____    ______ ____
ROOT
ATOM      1  N   UNL     1      34.393 -22.310 -16.269  0.00  0.00    -0.191 N 
ATOM      2  N   UNL     1      35.696 -22.071 -16.587  0.00  0.00    -0.179 NA
ATOM      3  N   UNL     1      32.185 -21.936 -17.164  0.00  0.00    -0.231 NA
ATOM      4  C   UNL     1      33.886 -22.942 -15.121  0.00  0.00    +0.143 C 
ATOM      5  C   UNL     1      33.539 -21.821 -17.262  0.00  0.00    +0.141 C 
ATOM      6  C   UNL     1      34.343 -21.269 -18.234  0.00  0.00    +0.161 C 
ATOM      7  C   UNL     1      32.556 -23.076 -14.983  0.00  0.00    +0.020 C 
ATOM      8  C   UNL     1      35.649 -21.450 -17.765  0.00  0.00    +0.106 C 
ATOM      9  C   UNL     1      31.743 -22.522 -16.094  0.00  0.00    +0.097 C 
ENDROOT
BRANCH   4  10
ATOM     10  C   UNL     1      34.775 -23.474 -14.071  0.00  0.00    +0.003 C 
ATOM     11  C   UNL     1      35.994 -24.057 -14.418  0.00  0.00    +0.013 C 
ATOM     12  C   UNL     1      36.835 -24.560 -13.425  0.00  0.00    +0.054 C 
ATOM     13  C   UNL     1      34.397 -23.393 -12.731  0.00  0.00    -0.002 C 
ATOM     14  C   UNL     1      36.457 -24.479 -12.085  0.00  0.00    +0.015 C 
ATOM     15  C   UNL     1      35.238 -23.896 -11.737  0.00  0.00    +0.001 C 
BRANCH  12  17
ATOM     16  O   UNL     1      39.458 -23.627 -12.632  0.00  0.00    -0.275 OA
ATOM     17  N   UNL     1      38.054 -25.144 -13.771  0.00  0.00    -0.257 N 
ATOM     18  C   UNL     1      38.037 -26.399 -14.584  0.00  0.00    +0.120 C 
ATOM     19  C   UNL     1      39.322 -24.650 -13.310  0.00  0.00    +0.230 C 
ATOM     20  C   UNL     1      40.563 -25.447 -13.640  0.00  0.00    +0.095 C 
ENDBRANCH  12  17
ENDBRANCH   4  10
BRANCH   6  22
ATOM     21  O   UNL     1      32.779 -20.896 -19.940  0.00  0.00    -0.290 OA
ATOM     22  C   UNL     1      33.896 -20.649 -19.444  0.00  0.00    +0.191 C 
BRANCH  22  24
ATOM     23  S   UNL     1      34.180 -18.801 -21.407  0.00  0.00    -0.084 S 
ATOM     24  C   UNL     1      34.802 -19.683 -20.111  0.00  0.00    +0.065 C 
ATOM     25  C   UNL     1      36.082 -19.424 -19.796  0.00  0.00    +0.010 C 
ATOM     26  C   UNL     1      36.613 -18.433 -20.669  0.00  0.00    +0.008 C 
ATOM     27  C   UNL     1      35.686 -18.007 -21.594  0.00  0.00    +0.036 C 
ENDBRANCH  22  24
ENDBRANCH   6  22
TORSDOF 4
ENDMDL
MODEL 5
REMARK VINA RESULT:     -10.8      2.438      3.576
REMARK  Name = 6450813
REMARK  4 active torsions:
REMARK  status: ('A' for Active; 'I' for Inactive)
REMARK    1  A    between atoms: C_4  and  C_10
REMARK    2  A    between atoms: C_6  and  C_22
REMARK    3  A    between atoms: C_12  and  N_17
REMARK    4  A    between atoms: C_22  and  C_24
REMARK                            x       y       z     vdW  Elec       q    Type
REMARK                         _______ _______ _______ _____ _____    ______ ____
ROOT
ATOM      1  N   UNL     1      34.127 -14.277 -21.213  0.00  0.00    -0.191 N 
ATOM      2  N   UNL     1      34.335 -14.505 -19.886  0.00  0.00    -0.179 NA
ATOM      3  N   UNL     1      34.673 -15.249 -23.351  0.00  0.00    -0.231 NA
ATOM      4  C   UNL     1      33.420 -13.218 -21.807  0.00  0.00    +0.143 C 
ATOM      5  C   UNL     1      34.737 -15.265 -21.990  0.00  0.00    +0.141 C 
ATOM      6  C   UNL     1      35.336 -16.141 -21.113  0.00  0.00    +0.161 C 
ATOM      7  C   UNL     1      33.333 -13.162 -23.147  0.00  0.00    +0.020 C 
ATOM      8  C   UNL     1      35.057 -15.624 -19.843  0.00  0.00    +0.106 C 
ATOM      9  C   UNL     1      34.017 -14.260 -23.875  0.00  0.00    +0.097 C 
ENDROOT
BRANCH   4  10
ATOM     10  C   UNL     1      32.760 -12.175 -21.000  0.00  0.00    +0.003 C 
ATOM     11  C   UNL     1      32.771 -10.847 -21.429  0.00  0.00    +0.013 C 
ATOM     12  C   UNL     1      32.147  -9.861 -20.666  0.00  0.00    +0.054 C 
ATOM     13  C   UNL     1      32.124 -12.515 -19.806  0.00  0.00    -0.002 C 
ATOM     14  C   UNL     1      31.511 -10.202 -19.472  0.00  0.00    +0.015 C 
ATOM     15  C   UNL     1      31.500 -11.530 -19.042  0.00  0.00    +0.001 C 
BRANCH  12  17
ATOM     16  O   UNL     1      33.184  -7.601 -19.184  0.00  0.00    -0.275 OA
ATOM     17  N   UNL     1      32.159  -8.533 -21.094  0.00  0.00    -0.257 N 
ATOM     18  C   UNL     1      31.640  -8.221 -22.461  0.00  0.00    +0.120 C 
ATOM     19  C   UNL     1      32.726  -7.462 -20.320  0.00  0.00    +0.230 C 
ATOM     20  C   UNL     1      32.800  -6.090 -20.948  0.00  0.00    +0.095 C 
ENDBRANCH  12  17
ENDBRANCH   4  10
BRANCH   6  22
ATOM     21  O   UNL     1      36.814 -17.349 -22.472  0.00  0.00    -0.290 OA
ATOM     22  C   UNL     1      36.078 -17.313 -21.467  0.00  0.00    +0.191 C 
BRANCH  22  24
ATOM     23  S   UNL     1      34.437 -19.230 -20.478  0.00  0.00    -0.084 S 
ATOM     24  C   UNL     1      35.956 -18.507 -20.598  0.00  0.00    +0.065 C 
ATOM     25  C   UNL     1      36.933 -19.091 -19.883  0.00  0.00    +0.010 C 
ATOM     26  C   UNL     1      36.420 -20.215 -19.176  0.00  0.00    +0.008 C 
ATOM     27  C   UNL     1      35.076 -20.406 -19.409  0.00  0.00    +0.036 C 
ENDBRANCH  22  24
ENDBRANCH   6  22
TORSDOF 4
ENDMDL
MODEL 6
REMARK VINA RESULT:     -10.8     10.614     12.633
REMARK  Name = 6450813
REMARK  4 active torsions:
REMARK  status: ('A' for Active; 'I' for Inactive)
REMARK    1  A    between atoms: C_4  and  C_10
REMARK    2  A    between atoms: C_6  and  C_22
REMARK    3  A    between atoms: C_12  and  N_17
REMARK    4  A    between atoms: C_22  and  C_24
REMARK                            x       y       z     vdW  Elec       q    Type
REMARK                         _______ _______ _______ _____ _____    ______ ____
ROOT
ATOM      1  N   UNL     1      33.953 -23.211 -13.924  0.00  0.00    -0.191 N 
ATOM      2  N   UNL     1      33.763 -23.683 -12.660  0.00  0.00    -0.179 NA
ATOM      3  N   UNL     1      35.720 -22.332 -15.310  0.00  0.00    -0.231 NA
ATOM      4  C   UNL     1      32.999 -23.071 -14.947  0.00  0.00    +0.143 C 
ATOM      5  C   UNL     1      35.286 -22.841 -14.123  0.00  0.00    +0.141 C 
ATOM      6  C   UNL     1      35.946 -23.101 -12.943  0.00  0.00    +0.161 C 
ATOM      7  C   UNL     1      33.384 -22.572 -16.134  0.00  0.00    +0.020 C 
ATOM      8  C   UNL     1      34.964 -23.613 -12.088  0.00  0.00    +0.106 C 
ATOM      9  C   UNL     1      34.820 -22.211 -16.237  0.00  0.00    +0.097 C 
ENDROOT
BRANCH   4  10
ATOM     10  C   UNL     1      31.593 -23.470 -14.756  0.00  0.00    +0.003 C 
ATOM     11  C   UNL     1      30.564 -22.613 -15.151  0.00  0.00    +0.013 C 
ATOM     12  C   UNL     1      29.234 -22.990 -14.971  0.00  0.00    +0.054 C 
ATOM     13  C   UNL     1      31.289 -24.703 -14.182  0.00  0.00    -0.002 C 
ATOM     14  C   UNL     1      28.931 -24.224 -14.396  0.00  0.00    +0.015 C 
ATOM     15  C   UNL     1      29.958 -25.081 -14.001  0.00  0.00    +0.001 C 
BRANCH  12  17
ATOM     16  O   UNL     1      28.174 -22.717 -17.651  0.00  0.00    -0.275 OA
ATOM     17  N   UNL     1      28.205 -22.133 -15.365  0.00  0.00    -0.257 N 
ATOM     18  C   UNL     1      27.532 -21.302 -14.320  0.00  0.00    +0.120 C 
ATOM     19  C   UNL     1      27.700 -22.076 -16.710  0.00  0.00    +0.230 C 
ATOM     20  C   UNL     1      26.494 -21.208 -16.983  0.00  0.00    +0.095 C 
ENDBRANCH  12  17
ENDBRANCH   4  10
BRANCH   6  22
ATOM     21  O   UNL     1      37.747 -21.849 -12.115  0.00  0.00    -0.290 OA
ATOM     22  C   UNL     1      37.337 -22.877 -12.689  0.00  0.00    +0.191 C 
BRANCH  22  24
ATOM     23  S   UNL     1      37.732 -25.127 -14.148  0.00  0.00    -0.084 S 
ATOM     24  C   UNL     1      38.303 -23.913 -13.127  0.00  0.00    +0.065 C 
ATOM     25  C   UNL     1      39.604 -23.997 -12.799  0.00  0.00    +0.010 C 
ATOM     26  C   UNL     1      40.195 -25.134 -13.419  0.00  0.00    +0.008 C 
ATOM     27  C   UNL     1      39.290 -25.838 -14.182  0.00  0.00    +0.036 C 
ENDBRANCH  22  24
ENDBRANCH   6  22
TORSDOF 4
ENDMDL
MODEL 7
REMARK VINA RESULT:     -10.7      4.272      7.450
REMARK  Name = 6450813
REMARK  4 active torsions:
REMARK  status: ('A' for Active; 'I' for Inactive)
REMARK    1  A    between atoms: C_4  and  C_10
REMARK    2  A    between atoms: C_6  and  C_22
REMARK    3  A    between atoms: C_12  and  N_17
REMARK    4  A    between atoms: C_22  and  C_24
REMARK                            x       y       z     vdW  Elec       q    Type
REMARK                         _______ _______ _______ _____ _____    ______ ____
ROOT
ATOM      1  N   UNL     1      35.830 -20.893 -17.941  0.00  0.00    -0.191 N 
ATOM      2  N   UNL     1      37.067 -20.546 -17.486  0.00  0.00    -0.179 NA
ATOM      3  N   UNL     1      33.957 -22.271 -17.301  0.00  0.00    -0.231 NA
ATOM      4  C   UNL     1      35.196 -20.478 -19.125  0.00  0.00    +0.143 C 
ATOM      5  C   UNL     1      35.203 -21.776 -17.057  0.00  0.00    +0.141 C 
ATOM      6  C   UNL     1      36.080 -21.976 -16.015  0.00  0.00    +0.161 C 
ATOM      7  C   UNL     1      33.967 -20.942 -19.404  0.00  0.00    +0.020 C 
ATOM      8  C   UNL     1      37.200 -21.200 -16.333  0.00  0.00    +0.106 C 
ATOM      9  C   UNL     1      33.396 -21.874 -18.400  0.00  0.00    +0.097 C 
ENDROOT
BRANCH   4  10
ATOM     10  C   UNL     1      35.839 -19.536 -20.060  0.00  0.00    +0.003 C 
ATOM     11  C   UNL     1      35.088 -18.931 -21.069  0.00  0.00    +0.013 C 
ATOM     12  C   UNL     1      35.696 -18.040 -21.953  0.00  0.00    +0.054 C 
ATOM     13  C   UNL     1      37.198 -19.249 -19.936  0.00  0.00    -0.002 C 
ATOM     14  C   UNL     1      37.055 -17.754 -21.829  0.00  0.00    +0.015 C 
ATOM     15  C   UNL     1      37.807 -18.358 -20.821  0.00  0.00    +0.001 C 
BRANCH  12  17
ATOM     16  O   UNL     1      35.593 -15.206 -22.535  0.00  0.00    -0.275 OA
ATOM     17  N   UNL     1      34.946 -17.435 -22.962  0.00  0.00    -0.257 N 
ATOM     18  C   UNL     1      34.149 -18.308 -23.877  0.00  0.00    +0.120 C 
ATOM     19  C   UNL     1      34.971 -16.021 -23.221  0.00  0.00    +0.230 C 
ATOM     20  C   UNL     1      34.222 -15.503 -24.427  0.00  0.00    +0.095 C 
ENDBRANCH  12  17
ENDBRANCH   4  10
BRANCH   6  22
ATOM     21  O   UNL     1      34.829 -22.709 -14.173  0.00  0.00    -0.290 OA
ATOM     22  C   UNL     1      35.855 -22.810 -14.873  0.00  0.00    +0.191 C 
BRANCH  22  24
ATOM     23  S   UNL     1      36.440 -25.445 -14.629  0.00  0.00    -0.084 S 
ATOM     24  C   UNL     1      36.884 -23.821 -14.533  0.00  0.00    +0.065 C 
ATOM     25  C   UNL     1      38.151 -23.590 -14.150  0.00  0.00    +0.010 C 
ATOM     26  C   UNL     1      38.826 -24.821 -13.913  0.00  0.00    +0.008 C 
ATOM     27  C   UNL     1      38.013 -25.909 -14.135  0.00  0.00    +0.036 C 
ENDBRANCH  22  24
ENDBRANCH   6  22
TORSDOF 4
ENDMDL
MODEL 8
REMARK VINA RESULT:     -10.4      5.196      8.900
REMARK  Name = 6450813
REMARK  4 active torsions:
REMARK  status: ('A' for Active; 'I' for Inactive)
REMARK    1  A    between atoms: C_4  and  C_10
REMARK    2  A    between atoms: C_6  and  C_22
REMARK    3  A    between atoms: C_12  and  N_17
REMARK    4  A    between atoms: C_22  and  C_24
REMARK                            x       y       z     vdW  Elec       q    Type
REMARK                         _______ _______ _______ _____ _____    ______ ____
ROOT
ATOM      1  N   UNL     1      35.283 -22.022 -16.337  0.00  0.00    -0.191 N 
ATOM      2  N   UNL     1      34.007 -22.442 -16.110  0.00  0.00    -0.179 NA
ATOM      3  N   UNL     1      37.475 -22.187 -15.344  0.00  0.00    -0.231 NA
ATOM      4  C   UNL     1      35.756 -21.225 -17.393  0.00  0.00    +0.143 C 
ATOM      5  C   UNL     1      36.145 -22.485 -15.339  0.00  0.00    +0.141 C 
ATOM      6  C   UNL     1      35.377 -23.225 -14.468  0.00  0.00    +0.161 C 
ATOM      7  C   UNL     1      37.060 -20.907 -17.437  0.00  0.00    +0.020 C 
ATOM      8  C   UNL     1      34.081 -23.161 -14.991  0.00  0.00    +0.106 C 
ATOM      9  C   UNL     1      37.885 -21.449 -16.329  0.00  0.00    +0.097 C 
ENDROOT
BRANCH   4  10
ATOM     10  C   UNL     1      34.861 -20.740 -18.460  0.00  0.00    +0.003 C 
ATOM     11  C   UNL     1      35.334 -19.835 -19.411  0.00  0.00    +0.013 C 
ATOM     12  C   UNL     1      34.488 -19.377 -20.420  0.00  0.00    +0.054 C 
ATOM     13  C   UNL     1      33.541 -21.187 -18.520  0.00  0.00    -0.002 C 
ATOM     14  C   UNL     1      33.168 -19.824 -20.479  0.00  0.00    +0.015 C 
ATOM     15  C   UNL     1      32.694 -20.729 -19.529  0.00  0.00    +0.001 C 
BRANCH  12  17
ATOM     16  O   UNL     1      35.446 -16.697 -19.893  0.00  0.00    -0.275 OA
ATOM     17  N   UNL     1      34.959 -18.471 -21.371  0.00  0.00    -0.257 N 
ATOM     18  C   UNL     1      35.036 -18.911 -22.798  0.00  0.00    +0.120 C 
ATOM     19  C   UNL     1      35.457 -17.165 -21.035  0.00  0.00    +0.230 C 
ATOM     20  C   UNL     1      36.066 -16.327 -22.135  0.00  0.00    +0.095 C 
ENDBRANCH  12  17
ENDBRANCH   4  10
BRANCH   6  22
ATOM     21  O   UNL     1      35.154 -23.971 -12.257  0.00  0.00    -0.290 OA
ATOM     22  C   UNL     1      35.844 -23.894 -13.292  0.00  0.00    +0.191 C 
BRANCH  22  24
ATOM     23  S   UNL     1      37.418 -25.826 -14.358  0.00  0.00    -0.084 S 
ATOM     24  C   UNL     1      37.192 -24.511 -13.328  0.00  0.00    +0.065 C 
ATOM     25  C   UNL     1      38.273 -24.136 -12.623  0.00  0.00    +0.010 C 
ATOM     26  C   UNL     1      39.379 -24.977 -12.934  0.00  0.00    +0.008 C 
ATOM     27  C   UNL     1      39.054 -25.939 -13.864  0.00  0.00    +0.036 C 
ENDBRANCH  22  24
ENDBRANCH   6  22
TORSDOF 4
ENDMDL
MODEL 9
REMARK VINA RESULT:     -10.3      3.430      5.865
REMARK  Name = 6450813
REMARK  4 active torsions:
REMARK  status: ('A' for Active; 'I' for Inactive)
REMARK    1  A    between atoms: C_4  and  C_10
REMARK    2  A    between atoms: C_6  and  C_22
REMARK    3  A    between atoms: C_12  and  N_17
REMARK    4  A    between atoms: C_22  and  C_24
REMARK                            x       y       z     vdW  Elec       q    Type
REMARK                         _______ _______ _______ _____ _____    ______ ____
ROOT
ATOM      1  N   UNL     1      34.512 -20.266 -19.318  0.00  0.00    -0.191 N 
ATOM      2  N   UNL     1      33.171 -20.164 -19.537  0.00  0.00    -0.179 NA
ATOM      3  N   UNL     1      36.055 -21.440 -17.884  0.00  0.00    -0.231 NA
ATOM      4  C   UNL     1      35.550 -19.584 -19.976  0.00  0.00    +0.143 C 
ATOM      5  C   UNL     1      34.782 -21.175 -18.291  0.00  0.00    +0.141 C 
ATOM      6  C   UNL     1      33.565 -21.659 -17.866  0.00  0.00    +0.161 C 
ATOM      7  C   UNL     1      36.821 -19.815 -19.606  0.00  0.00    +0.020 C 
ATOM      8  C   UNL     1      32.620 -21.005 -18.663  0.00  0.00    +0.106 C 
ATOM      9  C   UNL     1      36.994 -20.796 -18.506  0.00  0.00    +0.097 C 
ENDROOT
BRANCH   4  10
ATOM     10  C   UNL     1      35.281 -18.633 -21.070  0.00  0.00    +0.003 C 
ATOM     11  C   UNL     1      35.214 -17.264 -20.806  0.00  0.00    +0.013 C 
ATOM     12  C   UNL     1      34.961 -16.364 -21.840  0.00  0.00    +0.054 C 
ATOM     13  C   UNL     1      35.096 -19.100 -22.371  0.00  0.00    -0.002 C 
ATOM     14  C   UNL     1      34.775 -16.832 -23.141  0.00  0.00    +0.015 C 
ATOM     15  C   UNL     1      34.842 -18.201 -23.407  0.00  0.00    +0.001 C 
BRANCH  12  17
ATOM     16  O   UNL     1      34.543 -14.270 -23.795  0.00  0.00    -0.275 OA
ATOM     17  N   UNL     1      34.892 -14.996 -21.576  0.00  0.00    -0.257 N 
ATOM     18  C   UNL     1      34.991 -14.538 -20.156  0.00  0.00    +0.120 C 
ATOM     19  C   UNL     1      34.644 -14.010 -22.593  0.00  0.00    +0.230 C 
ATOM     20  C   UNL     1      34.457 -12.573 -22.164  0.00  0.00    +0.095 C 
ENDBRANCH  12  17
ENDBRANCH   4  10
BRANCH   6  22
ATOM     21  O   UNL     1      34.163 -23.550 -16.616  0.00  0.00    -0.290 OA
ATOM     22  C   UNL     1      33.359 -22.621 -16.826  0.00  0.00    +0.191 C 
BRANCH  22  24
ATOM     23  S   UNL     1      32.346 -22.613 -14.312  0.00  0.00    -0.084 S 
ATOM     24  C   UNL     1      32.147 -22.488 -15.981  0.00  0.00    +0.065 C 
ATOM     25  C   UNL     1      30.888 -22.275 -16.400  0.00  0.00    +0.010 C 
ATOM     26  C   UNL     1      30.004 -22.207 -15.286  0.00  0.00    +0.008 C 
ATOM     27  C   UNL     1      30.665 -22.374 -14.089  0.00  0.00    +0.036 C 
ENDBRANCH  22  24
ENDBRANCH   6  22
TORSDOF 4
ENDMDL
