MODEL 1
REMARK VINA RESULT:     -11.6      0.000      0.000
REMARK  Name = 158376
REMARK  11 active torsions:
REMARK  status: ('A' for Active; 'I' for Inactive)
REMARK    1  A    between atoms: C_1  and  N_22
REMARK    2  A    between atoms: C_2  and  C_9
REMARK    3  A    between atoms: N_8  and  CA_11
REMARK    4  A    between atoms: CA_11  and  C_13
REMARK    5  A    between atoms: CA_11  and  CB_16
REMARK    6  A    between atoms: C_13  and  O_14
REMARK    7  A    between atoms: CB_16  and  CG_17
REMARK    8  A    between atoms: CG_17  and  CD_19
REMARK    9  A    between atoms: CD_19  and  OE1_20
REMARK   10  A    between atoms: N_22  and  C_24
REMARK   11  A    between atoms: C_24  and  C_29
REMARK                            x       y       z     vdW  Elec       q    Type
REMARK                         _______ _______ _______ _____ _____    ______ ____
ROOT
ATOM      1  C   UNL     1      35.053 -20.461 -19.053  0.00  0.00    +0.048 C 
ATOM      2  C   UNL     1      36.104 -21.649 -16.758  0.00  0.00    +0.053 C 
ATOM      3  C   UNL     1      36.398 -20.279 -18.727  0.00  0.00    +0.015 C 
ATOM      4  C   UNL     1      34.235 -21.236 -18.232  0.00  0.00    +0.015 C 
ATOM      5  C   UNL     1      36.923 -20.874 -17.580  0.00  0.00    +0.006 C 
ATOM      6  C   UNL     1      34.761 -21.829 -17.084  0.00  0.00    +0.006 C 
ENDROOT
BRANCH   2   9
ATOM      7  O   UNL     1      37.710 -21.847 -15.061  0.00  0.00    -0.270 OA
ATOM      8  N   UNL     1      35.926 -23.328 -15.001  0.00  0.00    -0.293 N 
ATOM      9  C   ACE A   0      36.664 -22.282 -15.536  0.00  0.00    +0.246 C 
ATOM     10  H   UNL     1      35.098 -23.606 -15.456  0.00  0.00    +0.150 HD
BRANCH   8  11
ATOM     11  CA  UNL     1      36.325 -24.026 -13.805  0.00  0.00    +0.172 C 
BRANCH  11  13
ATOM     12  OXT UNL     1      36.386 -25.957 -15.289  0.00  0.00    -0.248 OA
ATOM     13  C   UNL     1      36.575 -25.473 -14.180  0.00  0.00    +0.332 C 
BRANCH  13  14
ATOM     14  O   UNL     1      37.081 -26.186 -13.140  0.00  0.00    -0.479 OA
ATOM     15  H   UNL     1      37.003 -25.859 -12.266  0.00  0.00    +0.295 HD
ENDBRANCH  13  14
ENDBRANCH  11  13
BRANCH  11  16
ATOM     16  CB  UNL     1      35.326 -23.849 -12.654  0.00  0.00    +0.043 C 
BRANCH  16  17
ATOM     17  CG  UNL     1      35.813 -23.001 -11.473  0.00  0.00    +0.112 C 
BRANCH  17  19
ATOM     18  OE2 UNL     1      37.634 -24.309 -10.518  0.00  0.00    -0.250 OA
ATOM     19  CD  UNL     1      36.528 -23.798 -10.404  0.00  0.00    +0.314 C 
BRANCH  19  20
ATOM     20  OE1 UNL     1      35.771 -23.921  -9.281  0.00  0.00    -0.480 OA
ATOM     21  HE1 UNL     1      35.617 -23.175  -8.737  0.00  0.00    +0.295 HD
ENDBRANCH  19  20
ENDBRANCH  17  19
ENDBRANCH  16  17
ENDBRANCH  11  16
ENDBRANCH   8  11
ENDBRANCH   2   9
BRANCH   1  22
ATOM     22  N   UNL     1      34.522 -19.862 -20.214  0.00  0.00    -0.302 N 
ATOM     23  C   UNL     1      33.089 -19.729 -20.381  0.00  0.00    +0.112 C 
BRANCH  22  24
ATOM     24  C   UNL     1      35.404 -19.356 -21.248  0.00  0.00    +0.118 C 
BRANCH  24  29
ATOM     25  O   UNL     1      35.393 -15.660 -21.198  0.00  0.00    -0.427 OA
ATOM     26  N   UNL     1      34.720 -14.902 -23.360  0.00  0.00    -0.294 NA
ATOM     27  N   UNL     1      34.248 -16.703 -24.931  0.00  0.00    -0.317 NA
ATOM     28  N   UNL     1      34.040 -14.456 -25.554  0.00  0.00    -0.283 N 
ATOM     29  C   UNL     1      35.310 -17.887 -21.520  0.00  0.00    +0.031 C 
ATOM     30  C   UNL     1      34.931 -17.252 -22.727  0.00  0.00    +0.180 C 
ATOM     31  C   UNL     1      34.998 -15.883 -22.485  0.00  0.00    +0.281 C 
ATOM     32  C   UNL     1      35.578 -16.877 -20.624  0.00  0.00    +0.176 C 
ATOM     33  C   UNL     1      34.540 -17.645 -24.006  0.00  0.00    +0.181 C 
ATOM     34  C   UNL     1      34.355 -15.408 -24.556  0.00  0.00    +0.200 C 
ATOM     35  H   UNL     1      34.097 -13.494 -25.351  0.00  0.00    +0.156 HD
ATOM     36  H   UNL     1      33.766 -14.755 -26.450  0.00  0.00    +0.156 HD
ATOM     37  N   UNL     1      34.443 -19.006 -24.347  0.00  0.00    -0.335 N 
ATOM     38  H   UNL     1      34.165 -19.268 -25.254  0.00  0.00    +0.144 HD
ATOM     39  H   UNL     1      34.653 -19.698 -23.679  0.00  0.00    +0.144 HD
ENDBRANCH  24  29
ENDBRANCH  22  24
ENDBRANCH   1  22
TORSDOF 11
ENDMDL
MODEL 2
REMARK VINA RESULT:     -11.3      3.399      4.169
REMARK  Name = 158376
REMARK  11 active torsions:
REMARK  status: ('A' for Active; 'I' for Inactive)
REMARK    1  A    between atoms: C_1  and  N_22
REMARK    2  A    between atoms: C_2  and  C_9
REMARK    3  A    between atoms: N_8  and  CA_11
REMARK    4  A    between atoms: CA_11  and  C_13
REMARK    5  A    between atoms: CA_11  and  CB_16
REMARK    6  A    between atoms: C_13  and  O_14
REMARK    7  A    between atoms: CB_16  and  CG_17
REMARK    8  A    between atoms: CG_17  and  CD_19
REMARK    9  A    between atoms: CD_19  and  OE1_20
REMARK   10  A    between atoms: N_22  and  C_24
REMARK   11  A    between atoms: C_24  and  C_29
REMARK                            x       y       z     vdW  Elec       q    Type
REMARK                         _______ _______ _______ _____ _____    ______ ____
ROOT
ATOM      1  C   UNL     1      35.109 -20.080 -19.590  0.00  0.00    +0.048 C 
ATOM      2  C   UNL     1      33.667 -21.591 -17.739  0.00  0.00    +0.053 C 
ATOM      3  C   UNL     1      35.784 -20.840 -18.633  0.00  0.00    +0.015 C 
ATOM      4  C   UNL     1      33.715 -20.076 -19.622  0.00  0.00    +0.015 C 
ATOM      5  C   UNL     1      35.062 -21.595 -17.709  0.00  0.00    +0.006 C 
ATOM      6  C   UNL     1      32.994 -20.831 -18.695  0.00  0.00    +0.006 C 
ENDROOT
BRANCH   2   9
ATOM      7  O   UNL     1      33.455 -23.328 -16.179  0.00  0.00    -0.270 OA
ATOM      8  N   UNL     1      31.586 -22.001 -16.540  0.00  0.00    -0.293 N 
ATOM      9  C   ACE A   0      32.900 -22.395 -16.754  0.00  0.00    +0.246 C 
ATOM     10  H   UNL     1      31.230 -21.239 -17.051  0.00  0.00    +0.150 HD
BRANCH   8  11
ATOM     11  CA  UNL     1      30.722 -22.666 -15.597  0.00  0.00    +0.172 C 
BRANCH  11  13
ATOM     12  OXT UNL     1      28.842 -21.592 -16.713  0.00  0.00    -0.248 OA
ATOM     13  C   UNL     1      29.304 -22.559 -16.121  0.00  0.00    +0.332 C 
BRANCH  13  14
ATOM     14  O   UNL     1      28.592 -23.693 -15.891  0.00  0.00    -0.479 OA
ATOM     15  H   UNL     1      28.883 -24.307 -15.247  0.00  0.00    +0.295 HD
ENDBRANCH  13  14
ENDBRANCH  11  13
BRANCH  11  16
ATOM     16  CB  UNL     1      30.894 -22.144 -14.165  0.00  0.00    +0.043 C 
BRANCH  16  17
ATOM     17  CG  UNL     1      31.107 -23.214 -13.087  0.00  0.00    +0.112 C 
BRANCH  17  19
ATOM     18  OE2 UNL     1      30.466 -25.346 -14.076  0.00  0.00    -0.250 OA
ATOM     19  CD  UNL     1      31.335 -24.603 -13.641  0.00  0.00    +0.314 C 
BRANCH  19  20
ATOM     20  OE1 UNL     1      32.644 -24.962 -13.568  0.00  0.00    -0.480 OA
ATOM     21  HE1 UNL     1      33.291 -24.327 -13.329  0.00  0.00    +0.295 HD
ENDBRANCH  19  20
ENDBRANCH  17  19
ENDBRANCH  16  17
ENDBRANCH  11  16
ENDBRANCH   8  11
ENDBRANCH   2   9
BRANCH   1  22
ATOM     22  N   UNL     1      35.837 -19.318 -20.526  0.00  0.00    -0.302 N 
ATOM     23  C   UNL     1      37.226 -18.984 -20.280  0.00  0.00    +0.112 C 
BRANCH  22  24
ATOM     24  C   UNL     1      35.211 -18.871 -21.755  0.00  0.00    +0.118 C 
BRANCH  24  29
ATOM     25  O   UNL     1      35.334 -15.184 -21.532  0.00  0.00    -0.427 OA
ATOM     26  N   UNL     1      34.559 -14.299 -23.610  0.00  0.00    -0.294 NA
ATOM     27  N   UNL     1      33.929 -16.005 -25.231  0.00  0.00    -0.317 NA
ATOM     28  N   UNL     1      33.764 -13.725 -25.734  0.00  0.00    -0.283 N 
ATOM     29  C   UNL     1      35.153 -17.388 -21.951  0.00  0.00    +0.031 C 
ATOM     30  C   UNL     1      34.725 -16.683 -23.102  0.00  0.00    +0.180 C 
ATOM     31  C   UNL     1      34.854 -15.331 -22.800  0.00  0.00    +0.281 C 
ATOM     32  C   UNL     1      35.510 -16.433 -21.028  0.00  0.00    +0.176 C 
ATOM     33  C   UNL     1      34.243 -17.000 -24.370  0.00  0.00    +0.181 C 
ATOM     34  C   UNL     1      34.105 -14.734 -24.803  0.00  0.00    +0.200 C 
ATOM     35  H   UNL     1      33.866 -12.776 -25.490  0.00  0.00    +0.156 HD
ATOM     36  H   UNL     1      33.425 -13.971 -26.624  0.00  0.00    +0.156 HD
ATOM     37  N   UNL     1      34.077 -18.339 -24.768  0.00  0.00    -0.335 N 
ATOM     38  H   UNL     1      33.736 -18.547 -25.668  0.00  0.00    +0.144 HD
ATOM     39  H   UNL     1      34.303 -19.069 -24.148  0.00  0.00    +0.144 HD
ENDBRANCH  24  29
ENDBRANCH  22  24
ENDBRANCH   1  22
TORSDOF 11
ENDMDL
MODEL 3
REMARK VINA RESULT:     -11.2      2.742      3.984
REMARK  Name = 158376
REMARK  11 active torsions:
REMARK  status: ('A' for Active; 'I' for Inactive)
REMARK    1  A    between atoms: C_1  and  N_22
REMARK    2  A    between atoms: C_2  and  C_9
REMARK    3  A    between atoms: N_8  and  CA_11
REMARK    4  A    between atoms: CA_11  and  C_13
REMARK    5  A    between atoms: CA_11  and  CB_16
REMARK    6  A    between atoms: C_13  and  O_14
REMARK    7  A    between atoms: CB_16  and  CG_17
REMARK    8  A    between atoms: CG_17  and  CD_19
REMARK    9  A    between atoms: CD_19  and  OE1_20
REMARK   10  A    between atoms: N_22  and  C_24
REMARK   11  A    between atoms: C_24  and  C_29
REMARK                            x       y       z     vdW  Elec       q    Type
REMARK                         _______ _______ _______ _____ _____    ______ ____
ROOT
ATOM      1  C   UNL     1      35.626 -19.092 -20.184  0.00  0.00    +0.048 C 
ATOM      2  C   UNL     1      34.410 -21.168 -18.771  0.00  0.00    +0.053 C 
ATOM      3  C   UNL     1      34.241 -19.255 -20.239  0.00  0.00    +0.015 C 
ATOM      4  C   UNL     1      36.402 -19.965 -19.423  0.00  0.00    +0.015 C 
ATOM      5  C   UNL     1      33.634 -20.293 -19.532  0.00  0.00    +0.006 C 
ATOM      6  C   UNL     1      35.794 -21.004 -18.717  0.00  0.00    +0.006 C 
ENDROOT
BRANCH   2   9
ATOM      7  O   UNL     1      33.899 -23.428 -18.414  0.00  0.00    -0.270 OA
ATOM      8  N   UNL     1      33.056 -21.903 -16.883  0.00  0.00    -0.293 N 
ATOM      9  C   ACE A   0      33.763 -22.273 -18.019  0.00  0.00    +0.246 C 
ATOM     10  H   UNL     1      33.003 -20.948 -16.648  0.00  0.00    +0.150 HD
BRANCH   8  11
ATOM     11  CA  UNL     1      32.394 -22.861 -16.035  0.00  0.00    +0.172 C 
BRANCH  11  13
ATOM     12  OXT UNL     1      30.247 -21.882 -16.638  0.00  0.00    -0.248 OA
ATOM     13  C   UNL     1      30.986 -22.359 -15.786  0.00  0.00    +0.332 C 
BRANCH  13  14
ATOM     14  O   UNL     1      30.607 -22.533 -14.493  0.00  0.00    -0.479 OA
ATOM     15  H   UNL     1      30.899 -21.934 -13.835  0.00  0.00    +0.295 HD
ENDBRANCH  13  14
ENDBRANCH  11  13
BRANCH  11  16
ATOM     16  CB  UNL     1      33.180 -23.161 -14.753  0.00  0.00    +0.043 C 
BRANCH  16  17
ATOM     17  CG  UNL     1      34.700 -22.981 -14.844  0.00  0.00    +0.112 C 
BRANCH  17  19
ATOM     18  OE2 UNL     1      36.061 -24.982 -15.129  0.00  0.00    -0.250 OA
ATOM     19  CD  UNL     1      35.486 -24.192 -14.392  0.00  0.00    +0.314 C 
BRANCH  19  20
ATOM     20  OE1 UNL     1      35.451 -24.335 -13.041  0.00  0.00    -0.480 OA
ATOM     21  HE1 UNL     1      36.213 -24.630 -12.582  0.00  0.00    +0.295 HD
ENDBRANCH  19  20
ENDBRANCH  17  19
ENDBRANCH  16  17
ENDBRANCH  11  16
ENDBRANCH   8  11
ENDBRANCH   2   9
BRANCH   1  22
ATOM     22  N   UNL     1      36.240 -18.042 -20.897  0.00  0.00    -0.302 N 
ATOM     23  C   UNL     1      37.605 -18.174 -21.367  0.00  0.00    +0.112 C 
BRANCH  22  24
ATOM     24  C   UNL     1      35.510 -16.822 -21.182  0.00  0.00    +0.118 C 
BRANCH  24  29
ATOM     25  O   UNL     1      34.587 -17.109 -24.750  0.00  0.00    -0.427 OA
ATOM     26  N   UNL     1      33.993 -14.931 -25.528  0.00  0.00    -0.294 NA
ATOM     27  N   UNL     1      34.155 -13.199 -23.823  0.00  0.00    -0.317 NA
ATOM     28  N   UNL     1      33.471 -12.701 -26.006  0.00  0.00    -0.283 N 
ATOM     29  C   UNL     1      35.089 -16.636 -22.607  0.00  0.00    +0.031 C 
ATOM     30  C   UNL     1      34.705 -15.433 -23.246  0.00  0.00    +0.180 C 
ATOM     31  C   UNL     1      34.404 -15.771 -24.562  0.00  0.00    +0.281 C 
ATOM     32  C   UNL     1      35.002 -17.622 -23.562  0.00  0.00    +0.176 C 
ATOM     33  C   UNL     1      34.565 -14.092 -22.894  0.00  0.00    +0.181 C 
ATOM     34  C   UNL     1      33.897 -13.668 -25.066  0.00  0.00    +0.200 C 
ATOM     35  H   UNL     1      33.266 -12.972 -26.930  0.00  0.00    +0.156 HD
ATOM     36  H   UNL     1      33.380 -11.760 -25.737  0.00  0.00    +0.156 HD
ATOM     37  N   UNL     1      34.846 -13.653 -21.587  0.00  0.00    -0.335 N 
ATOM     38  H   UNL     1      34.743 -12.702 -21.355  0.00  0.00    +0.144 HD
ATOM     39  H   UNL     1      35.146 -14.296 -20.905  0.00  0.00    +0.144 HD
ENDBRANCH  24  29
ENDBRANCH  22  24
ENDBRANCH   1  22
TORSDOF 11
ENDMDL
MODEL 4
REMARK VINA RESULT:     -11.1      3.020      3.841
REMARK  Name = 158376
REMARK  11 active torsions:
REMARK  status: ('A' for Active; 'I' for Inactive)
REMARK    1  A    between atoms: C_1  and  N_22
REMARK    2  A    between atoms: C_2  and  C_9
REMARK    3  A    between atoms: N_8  and  CA_11
REMARK    4  A    between atoms: CA_11  and  C_13
REMARK    5  A    between atoms: CA_11  and  CB_16
REMARK    6  A    between atoms: C_13  and  O_14
REMARK    7  A    between atoms: CB_16  and  CG_17
REMARK    8  A    between atoms: CG_17  and  CD_19
REMARK    9  A    between atoms: CD_19  and  OE1_20
REMARK   10  A    between atoms: N_22  and  C_24
REMARK   11  A    between atoms: C_24  and  C_29
REMARK                            x       y       z     vdW  Elec       q    Type
REMARK                         _______ _______ _______ _____ _____    ______ ____
ROOT
ATOM      1  C   UNL     1      34.704 -19.407 -20.569  0.00  0.00    +0.048 C 
ATOM      2  C   UNL     1      33.939 -21.160 -18.538  0.00  0.00    +0.053 C 
ATOM      3  C   UNL     1      35.673 -20.109 -19.854  0.00  0.00    +0.015 C 
ATOM      4  C   UNL     1      33.353 -19.580 -20.270  0.00  0.00    +0.015 C 
ATOM      5  C   UNL     1      35.291 -20.986 -18.838  0.00  0.00    +0.006 C 
ATOM      6  C   UNL     1      32.971 -20.457 -19.253  0.00  0.00    +0.006 C 
ENDROOT
BRANCH   2   9
ATOM      7  O   UNL     1      34.336 -22.930 -17.052  0.00  0.00    -0.270 OA
ATOM      8  N   UNL     1      32.248 -21.925 -16.959  0.00  0.00    -0.293 N 
ATOM      9  C   ACE A   0      33.532 -22.093 -17.456  0.00  0.00    +0.246 C 
ATOM     10  H   UNL     1      31.676 -21.225 -17.350  0.00  0.00    +0.150 HD
BRANCH   8  11
ATOM     11  CA  UNL     1      31.716 -22.736 -15.893  0.00  0.00    +0.172 C 
BRANCH  11  13
ATOM     12  OXT UNL     1      29.569 -21.766 -16.511  0.00  0.00    -0.248 OA
ATOM     13  C   UNL     1      30.205 -22.662 -15.970  0.00  0.00    +0.332 C 
BRANCH  13  14
ATOM     14  O   UNL     1      29.614 -23.741 -15.393  0.00  0.00    -0.479 OA
ATOM     15  H   UNL     1      30.137 -24.460 -15.099  0.00  0.00    +0.295 HD
ENDBRANCH  13  14
ENDBRANCH  11  13
BRANCH  11  16
ATOM     16  CB  UNL     1      32.286 -22.358 -14.521  0.00  0.00    +0.043 C 
BRANCH  16  17
ATOM     17  CG  UNL     1      32.706 -23.530 -13.626  0.00  0.00    +0.112 C 
BRANCH  17  19
ATOM     18  OE2 UNL     1      35.105 -23.857 -13.899  0.00  0.00    -0.250 OA
ATOM     19  CD  UNL     1      34.161 -23.491 -13.213  0.00  0.00    +0.314 C 
BRANCH  19  20
ATOM     20  OE1 UNL     1      34.308 -23.028 -11.943  0.00  0.00    -0.480 OA
ATOM     21  HE1 UNL     1      35.149 -23.052 -11.531  0.00  0.00    +0.295 HD
ENDBRANCH  19  20
ENDBRANCH  17  19
ENDBRANCH  16  17
ENDBRANCH  11  16
ENDBRANCH   8  11
ENDBRANCH   2   9
BRANCH   1  22
ATOM     22  N   UNL     1      35.089 -18.522 -21.597  0.00  0.00    -0.302 N 
ATOM     23  C   UNL     1      34.546 -18.666 -22.933  0.00  0.00    +0.112 C 
BRANCH  22  24
ATOM     24  C   UNL     1      36.024 -17.446 -21.327  0.00  0.00    +0.118 C 
BRANCH  24  29
ATOM     25  O   UNL     1      34.565 -14.487 -19.659  0.00  0.00    -0.427 OA
ATOM     26  N   UNL     1      34.016 -12.892 -21.350  0.00  0.00    -0.294 NA
ATOM     27  N   UNL     1      34.548 -13.631 -23.609  0.00  0.00    -0.317 NA
ATOM     28  N   UNL     1      33.586 -11.535 -23.206  0.00  0.00    -0.283 N 
ATOM     29  C   UNL     1      35.410 -16.137 -20.936  0.00  0.00    +0.031 C 
ATOM     30  C   UNL     1      35.019 -15.076 -21.788  0.00  0.00    +0.180 C 
ATOM     31  C   UNL     1      34.505 -14.082 -20.961  0.00  0.00    +0.281 C 
ATOM     32  C   UNL     1      35.113 -15.730 -19.656  0.00  0.00    +0.176 C 
ATOM     33  C   UNL     1      35.028 -14.812 -23.156  0.00  0.00    +0.181 C 
ATOM     34  C   UNL     1      34.079 -12.756 -22.690  0.00  0.00    +0.200 C 
ATOM     35  H   UNL     1      33.229 -10.851 -22.594  0.00  0.00    +0.156 HD
ATOM     36  H   UNL     1      33.601 -11.369 -24.176  0.00  0.00    +0.156 HD
ATOM     37  N   UNL     1      35.526 -15.755 -24.073  0.00  0.00    -0.335 N 
ATOM     38  H   UNL     1      35.525 -15.553 -25.036  0.00  0.00    +0.144 HD
ATOM     39  H   UNL     1      35.876 -16.618 -23.752  0.00  0.00    +0.144 HD
ENDBRANCH  24  29
ENDBRANCH  22  24
ENDBRANCH   1  22
TORSDOF 11
ENDMDL
MODEL 5
REMARK VINA RESULT:     -10.8      2.789     10.765
REMARK  Name = 158376
REMARK  11 active torsions:
REMARK  status: ('A' for Active; 'I' for Inactive)
REMARK    1  A    between atoms: C_1  and  N_22
REMARK    2  A    between atoms: C_2  and  C_9
REMARK    3  A    between atoms: N_8  and  CA_11
REMARK    4  A    between atoms: CA_11  and  C_13
REMARK    5  A    between atoms: CA_11  and  CB_16
REMARK    6  A    between atoms: C_13  and  O_14
REMARK    7  A    between atoms: CB_16  and  CG_17
REMARK    8  A    between atoms: CG_17  and  CD_19
REMARK    9  A    between atoms: CD_19  and  OE1_20
REMARK   10  A    between atoms: N_22  and  C_24
REMARK   11  A    between atoms: C_24  and  C_29
REMARK                            x       y       z     vdW  Elec       q    Type
REMARK                         _______ _______ _______ _____ _____    ______ ____
ROOT
ATOM      1  C   UNL     1      34.347 -22.464 -15.784  0.00  0.00    +0.048 C 
ATOM      2  C   UNL     1      35.396 -21.324 -18.105  0.00  0.00    +0.053 C 
ATOM      3  C   UNL     1      33.575 -22.411 -16.945  0.00  0.00    +0.015 C 
ATOM      4  C   UNL     1      35.643 -21.948 -15.783  0.00  0.00    +0.015 C 
ATOM      5  C   UNL     1      34.100 -21.841 -18.105  0.00  0.00    +0.006 C 
ATOM      6  C   UNL     1      36.167 -21.378 -16.944  0.00  0.00    +0.006 C 
ENDROOT
BRANCH   2   9
ATOM      7  O   UNL     1      37.062 -21.073 -19.735  0.00  0.00    -0.270 OA
ATOM      8  N   UNL     1      35.145 -19.790 -19.981  0.00  0.00    -0.293 N 
ATOM      9  C   ACE A   0      35.954 -20.718 -19.340  0.00  0.00    +0.246 C 
ATOM     10  H   UNL     1      34.271 -19.571 -19.586  0.00  0.00    +0.150 HD
BRANCH   8  11
ATOM     11  CA  UNL     1      35.536 -19.134 -21.203  0.00  0.00    +0.172 C 
BRANCH  11  13
ATOM     12  OXT UNL     1      37.669 -17.959 -21.157  0.00  0.00    -0.248 OA
ATOM     13  C   UNL     1      36.488 -18.013 -20.838  0.00  0.00    +0.332 C 
BRANCH  13  14
ATOM     14  O   UNL     1      35.868 -17.031 -20.133  0.00  0.00    -0.479 OA
ATOM     15  H   UNL     1      36.110 -16.136 -20.265  0.00  0.00    +0.295 HD
ENDBRANCH  13  14
ENDBRANCH  11  13
BRANCH  11  16
ATOM     16  CB  UNL     1      34.335 -18.678 -22.042  0.00  0.00    +0.043 C 
BRANCH  16  17
ATOM     17  CG  UNL     1      34.634 -18.339 -23.507  0.00  0.00    +0.112 C 
BRANCH  17  19
ATOM     18  OE2 UNL     1      34.879 -15.977 -22.962  0.00  0.00    -0.250 OA
ATOM     19  CD  UNL     1      34.681 -16.854 -23.792  0.00  0.00    +0.314 C 
BRANCH  19  20
ATOM     20  OE1 UNL     1      34.433 -16.587 -25.102  0.00  0.00    -0.480 OA
ATOM     21  HE1 UNL     1      34.559 -15.721 -25.435  0.00  0.00    +0.295 HD
ENDBRANCH  19  20
ENDBRANCH  17  19
ENDBRANCH  16  17
ENDBRANCH  11  16
ENDBRANCH   8  11
ENDBRANCH   2   9
BRANCH   1  22
ATOM     22  N   UNL     1      33.818 -23.041 -14.611  0.00  0.00    -0.302 N 
ATOM     23  C   UNL     1      32.605 -22.516 -14.017  0.00  0.00    +0.112 C 
BRANCH  22  24
ATOM     24  C   UNL     1      34.473 -24.177 -13.992  0.00  0.00    +0.118 C 
BRANCH  24  29
ATOM     25  O   UNL     1      37.501 -22.975 -12.246  0.00  0.00    -0.427 OA
ATOM     26  N   UNL     1      39.334 -24.341 -12.939  0.00  0.00    -0.294 NA
ATOM     27  N   UNL     1      38.721 -26.073 -14.538  0.00  0.00    -0.317 NA
ATOM     28  N   UNL     1      40.926 -25.827 -13.792  0.00  0.00    -0.283 N 
ATOM     29  C   UNL     1      35.839 -23.915 -13.438  0.00  0.00    +0.031 C 
ATOM     30  C   UNL     1      37.038 -24.611 -13.728  0.00  0.00    +0.180 C 
ATOM     31  C   UNL     1      38.034 -24.000 -12.972  0.00  0.00    +0.281 C 
ATOM     32  C   UNL     1      36.175 -22.933 -12.536  0.00  0.00    +0.176 C 
ATOM     33  C   UNL     1      37.426 -25.683 -14.529  0.00  0.00    +0.181 C 
ATOM     34  C   UNL     1      39.583 -25.387 -13.752  0.00  0.00    +0.200 C 
ATOM     35  H   UNL     1      41.608 -25.374 -13.245  0.00  0.00    +0.156 HD
ATOM     36  H   UNL     1      41.178 -26.586 -14.365  0.00  0.00    +0.156 HD
ATOM     37  N   UNL     1      36.491 -26.364 -15.329  0.00  0.00    -0.335 N 
ATOM     38  H   UNL     1      36.781 -27.119 -15.890  0.00  0.00    +0.144 HD
ATOM     39  H   UNL     1      35.546 -26.086 -15.330  0.00  0.00    +0.144 HD
ENDBRANCH  24  29
ENDBRANCH  22  24
ENDBRANCH   1  22
TORSDOF 11
ENDMDL
MODEL 6
REMARK VINA RESULT:     -10.7      2.672     11.087
REMARK  Name = 158376
REMARK  11 active torsions:
REMARK  status: ('A' for Active; 'I' for Inactive)
REMARK    1  A    between atoms: C_1  and  N_22
REMARK    2  A    between atoms: C_2  and  C_9
REMARK    3  A    between atoms: N_8  and  CA_11
REMARK    4  A    between atoms: CA_11  and  C_13
REMARK    5  A    between atoms: CA_11  and  CB_16
REMARK    6  A    between atoms: C_13  and  O_14
REMARK    7  A    between atoms: CB_16  and  CG_17
REMARK    8  A    between atoms: CG_17  and  CD_19
REMARK    9  A    between atoms: CD_19  and  OE1_20
REMARK   10  A    between atoms: N_22  and  C_24
REMARK   11  A    between atoms: C_24  and  C_29
REMARK                            x       y       z     vdW  Elec       q    Type
REMARK                         _______ _______ _______ _____ _____    ______ ____
ROOT
ATOM      1  C   UNL     1      34.152 -21.664 -17.684  0.00  0.00    +0.048 C 
ATOM      2  C   UNL     1      35.500 -19.988 -19.461  0.00  0.00    +0.053 C 
ATOM      3  C   UNL     1      33.441 -20.970 -18.663  0.00  0.00    +0.015 C 
ATOM      4  C   UNL     1      35.536 -21.521 -17.593  0.00  0.00    +0.015 C 
ATOM      5  C   UNL     1      34.115 -20.132 -19.551  0.00  0.00    +0.006 C 
ATOM      6  C   UNL     1      36.210 -20.682 -18.482  0.00  0.00    +0.006 C 
ENDROOT
BRANCH   2   9
ATOM      7  O   UNL     1      37.446 -19.081 -20.404  0.00  0.00    -0.270 OA
ATOM      8  N   UNL     1      35.419 -18.346 -21.260  0.00  0.00    -0.293 N 
ATOM      9  C   ACE A   0      36.218 -19.096 -20.407  0.00  0.00    +0.246 C 
ATOM     10  H   UNL     1      34.441 -18.426 -21.186  0.00  0.00    +0.150 HD
BRANCH   8  11
ATOM     11  CA  UNL     1      35.967 -17.454 -22.250  0.00  0.00    +0.172 C 
BRANCH  11  13
ATOM     12  OXT UNL     1      34.980 -15.724 -20.847  0.00  0.00    -0.248 OA
ATOM     13  C   UNL     1      35.530 -16.048 -21.892  0.00  0.00    +0.332 C 
BRANCH  13  14
ATOM     14  O   UNL     1      35.855 -15.153 -22.863  0.00  0.00    -0.479 OA
ATOM     15  H   UNL     1      35.181 -14.752 -23.374  0.00  0.00    +0.295 HD
ENDBRANCH  13  14
ENDBRANCH  11  13
BRANCH  11  16
ATOM     16  CB  UNL     1      35.609 -17.867 -23.683  0.00  0.00    +0.043 C 
BRANCH  16  17
ATOM     17  CG  UNL     1      34.114 -17.869 -24.025  0.00  0.00    +0.112 C 
BRANCH  17  19
ATOM     18  OE2 UNL     1      34.410 -15.914 -25.448  0.00  0.00    -0.250 OA
ATOM     19  CD  UNL     1      33.731 -16.867 -25.091  0.00  0.00    +0.314 C 
BRANCH  19  20
ATOM     20  OE1 UNL     1      32.496 -17.125 -25.599  0.00  0.00    -0.480 OA
ATOM     21  HE1 UNL     1      32.349 -17.904 -26.097  0.00  0.00    +0.295 HD
ENDBRANCH  19  20
ENDBRANCH  17  19
ENDBRANCH  16  17
ENDBRANCH  11  16
ENDBRANCH   8  11
ENDBRANCH   2   9
BRANCH   1  22
ATOM     22  N   UNL     1      33.471 -22.512 -16.786  0.00  0.00    -0.302 N 
ATOM     23  C   UNL     1      32.056 -22.329 -16.533  0.00  0.00    +0.112 C 
BRANCH  22  24
ATOM     24  C   UNL     1      34.175 -23.589 -16.117  0.00  0.00    +0.118 C 
BRANCH  24  29
ATOM     25  O   UNL     1      33.332 -23.661 -12.518  0.00  0.00    -0.427 OA
ATOM     26  N   UNL     1      35.337 -23.243 -11.290  0.00  0.00    -0.294 NA
ATOM     27  N   UNL     1      37.297 -22.898 -12.694  0.00  0.00    -0.317 NA
ATOM     28  N   UNL     1      37.439 -22.813 -10.359  0.00  0.00    -0.283 N 
ATOM     29  C   UNL     1      34.132 -23.560 -14.620  0.00  0.00    +0.031 C 
ATOM     30  C   UNL     1      35.206 -23.328 -13.728  0.00  0.00    +0.180 C 
ATOM     31  C   UNL     1      34.669 -23.401 -12.446  0.00  0.00    +0.281 C 
ATOM     32  C   UNL     1      33.018 -23.755 -13.836  0.00  0.00    +0.176 C 
ATOM     33  C   UNL     1      36.572 -23.067 -13.823  0.00  0.00    +0.181 C 
ATOM     34  C   UNL     1      36.644 -22.996 -11.514  0.00  0.00    +0.200 C 
ATOM     35  H   UNL     1      37.029 -22.870  -9.466  0.00  0.00    +0.156 HD
ATOM     36  H   UNL     1      38.402 -22.628 -10.449  0.00  0.00    +0.156 HD
ATOM     37  N   UNL     1      37.206 -22.974 -15.075  0.00  0.00    -0.335 N 
ATOM     38  H   UNL     1      38.171 -22.789 -15.125  0.00  0.00    +0.144 HD
ATOM     39  H   UNL     1      36.685 -23.094 -15.902  0.00  0.00    +0.144 HD
ENDBRANCH  24  29
ENDBRANCH  22  24
ENDBRANCH   1  22
TORSDOF 11
ENDMDL
MODEL 7
REMARK VINA RESULT:     -10.6      2.669      4.023
REMARK  Name = 158376
REMARK  11 active torsions:
REMARK  status: ('A' for Active; 'I' for Inactive)
REMARK    1  A    between atoms: C_1  and  N_22
REMARK    2  A    between atoms: C_2  and  C_9
REMARK    3  A    between atoms: N_8  and  CA_11
REMARK    4  A    between atoms: CA_11  and  C_13
REMARK    5  A    between atoms: CA_11  and  CB_16
REMARK    6  A    between atoms: C_13  and  O_14
REMARK    7  A    between atoms: CB_16  and  CG_17
REMARK    8  A    between atoms: CG_17  and  CD_19
REMARK    9  A    between atoms: CD_19  and  OE1_20
REMARK   10  A    between atoms: N_22  and  C_24
REMARK   11  A    between atoms: C_24  and  C_29
REMARK                            x       y       z     vdW  Elec       q    Type
REMARK                         _______ _______ _______ _____ _____    ______ ____
ROOT
ATOM      1  C   UNL     1      35.146 -19.033 -21.048  0.00  0.00    +0.048 C 
ATOM      2  C   UNL     1      35.037 -20.710 -18.821  0.00  0.00    +0.053 C 
ATOM      3  C   UNL     1      36.325 -19.436 -20.420  0.00  0.00    +0.015 C 
ATOM      4  C   UNL     1      33.914 -19.469 -20.563  0.00  0.00    +0.015 C 
ATOM      5  C   UNL     1      36.270 -20.274 -19.307  0.00  0.00    +0.006 C 
ATOM      6  C   UNL     1      33.859 -20.307 -19.449  0.00  0.00    +0.006 C 
ENDROOT
BRANCH   2   9
ATOM      7  O   UNL     1      36.020 -21.893 -17.051  0.00  0.00    -0.270 OA
ATOM      8  N   UNL     1      33.713 -22.030 -17.258  0.00  0.00    -0.293 N 
ATOM      9  C   ACE A   0      34.979 -21.603 -17.635  0.00  0.00    +0.246 C 
ATOM     10  H   UNL     1      32.937 -21.743 -17.791  0.00  0.00    +0.150 HD
BRANCH   8  11
ATOM     11  CA  UNL     1      33.491 -22.879 -16.115  0.00  0.00    +0.172 C 
BRANCH  11  13
ATOM     12  OXT UNL     1      31.481 -23.392 -14.838  0.00  0.00    -0.248 OA
ATOM     13  C   UNL     1      32.013 -22.824 -15.783  0.00  0.00    +0.332 C 
BRANCH  13  14
ATOM     14  O   UNL     1      31.329 -22.028 -16.646  0.00  0.00    -0.479 OA
ATOM     15  H   UNL     1      30.743 -22.408 -17.269  0.00  0.00    +0.295 HD
ENDBRANCH  13  14
ENDBRANCH  11  13
BRANCH  11  16
ATOM     16  CB  UNL     1      34.404 -22.533 -14.932  0.00  0.00    +0.043 C 
BRANCH  16  17
ATOM     17  CG  UNL     1      34.917 -23.724 -14.113  0.00  0.00    +0.112 C 
BRANCH  17  19
ATOM     18  OE2 UNL     1      36.005 -25.702 -15.030  0.00  0.00    -0.250 OA
ATOM     19  CD  UNL     1      36.022 -24.501 -14.795  0.00  0.00    +0.314 C 
BRANCH  19  20
ATOM     20  OE1 UNL     1      37.084 -23.706 -15.091  0.00  0.00    -0.480 OA
ATOM     21  HE1 UNL     1      37.949 -24.066 -15.104  0.00  0.00    +0.295 HD
ENDBRANCH  19  20
ENDBRANCH  17  19
ENDBRANCH  16  17
ENDBRANCH  11  16
ENDBRANCH   8  11
ENDBRANCH   2   9
BRANCH   1  22
ATOM     22  N   UNL     1      35.201 -18.187 -22.175  0.00  0.00    -0.302 N 
ATOM     23  C   UNL     1      34.565 -18.576 -23.417  0.00  0.00    +0.112 C 
BRANCH  22  24
ATOM     24  C   UNL     1      35.883 -16.909 -22.101  0.00  0.00    +0.118 C 
BRANCH  24  29
ATOM     25  O   UNL     1      34.338 -14.443 -24.380  0.00  0.00    -0.427 OA
ATOM     26  N   UNL     1      33.401 -12.700 -23.045  0.00  0.00    -0.294 NA
ATOM     27  N   UNL     1      33.714 -13.020 -20.650  0.00  0.00    -0.317 NA
ATOM     28  N   UNL     1      32.588 -11.149 -21.494  0.00  0.00    -0.283 N 
ATOM     29  C   UNL     1      35.186 -15.763 -22.765  0.00  0.00    +0.031 C 
ATOM     30  C   UNL     1      34.574 -14.646 -22.147  0.00  0.00    +0.180 C 
ATOM     31  C   UNL     1      34.065 -13.861 -23.177  0.00  0.00    +0.281 C 
ATOM     32  C   UNL     1      35.016 -15.591 -24.120  0.00  0.00    +0.176 C 
ATOM     33  C   UNL     1      34.375 -14.183 -20.848  0.00  0.00    +0.181 C 
ATOM     34  C   UNL     1      33.273 -12.360 -21.746  0.00  0.00    +0.200 C 
ATOM     35  H   UNL     1      32.240 -10.616 -22.245  0.00  0.00    +0.156 HD
ATOM     36  H   UNL     1      32.459 -10.840 -20.569  0.00  0.00    +0.156 HD
ATOM     37  N   UNL     1      34.853 -14.906 -19.740  0.00  0.00    -0.335 N 
ATOM     38  H   UNL     1      34.704 -14.565 -18.829  0.00  0.00    +0.144 HD
ATOM     39  H   UNL     1      35.336 -15.753 -19.875  0.00  0.00    +0.144 HD
ENDBRANCH  24  29
ENDBRANCH  22  24
ENDBRANCH   1  22
TORSDOF 11
ENDMDL
MODEL 8
REMARK VINA RESULT:     -10.6      2.424      3.455
REMARK  Name = 158376
REMARK  11 active torsions:
REMARK  status: ('A' for Active; 'I' for Inactive)
REMARK    1  A    between atoms: C_1  and  N_22
REMARK    2  A    between atoms: C_2  and  C_9
REMARK    3  A    between atoms: N_8  and  CA_11
REMARK    4  A    between atoms: CA_11  and  C_13
REMARK    5  A    between atoms: CA_11  and  CB_16
REMARK    6  A    between atoms: C_13  and  O_14
REMARK    7  A    between atoms: CB_16  and  CG_17
REMARK    8  A    between atoms: CG_17  and  CD_19
REMARK    9  A    between atoms: CD_19  and  OE1_20
REMARK   10  A    between atoms: N_22  and  C_24
REMARK   11  A    between atoms: C_24  and  C_29
REMARK                            x       y       z     vdW  Elec       q    Type
REMARK                         _______ _______ _______ _____ _____    ______ ____
ROOT
ATOM      1  C   UNL     1      35.711 -19.280 -20.313  0.00  0.00    +0.048 C 
ATOM      2  C   UNL     1      34.742 -21.249 -18.590  0.00  0.00    +0.053 C 
ATOM      3  C   UNL     1      36.601 -20.059 -19.574  0.00  0.00    +0.015 C 
ATOM      4  C   UNL     1      34.337 -19.485 -20.191  0.00  0.00    +0.015 C 
ATOM      5  C   UNL     1      36.117 -21.044 -18.713  0.00  0.00    +0.006 C 
ATOM      6  C   UNL     1      33.853 -20.470 -19.329  0.00  0.00    +0.006 C 
ENDROOT
BRANCH   2   9
ATOM      7  O   UNL     1      33.739 -23.321 -18.146  0.00  0.00    -0.270 OA
ATOM      8  N   UNL     1      34.362 -22.039 -16.316  0.00  0.00    -0.293 N 
ATOM      9  C   ACE A   0      34.226 -22.298 -17.673  0.00  0.00    +0.246 C 
ATOM     10  H   UNL     1      34.767 -21.187 -16.034  0.00  0.00    +0.150 HD
BRANCH   8  11
ATOM     11  CA  UNL     1      33.933 -22.970 -15.303  0.00  0.00    +0.172 C 
BRANCH  11  13
ATOM     12  OXT UNL     1      31.520 -22.869 -15.616  0.00  0.00    -0.248 OA
ATOM     13  C   UNL     1      32.506 -22.621 -14.934  0.00  0.00    +0.332 C 
BRANCH  13  14
ATOM     14  O   UNL     1      32.429 -22.020 -13.717  0.00  0.00    -0.479 OA
ATOM     15  H   UNL     1      33.181 -21.594 -13.357  0.00  0.00    +0.295 HD
ENDBRANCH  13  14
ENDBRANCH  11  13
BRANCH  11  16
ATOM     16  CB  UNL     1      34.888 -23.022 -14.104  0.00  0.00    +0.043 C 
BRANCH  16  17
ATOM     17  CG  UNL     1      35.663 -24.333 -13.924  0.00  0.00    +0.112 C 
BRANCH  17  19
ATOM     18  OE2 UNL     1      37.889 -25.188 -14.422  0.00  0.00    -0.250 OA
ATOM     19  CD  UNL     1      37.034 -24.324 -14.563  0.00  0.00    +0.314 C 
BRANCH  19  20
ATOM     20  OE1 UNL     1      37.234 -23.201 -15.302  0.00  0.00    -0.480 OA
ATOM     21  HE1 UNL     1      36.823 -23.112 -16.139  0.00  0.00    +0.295 HD
ENDBRANCH  19  20
ENDBRANCH  17  19
ENDBRANCH  16  17
ENDBRANCH  11  16
ENDBRANCH   8  11
ENDBRANCH   2   9
BRANCH   1  22
ATOM     22  N   UNL     1      36.200 -18.285 -21.184  0.00  0.00    -0.302 N 
ATOM     23  C   UNL     1      37.626 -18.061 -21.317  0.00  0.00    +0.112 C 
BRANCH  22  24
ATOM     24  C   UNL     1      35.283 -17.483 -21.971  0.00  0.00    +0.118 C 
BRANCH  24  29
ATOM     25  O   UNL     1      34.904 -14.313 -20.108  0.00  0.00    -0.427 OA
ATOM     26  N   UNL     1      34.399 -12.594 -21.687  0.00  0.00    -0.294 NA
ATOM     27  N   UNL     1      34.280 -13.377 -23.990  0.00  0.00    -0.317 NA
ATOM     28  N   UNL     1      33.921 -11.129 -23.447  0.00  0.00    -0.283 N 
ATOM     29  C   UNL     1      35.075 -16.079 -21.493  0.00  0.00    +0.031 C 
ATOM     30  C   UNL     1      34.770 -14.937 -22.271  0.00  0.00    +0.180 C 
ATOM     31  C   UNL     1      34.675 -13.873 -21.379  0.00  0.00    +0.281 C 
ATOM     32  C   UNL     1      35.144 -15.648 -20.189  0.00  0.00    +0.176 C 
ATOM     33  C   UNL     1      34.561 -14.647 -23.618  0.00  0.00    +0.181 C 
ATOM     34  C   UNL     1      34.218 -12.442 -23.015  0.00  0.00    +0.200 C 
ATOM     35  H   UNL     1      33.860 -10.397 -22.790  0.00  0.00    +0.156 HD
ATOM     36  H   UNL     1      33.776 -10.946 -24.403  0.00  0.00    +0.156 HD
ATOM     37  N   UNL     1      34.635 -15.656 -24.596  0.00  0.00    -0.335 N 
ATOM     38  H   UNL     1      34.485 -15.435 -25.543  0.00  0.00    +0.144 HD
ATOM     39  H   UNL     1      34.838 -16.583 -24.334  0.00  0.00    +0.144 HD
ENDBRANCH  24  29
ENDBRANCH  22  24
ENDBRANCH   1  22
TORSDOF 11
ENDMDL
MODEL 9
REMARK VINA RESULT:     -10.5      2.719     11.154
REMARK  Name = 158376
REMARK  11 active torsions:
REMARK  status: ('A' for Active; 'I' for Inactive)
REMARK    1  A    between atoms: C_1  and  N_22
REMARK    2  A    between atoms: C_2  and  C_9
REMARK    3  A    between atoms: N_8  and  CA_11
REMARK    4  A    between atoms: CA_11  and  C_13
REMARK    5  A    between atoms: CA_11  and  CB_16
REMARK    6  A    between atoms: C_13  and  O_14
REMARK    7  A    between atoms: CB_16  and  CG_17
REMARK    8  A    between atoms: CG_17  and  CD_19
REMARK    9  A    between atoms: CD_19  and  OE1_20
REMARK   10  A    between atoms: N_22  and  C_24
REMARK   11  A    between atoms: C_24  and  C_29
REMARK                            x       y       z     vdW  Elec       q    Type
REMARK                         _______ _______ _______ _____ _____    ______ ____
ROOT
ATOM      1  C   UNL     1      35.034 -20.919 -18.706  0.00  0.00    +0.048 C 
ATOM      2  C   UNL     1      35.794 -18.894 -20.468  0.00  0.00    +0.053 C 
ATOM      3  C   UNL     1      34.062 -20.201 -19.403  0.00  0.00    +0.015 C 
ATOM      4  C   UNL     1      36.385 -20.625 -18.889  0.00  0.00    +0.015 C 
ATOM      5  C   UNL     1      34.442 -19.189 -20.284  0.00  0.00    +0.006 C 
ATOM      6  C   UNL     1      36.764 -19.612 -19.771  0.00  0.00    +0.006 C 
ENDROOT
BRANCH   2   9
ATOM      7  O   UNL     1      37.354 -17.784 -21.821  0.00  0.00    -0.270 OA
ATOM      8  N   UNL     1      35.202 -16.919 -21.768  0.00  0.00    -0.293 N 
ATOM      9  C   ACE A   0      36.199 -17.816 -21.407  0.00  0.00    +0.246 C 
ATOM     10  H   UNL     1      34.304 -17.028 -21.381  0.00  0.00    +0.150 HD
BRANCH   8  11
ATOM     11  CA  UNL     1      35.433 -15.835 -22.689  0.00  0.00    +0.172 C 
BRANCH  11  13
ATOM     12  OXT UNL     1      34.711 -14.173 -21.061  0.00  0.00    -0.248 OA
ATOM     13  C   UNL     1      34.649 -14.637 -22.192  0.00  0.00    +0.332 C 
BRANCH  13  14
ATOM     14  O   UNL     1      33.877 -14.095 -23.171  0.00  0.00    -0.479 OA
ATOM     15  H   UNL     1      32.987 -13.866 -22.992  0.00  0.00    +0.295 HD
ENDBRANCH  13  14
ENDBRANCH  11  13
BRANCH  11  16
ATOM     16  CB  UNL     1      35.126 -16.216 -24.142  0.00  0.00    +0.043 C 
BRANCH  16  17
ATOM     17  CG  UNL     1      34.151 -17.384 -24.335  0.00  0.00    +0.112 C 
BRANCH  17  19
ATOM     18  OE2 UNL     1      32.141 -17.858 -25.628  0.00  0.00    -0.250 OA
ATOM     19  CD  UNL     1      32.983 -17.059 -25.241  0.00  0.00    +0.314 C 
BRANCH  19  20
ATOM     20  OE1 UNL     1      32.992 -15.754 -25.621  0.00  0.00    -0.480 OA
ATOM     21  HE1 UNL     1      32.750 -15.087 -25.009  0.00  0.00    +0.295 HD
ENDBRANCH  19  20
ENDBRANCH  17  19
ENDBRANCH  16  17
ENDBRANCH  11  16
ENDBRANCH   8  11
ENDBRANCH   2   9
BRANCH   1  22
ATOM     22  N   UNL     1      34.650 -21.943 -17.816  0.00  0.00    -0.302 N 
ATOM     23  C   UNL     1      34.108 -23.189 -18.320  0.00  0.00    +0.112 C 
BRANCH  22  24
ATOM     24  C   UNL     1      34.807 -21.770 -16.385  0.00  0.00    +0.118 C 
BRANCH  24  29
ATOM     25  O   UNL     1      38.379 -21.892 -15.442  0.00  0.00    -0.427 OA
ATOM     26  N   UNL     1      38.689 -23.764 -13.993  0.00  0.00    -0.294 NA
ATOM     27  N   UNL     1      36.647 -25.020 -13.559  0.00  0.00    -0.317 NA
ATOM     28  N   UNL     1      38.691 -25.650 -12.607  0.00  0.00    -0.283 N 
ATOM     29  C   UNL     1      36.171 -22.066 -15.842  0.00  0.00    +0.031 C 
ATOM     30  C   UNL     1      36.547 -23.122 -14.977  0.00  0.00    +0.180 C 
ATOM     31  C   UNL     1      37.914 -22.976 -14.757  0.00  0.00    +0.281 C 
ATOM     32  C   UNL     1      37.319 -21.350 -16.094  0.00  0.00    +0.176 C 
ATOM     33  C   UNL     1      35.919 -24.191 -14.341  0.00  0.00    +0.181 C 
ATOM     34  C   UNL     1      37.968 -24.759 -13.434  0.00  0.00    +0.200 C 
ATOM     35  H   UNL     1      39.658 -25.519 -12.472  0.00  0.00    +0.156 HD
ATOM     36  H   UNL     1      38.228 -26.399 -12.168  0.00  0.00    +0.156 HD
ATOM     37  N   UNL     1      34.541 -24.422 -14.503  0.00  0.00    -0.335 N 
ATOM     38  H   UNL     1      34.113 -25.182 -14.047  0.00  0.00    +0.144 HD
ATOM     39  H   UNL     1      34.005 -23.824 -15.072  0.00  0.00    +0.144 HD
ENDBRANCH  24  29
ENDBRANCH  22  24
ENDBRANCH   1  22
TORSDOF 11
ENDMDL
