MODEL 1
REMARK VINA RESULT:     -12.1      0.000      0.000
REMARK  Name = 445579
REMARK  10 active torsions:
REMARK  status: ('A' for Active; 'I' for Inactive)
REMARK    1  A    between atoms: C_1  and  O_18
REMARK    2  A    between atoms: C_4  and  C_9
REMARK    3  A    between atoms: N_8  and  C_11
REMARK    4  A    between atoms: C_11  and  C_12
REMARK    5  A    between atoms: O_18  and  C_24
REMARK    6  A    between atoms: C_20  and  O_27
REMARK    7  A    between atoms: C_21  and  O_25
REMARK    8  A    between atoms: C_22  and  C_31
REMARK    9  A    between atoms: C_23  and  O_29
REMARK   10  A    between atoms: C_31  and  O_32
REMARK                            x       y       z     vdW  Elec       q    Type
REMARK                         _______ _______ _______ _____ _____    ______ ____
ROOT
ATOM      1  C   UNL     1      34.022 -23.355 -14.594  0.00  0.00    +0.142 C 
ATOM      2  C   UNL     1      34.255 -23.016 -15.923  0.00  0.00    +0.042 C 
ATOM      3  C   UNL     1      32.766 -23.164 -14.026  0.00  0.00    +0.037 C 
ATOM      4  C   UNL     1      33.222 -22.481 -16.693  0.00  0.00    +0.056 C 
ATOM      5  C   UNL     1      31.733 -22.630 -14.796  0.00  0.00    +0.003 C 
ATOM      6  C   UNL     1      31.961 -22.288 -16.129  0.00  0.00    +0.005 C 
ENDROOT
BRANCH   4   9
ATOM      7  O   UNL     1      33.912 -22.941 -18.899  0.00  0.00    -0.270 OA
ATOM      8  N   UNL     1      33.118 -20.823 -18.451  0.00  0.00    -0.297 N 
ATOM      9  C   UNL     1      33.460 -22.126 -18.083  0.00  0.00    +0.246 C 
ATOM     10  H   UNL     1      32.762 -20.215 -17.763  0.00  0.00    +0.150 HD
BRANCH   8  11
ATOM     11  C   UNL     1      33.265 -20.330 -19.802  0.00  0.00    +0.117 C 
BRANCH  11  12
ATOM     12  C   UNL     1      34.604 -19.687 -20.023  0.00  0.00    -0.003 C 
ATOM     13  C   UNL     1      34.706 -18.581 -20.859  0.00  0.00    -0.003 C 
ATOM     14  C   UNL     1      35.729 -20.204 -19.390  0.00  0.00    -0.003 C 
ATOM     15  C   UNL     1      35.950 -17.984 -21.065  0.00  0.00    -0.000 C 
ATOM     16  C   UNL     1      36.972 -19.606 -19.596  0.00  0.00    -0.000 C 
ATOM     17  C   UNL     1      37.082 -18.496 -20.433  0.00  0.00    -0.000 C 
ENDBRANCH  11  12
ENDBRANCH   8  11
ENDBRANCH   4   9
BRANCH   1  18
ATOM     18  O   UNL     1      35.036 -23.879 -13.839  0.00  0.00    -0.451 OA
BRANCH  18  24
ATOM     19  O   UNL     1      36.851 -22.565 -13.080  0.00  0.00    -0.316 OA
ATOM     20  C   UNL     1      37.975 -24.412 -11.941  0.00  0.00    +0.169 C 
ATOM     21  C   UNL     1      37.520 -25.363 -13.052  0.00  0.00    +0.173 C 
ATOM     22  C   UNL     1      37.000 -23.234 -11.818  0.00  0.00    +0.177 C 
ATOM     23  C   UNL     1      37.298 -24.590 -14.351  0.00  0.00    +0.210 C 
ATOM     24  C   UNL     1      36.353 -23.408 -14.121  0.00  0.00    +0.318 C 
BRANCH  21  25
ATOM     25  O   UNL     1      38.505 -26.369 -13.265  0.00  0.00    -0.379 OA
ATOM     26  H   UNL     1      38.418 -26.723 -14.165  0.00  0.00    +0.211 HD
ENDBRANCH  21  25
BRANCH  20  27
ATOM     27  O   UNL     1      39.276 -23.905 -12.248  0.00  0.00    -0.379 OA
ATOM     28  H   UNL     1      39.680 -24.452 -12.940  0.00  0.00    +0.211 HD
ENDBRANCH  20  27
BRANCH  23  29
ATOM     29  O   UNL     1      36.749 -25.445 -15.348  0.00  0.00    -0.377 OA
ATOM     30  H   UNL     1      35.983 -25.012 -15.759  0.00  0.00    +0.211 HD
ENDBRANCH  23  29
BRANCH  22  31
ATOM     31  C   UNL     1      37.470 -22.193 -10.808  0.00  0.00    +0.169 C 
BRANCH  31  32
ATOM     32  O   UNL     1      38.376 -21.315 -11.452  0.00  0.00    -0.379 OA
ATOM     33  H   UNL     1      38.266 -21.384 -12.412  0.00  0.00    +0.211 HD
ENDBRANCH  31  32
ENDBRANCH  22  31
ENDBRANCH  18  24
ENDBRANCH   1  18
TORSDOF 10
ENDMDL
MODEL 2
REMARK VINA RESULT:     -11.6      1.114      2.276
REMARK  Name = 445579
REMARK  10 active torsions:
REMARK  status: ('A' for Active; 'I' for Inactive)
REMARK    1  A    between atoms: C_1  and  O_18
REMARK    2  A    between atoms: C_4  and  C_9
REMARK    3  A    between atoms: N_8  and  C_11
REMARK    4  A    between atoms: C_11  and  C_12
REMARK    5  A    between atoms: O_18  and  C_24
REMARK    6  A    between atoms: C_20  and  O_27
REMARK    7  A    between atoms: C_21  and  O_25
REMARK    8  A    between atoms: C_22  and  C_31
REMARK    9  A    between atoms: C_23  and  O_29
REMARK   10  A    between atoms: C_31  and  O_32
REMARK                            x       y       z     vdW  Elec       q    Type
REMARK                         _______ _______ _______ _____ _____    ______ ____
ROOT
ATOM      1  C   UNL     1      34.333 -22.689 -14.758  0.00  0.00    +0.142 C 
ATOM      2  C   UNL     1      34.502 -22.400 -16.108  0.00  0.00    +0.042 C 
ATOM      3  C   UNL     1      33.057 -22.800 -14.213  0.00  0.00    +0.037 C 
ATOM      4  C   UNL     1      33.383 -22.218 -16.922  0.00  0.00    +0.056 C 
ATOM      5  C   UNL     1      31.940 -22.618 -15.027  0.00  0.00    +0.003 C 
ATOM      6  C   UNL     1      32.102 -22.328 -16.381  0.00  0.00    +0.005 C 
ENDROOT
BRANCH   4   9
ATOM      7  O   UNL     1      33.953 -22.767 -19.142  0.00  0.00    -0.270 OA
ATOM      8  N   UNL     1      33.210 -20.624 -18.732  0.00  0.00    -0.297 N 
ATOM      9  C   UNL     1      33.553 -21.917 -18.335  0.00  0.00    +0.246 C 
ATOM     10  H   UNL     1      32.897 -19.986 -18.049  0.00  0.00    +0.150 HD
BRANCH   8  11
ATOM     11  C   UNL     1      33.293 -20.180 -20.105  0.00  0.00    +0.117 C 
BRANCH  11  12
ATOM     12  C   UNL     1      34.598 -19.499 -20.398  0.00  0.00    -0.003 C 
ATOM     13  C   UNL     1      34.680 -18.592 -21.449  0.00  0.00    -0.003 C 
ATOM     14  C   UNL     1      35.713 -19.782 -19.616  0.00  0.00    -0.003 C 
ATOM     15  C   UNL     1      35.893 -17.959 -21.721  0.00  0.00    -0.000 C 
ATOM     16  C   UNL     1      36.925 -19.148 -19.889  0.00  0.00    -0.000 C 
ATOM     17  C   UNL     1      37.015 -18.237 -20.941  0.00  0.00    -0.000 C 
ENDBRANCH  11  12
ENDBRANCH   8  11
ENDBRANCH   4   9
BRANCH   1  18
ATOM     18  O   UNL     1      35.430 -22.867 -13.959  0.00  0.00    -0.451 OA
BRANCH  18  24
ATOM     19  O   UNL     1      36.602 -24.914 -13.770  0.00  0.00    -0.316 OA
ATOM     20  C   UNL     1      38.166 -24.096 -12.080  0.00  0.00    +0.169 C 
ATOM     21  C   UNL     1      37.045 -23.254 -11.462  0.00  0.00    +0.173 C 
ATOM     22  C   UNL     1      37.897 -24.325 -13.573  0.00  0.00    +0.177 C 
ATOM     23  C   UNL     1      35.685 -23.879 -11.770  0.00  0.00    +0.210 C 
ATOM     24  C   UNL     1      35.526 -24.114 -13.273  0.00  0.00    +0.318 C 
BRANCH  21  25
ATOM     25  O   UNL     1      37.218 -23.173 -10.051  0.00  0.00    -0.379 OA
ATOM     26  H   UNL     1      37.971 -22.595  -9.849  0.00  0.00    +0.211 HD
ENDBRANCH  21  25
BRANCH  20  27
ATOM     27  O   UNL     1      38.230 -25.363 -11.421  0.00  0.00    -0.379 OA
ATOM     28  H   UNL     1      37.961 -25.259 -10.495  0.00  0.00    +0.211 HD
ENDBRANCH  20  27
BRANCH  23  29
ATOM     29  O   UNL     1      34.636 -23.031 -11.313  0.00  0.00    -0.377 OA
ATOM     30  H   UNL     1      34.578 -22.250 -11.887  0.00  0.00    +0.211 HD
ENDBRANCH  23  29
BRANCH  22  31
ATOM     31  C   UNL     1      38.919 -25.259 -14.210  0.00  0.00    +0.169 C 
BRANCH  31  32
ATOM     32  O   UNL     1      38.544 -26.597 -13.935  0.00  0.00    -0.379 OA
ATOM     33  H   UNL     1      39.338 -27.128 -13.770  0.00  0.00    +0.211 HD
ENDBRANCH  31  32
ENDBRANCH  22  31
ENDBRANCH  18  24
ENDBRANCH   1  18
TORSDOF 10
ENDMDL
MODEL 3
REMARK VINA RESULT:     -11.3      2.064      3.666
REMARK  Name = 445579
REMARK  10 active torsions:
REMARK  status: ('A' for Active; 'I' for Inactive)
REMARK    1  A    between atoms: C_1  and  O_18
REMARK    2  A    between atoms: C_4  and  C_9
REMARK    3  A    between atoms: N_8  and  C_11
REMARK    4  A    between atoms: C_11  and  C_12
REMARK    5  A    between atoms: O_18  and  C_24
REMARK    6  A    between atoms: C_20  and  O_27
REMARK    7  A    between atoms: C_21  and  O_25
REMARK    8  A    between atoms: C_22  and  C_31
REMARK    9  A    between atoms: C_23  and  O_29
REMARK   10  A    between atoms: C_31  and  O_32
REMARK                            x       y       z     vdW  Elec       q    Type
REMARK                         _______ _______ _______ _____ _____    ______ ____
ROOT
ATOM      1  C   UNL     1      35.260 -22.023 -16.430  0.00  0.00    +0.142 C 
ATOM      2  C   UNL     1      36.060 -21.283 -17.295  0.00  0.00    +0.042 C 
ATOM      3  C   UNL     1      33.960 -22.366 -16.789  0.00  0.00    +0.037 C 
ATOM      4  C   UNL     1      35.555 -20.882 -18.532  0.00  0.00    +0.056 C 
ATOM      5  C   UNL     1      33.456 -21.966 -18.026  0.00  0.00    +0.003 C 
ATOM      6  C   UNL     1      34.253 -21.224 -18.898  0.00  0.00    +0.005 C 
ENDROOT
BRANCH   4   9
ATOM      7  O   UNL     1      37.477 -20.531 -19.850  0.00  0.00    -0.270 OA
ATOM      8  N   UNL     1      35.870 -18.879 -19.851  0.00  0.00    -0.297 N 
ATOM      9  C   UNL     1      36.387 -20.109 -19.441  0.00  0.00    +0.246 C 
ATOM     10  H   UNL     1      34.997 -18.590 -19.495  0.00  0.00    +0.150 HD
BRANCH   8  11
ATOM     11  C   UNL     1      36.562 -18.010 -20.775  0.00  0.00    +0.117 C 
BRANCH  11  12
ATOM     12  C   UNL     1      35.746 -17.733 -22.005  0.00  0.00    -0.003 C 
ATOM     13  C   UNL     1      35.074 -18.776 -22.633  0.00  0.00    -0.003 C 
ATOM     14  C   UNL     1      35.671 -16.437 -22.504  0.00  0.00    -0.003 C 
ATOM     15  C   UNL     1      34.316 -18.518 -23.776  0.00  0.00    -0.000 C 
ATOM     16  C   UNL     1      34.913 -16.181 -23.646  0.00  0.00    -0.000 C 
ATOM     17  C   UNL     1      34.236 -17.221 -24.282  0.00  0.00    -0.000 C 
ENDBRANCH  11  12
ENDBRANCH   8  11
ENDBRANCH   4   9
BRANCH   1  18
ATOM     18  O   UNL     1      35.756 -22.416 -15.216  0.00  0.00    -0.451 OA
BRANCH  18  24
ATOM     19  O   UNL     1      36.566 -24.602 -14.812  0.00  0.00    -0.316 OA
ATOM     20  C   UNL     1      37.089 -24.190 -12.460  0.00  0.00    +0.169 C 
ATOM     21  C   UNL     1      35.853 -23.293 -12.350  0.00  0.00    +0.173 C 
ATOM     22  C   UNL     1      37.607 -24.207 -13.904  0.00  0.00    +0.177 C 
ATOM     23  C   UNL     1      34.810 -23.701 -13.390  0.00  0.00    +0.210 C 
ATOM     24  C   UNL     1      35.428 -23.737 -14.790  0.00  0.00    +0.318 C 
BRANCH  21  25
ATOM     25  O   UNL     1      35.287 -23.400 -11.048  0.00  0.00    -0.379 OA
ATOM     26  H   UNL     1      34.604 -22.721 -10.934  0.00  0.00    +0.211 HD
ENDBRANCH  21  25
BRANCH  20  27
ATOM     27  O   UNL     1      36.747 -25.524 -12.076  0.00  0.00    -0.379 OA
ATOM     28  H   UNL     1      35.783 -25.630 -12.100  0.00  0.00    +0.211 HD
ENDBRANCH  20  27
BRANCH  23  29
ATOM     29  O   UNL     1      33.718 -22.788 -13.381  0.00  0.00    -0.377 OA
ATOM     30  H   UNL     1      33.034 -23.107 -12.770  0.00  0.00    +0.211 HD
ENDBRANCH  23  29
BRANCH  22  31
ATOM     31  C   UNL     1      38.765 -25.181 -14.095  0.00  0.00    +0.169 C 
BRANCH  31  32
ATOM     32  O   UNL     1      38.238 -26.489 -14.229  0.00  0.00    -0.379 OA
ATOM     33  H   UNL     1      37.321 -26.502 -13.918  0.00  0.00    +0.211 HD
ENDBRANCH  31  32
ENDBRANCH  22  31
ENDBRANCH  18  24
ENDBRANCH   1  18
TORSDOF 10
ENDMDL
MODEL 4
REMARK VINA RESULT:     -11.2      2.561      4.123
REMARK  Name = 445579
REMARK  10 active torsions:
REMARK  status: ('A' for Active; 'I' for Inactive)
REMARK    1  A    between atoms: C_1  and  O_18
REMARK    2  A    between atoms: C_4  and  C_9
REMARK    3  A    between atoms: N_8  and  C_11
REMARK    4  A    between atoms: C_11  and  C_12
REMARK    5  A    between atoms: O_18  and  C_24
REMARK    6  A    between atoms: C_20  and  O_27
REMARK    7  A    between atoms: C_21  and  O_25
REMARK    8  A    between atoms: C_22  and  C_31
REMARK    9  A    between atoms: C_23  and  O_29
REMARK   10  A    between atoms: C_31  and  O_32
REMARK                            x       y       z     vdW  Elec       q    Type
REMARK                         _______ _______ _______ _____ _____    ______ ____
ROOT
ATOM      1  C   UNL     1      35.253 -21.677 -17.656  0.00  0.00    +0.142 C 
ATOM      2  C   UNL     1      35.968 -20.782 -18.447  0.00  0.00    +0.042 C 
ATOM      3  C   UNL     1      33.880 -21.828 -17.825  0.00  0.00    +0.037 C 
ATOM      4  C   UNL     1      35.302 -20.029 -19.415  0.00  0.00    +0.056 C 
ATOM      5  C   UNL     1      33.216 -21.075 -18.793  0.00  0.00    +0.003 C 
ATOM      6  C   UNL     1      33.926 -20.177 -19.588  0.00  0.00    +0.005 C 
ENDROOT
BRANCH   4   9
ATOM      7  O   UNL     1      37.278 -19.003 -20.187  0.00  0.00    -0.270 OA
ATOM      8  N   UNL     1      35.287 -18.324 -21.130  0.00  0.00    -0.297 N 
ATOM      9  C   UNL     1      36.044 -19.093 -20.244  0.00  0.00    +0.246 C 
ATOM     10  H   UNL     1      34.308 -18.435 -21.135  0.00  0.00    +0.150 HD
BRANCH   8  11
ATOM     11  C   UNL     1      35.881 -17.373 -22.042  0.00  0.00    +0.117 C 
BRANCH  11  12
ATOM     12  C   UNL     1      35.396 -15.975 -21.790  0.00  0.00    -0.003 C 
ATOM     13  C   UNL     1      35.210 -15.108 -22.861  0.00  0.00    -0.003 C 
ATOM     14  C   UNL     1      35.137 -15.560 -20.488  0.00  0.00    -0.003 C 
ATOM     15  C   UNL     1      34.759 -13.808 -22.627  0.00  0.00    -0.000 C 
ATOM     16  C   UNL     1      34.686 -14.261 -20.255  0.00  0.00    -0.000 C 
ATOM     17  C   UNL     1      34.497 -13.385 -21.324  0.00  0.00    -0.000 C 
ENDBRANCH  11  12
ENDBRANCH   8  11
ENDBRANCH   4   9
BRANCH   1  18
ATOM     18  O   UNL     1      35.906 -22.415 -16.707  0.00  0.00    -0.451 OA
BRANCH  18  24
ATOM     19  O   UNL     1      34.969 -21.902 -14.595  0.00  0.00    -0.316 OA
ATOM     20  C   UNL     1      35.811 -23.921 -13.505  0.00  0.00    +0.169 C 
ATOM     21  C   UNL     1      37.090 -23.830 -14.343  0.00  0.00    +0.173 C 
ATOM     22  C   UNL     1      34.643 -23.256 -14.245  0.00  0.00    +0.177 C 
ATOM     23  C   UNL     1      37.348 -22.381 -14.757  0.00  0.00    +0.210 C 
ATOM     24  C   UNL     1      36.115 -21.788 -15.442  0.00  0.00    +0.318 C 
BRANCH  21  25
ATOM     25  O   UNL     1      38.201 -24.309 -13.590  0.00  0.00    -0.379 OA
ATOM     26  H   UNL     1      37.880 -24.798 -12.815  0.00  0.00    +0.211 HD
ENDBRANCH  21  25
BRANCH  20  27
ATOM     27  O   UNL     1      36.008 -23.252 -12.257  0.00  0.00    -0.379 OA
ATOM     28  H   UNL     1      36.003 -23.902 -11.538  0.00  0.00    +0.211 HD
ENDBRANCH  20  27
BRANCH  23  29
ATOM     29  O   UNL     1      38.460 -22.311 -15.644  0.00  0.00    -0.377 OA
ATOM     30  H   UNL     1      39.282 -22.428 -15.142  0.00  0.00    +0.211 HD
ENDBRANCH  23  29
BRANCH  22  31
ATOM     31  C   UNL     1      33.372 -23.212 -13.405  0.00  0.00    +0.169 C 
BRANCH  31  32
ATOM     32  O   UNL     1      33.380 -24.314 -12.514  0.00  0.00    -0.379 OA
ATOM     33  H   UNL     1      33.733 -24.034 -11.656  0.00  0.00    +0.211 HD
ENDBRANCH  31  32
ENDBRANCH  22  31
ENDBRANCH  18  24
ENDBRANCH   1  18
TORSDOF 10
ENDMDL
MODEL 5
REMARK VINA RESULT:     -10.9      2.013      3.322
REMARK  Name = 445579
REMARK  10 active torsions:
REMARK  status: ('A' for Active; 'I' for Inactive)
REMARK    1  A    between atoms: C_1  and  O_18
REMARK    2  A    between atoms: C_4  and  C_9
REMARK    3  A    between atoms: N_8  and  C_11
REMARK    4  A    between atoms: C_11  and  C_12
REMARK    5  A    between atoms: O_18  and  C_24
REMARK    6  A    between atoms: C_20  and  O_27
REMARK    7  A    between atoms: C_21  and  O_25
REMARK    8  A    between atoms: C_22  and  C_31
REMARK    9  A    between atoms: C_23  and  O_29
REMARK   10  A    between atoms: C_31  and  O_32
REMARK                            x       y       z     vdW  Elec       q    Type
REMARK                         _______ _______ _______ _____ _____    ______ ____
ROOT
ATOM      1  C   UNL     1      36.326 -22.037 -14.953  0.00  0.00    +0.142 C 
ATOM      2  C   UNL     1      35.378 -21.890 -15.960  0.00  0.00    +0.042 C 
ATOM      3  C   UNL     1      37.663 -21.732 -15.191  0.00  0.00    +0.037 C 
ATOM      4  C   UNL     1      35.771 -21.433 -17.219  0.00  0.00    +0.056 C 
ATOM      5  C   UNL     1      38.054 -21.275 -16.449  0.00  0.00    +0.003 C 
ATOM      6  C   UNL     1      37.109 -21.126 -17.463  0.00  0.00    +0.005 C 
ENDROOT
BRANCH   4   9
ATOM      7  O   UNL     1      33.834 -22.062 -18.407  0.00  0.00    -0.270 OA
ATOM      8  N   UNL     1      34.950 -20.172 -19.113  0.00  0.00    -0.297 N 
ATOM      9  C   UNL     1      34.783 -21.277 -18.276  0.00  0.00    +0.246 C 
ATOM     10  H   UNL     1      35.722 -19.579 -18.964  0.00  0.00    +0.150 HD
BRANCH   8  11
ATOM     11  C   UNL     1      34.035 -19.863 -20.188  0.00  0.00    +0.117 C 
BRANCH  11  12
ATOM     12  C   UNL     1      34.568 -18.785 -21.087  0.00  0.00    -0.003 C 
ATOM     13  C   UNL     1      34.382 -18.882 -22.461  0.00  0.00    -0.003 C 
ATOM     14  C   UNL     1      35.244 -17.702 -20.537  0.00  0.00    -0.003 C 
ATOM     15  C   UNL     1      34.878 -17.881 -23.297  0.00  0.00    -0.000 C 
ATOM     16  C   UNL     1      35.739 -16.701 -21.373  0.00  0.00    -0.000 C 
ATOM     17  C   UNL     1      35.556 -16.790 -22.752  0.00  0.00    -0.000 C 
ENDBRANCH  11  12
ENDBRANCH   8  11
ENDBRANCH   4   9
BRANCH   1  18
ATOM     18  O   UNL     1      35.941 -22.485 -13.718  0.00  0.00    -0.451 OA
BRANCH  18  24
ATOM     19  O   UNL     1      36.848 -24.668 -13.826  0.00  0.00    -0.316 OA
ATOM     20  C   UNL     1      37.396 -24.776 -11.447  0.00  0.00    +0.169 C 
ATOM     21  C   UNL     1      36.126 -23.982 -11.126  0.00  0.00    +0.173 C 
ATOM     22  C   UNL     1      37.888 -24.444 -12.861  0.00  0.00    +0.177 C 
ATOM     23  C   UNL     1      35.082 -24.191 -12.223  0.00  0.00    +0.210 C 
ATOM     24  C   UNL     1      35.676 -23.882 -13.599  0.00  0.00    +0.318 C 
BRANCH  21  25
ATOM     25  O   UNL     1      35.588 -24.406  -9.877  0.00  0.00    -0.379 OA
ATOM     26  H   UNL     1      36.312 -24.638  -9.274  0.00  0.00    +0.211 HD
ENDBRANCH  21  25
BRANCH  20  27
ATOM     27  O   UNL     1      37.116 -26.176 -11.372  0.00  0.00    -0.379 OA
ATOM     28  H   UNL     1      36.602 -26.445 -12.150  0.00  0.00    +0.211 HD
ENDBRANCH  20  27
BRANCH  23  29
ATOM     29  O   UNL     1      33.954 -23.352 -11.998  0.00  0.00    -0.377 OA
ATOM     30  H   UNL     1      33.141 -23.839 -12.210  0.00  0.00    +0.211 HD
ENDBRANCH  23  29
BRANCH  22  31
ATOM     31  C   UNL     1      39.081 -25.297 -13.277  0.00  0.00    +0.169 C 
BRANCH  31  32
ATOM     32  O   UNL     1      38.600 -26.500 -13.849  0.00  0.00    -0.379 OA
ATOM     33  H   UNL     1      37.634 -26.459 -13.924  0.00  0.00    +0.211 HD
ENDBRANCH  31  32
ENDBRANCH  22  31
ENDBRANCH  18  24
ENDBRANCH   1  18
TORSDOF 10
ENDMDL
MODEL 6
REMARK VINA RESULT:     -10.7      1.703      2.569
REMARK  Name = 445579
REMARK  10 active torsions:
REMARK  status: ('A' for Active; 'I' for Inactive)
REMARK    1  A    between atoms: C_1  and  O_18
REMARK    2  A    between atoms: C_4  and  C_9
REMARK    3  A    between atoms: N_8  and  C_11
REMARK    4  A    between atoms: C_11  and  C_12
REMARK    5  A    between atoms: O_18  and  C_24
REMARK    6  A    between atoms: C_20  and  O_27
REMARK    7  A    between atoms: C_21  and  O_25
REMARK    8  A    between atoms: C_22  and  C_31
REMARK    9  A    between atoms: C_23  and  O_29
REMARK   10  A    between atoms: C_31  and  O_32
REMARK                            x       y       z     vdW  Elec       q    Type
REMARK                         _______ _______ _______ _____ _____    ______ ____
ROOT
ATOM      1  C   UNL     1      35.072 -22.434 -15.992  0.00  0.00    +0.142 C 
ATOM      2  C   UNL     1      35.957 -21.770 -16.836  0.00  0.00    +0.042 C 
ATOM      3  C   UNL     1      33.732 -22.573 -16.341  0.00  0.00    +0.037 C 
ATOM      4  C   UNL     1      35.497 -21.240 -18.042  0.00  0.00    +0.056 C 
ATOM      5  C   UNL     1      33.273 -22.044 -17.547  0.00  0.00    +0.003 C 
ATOM      6  C   UNL     1      34.155 -21.377 -18.397  0.00  0.00    +0.005 C 
ENDROOT
BRANCH   4   9
ATOM      7  O   UNL     1      37.505 -21.037 -19.258  0.00  0.00    -0.270 OA
ATOM      8  N   UNL     1      35.988 -19.308 -19.412  0.00  0.00    -0.297 N 
ATOM      9  C   UNL     1      36.417 -20.546 -18.929  0.00  0.00    +0.246 C 
ATOM     10  H   UNL     1      35.113 -18.963 -19.119  0.00  0.00    +0.150 HD
BRANCH   8  11
ATOM     11  C   UNL     1      36.775 -18.512 -20.327  0.00  0.00    +0.117 C 
BRANCH  11  12
ATOM     12  C   UNL     1      35.969 -18.048 -21.505  0.00  0.00    -0.003 C 
ATOM     13  C   UNL     1      35.930 -16.694 -21.821  0.00  0.00    -0.003 C 
ATOM     14  C   UNL     1      35.268 -18.975 -22.268  0.00  0.00    -0.003 C 
ATOM     15  C   UNL     1      35.180 -16.262 -22.915  0.00  0.00    -0.000 C 
ATOM     16  C   UNL     1      34.520 -18.543 -23.362  0.00  0.00    -0.000 C 
ATOM     17  C   UNL     1      34.476 -17.187 -23.686  0.00  0.00    -0.000 C 
ENDBRANCH  11  12
ENDBRANCH   8  11
ENDBRANCH   4   9
BRANCH   1  18
ATOM     18  O   UNL     1      35.523 -22.953 -14.809  0.00  0.00    -0.451 OA
BRANCH  18  24
ATOM     19  O   UNL     1      37.583 -22.512 -13.732  0.00  0.00    -0.316 OA
ATOM     20  C   UNL     1      37.305 -24.256 -12.043  0.00  0.00    +0.169 C 
ATOM     21  C   UNL     1      36.624 -25.147 -13.086  0.00  0.00    +0.173 C 
ATOM     22  C   UNL     1      37.114 -22.776 -12.401  0.00  0.00    +0.177 C 
ATOM     23  C   UNL     1      37.096 -24.771 -14.490  0.00  0.00    +0.210 C 
ATOM     24  C   UNL     1      36.911 -23.273 -14.739  0.00  0.00    +0.318 C 
BRANCH  21  25
ATOM     25  O   UNL     1      36.933 -26.515 -12.835  0.00  0.00    -0.379 OA
ATOM     26  H   UNL     1      37.702 -26.570 -12.246  0.00  0.00    +0.211 HD
ENDBRANCH  21  25
BRANCH  20  27
ATOM     27  O   UNL     1      38.704 -24.546 -12.007  0.00  0.00    -0.379 OA
ATOM     28  H   UNL     1      39.181 -23.794 -11.621  0.00  0.00    +0.211 HD
ENDBRANCH  20  27
BRANCH  23  29
ATOM     29  O   UNL     1      36.368 -25.505 -15.470  0.00  0.00    -0.377 OA
ATOM     30  H   UNL     1      36.722 -25.307 -16.351  0.00  0.00    +0.211 HD
ENDBRANCH  23  29
BRANCH  22  31
ATOM     31  C   UNL     1      37.874 -21.848 -11.461  0.00  0.00    +0.169 C 
BRANCH  31  32
ATOM     32  O   UNL     1      37.546 -22.188 -10.126  0.00  0.00    -0.379 OA
ATOM     33  H   UNL     1      37.035 -23.012 -10.117  0.00  0.00    +0.211 HD
ENDBRANCH  31  32
ENDBRANCH  22  31
ENDBRANCH  18  24
ENDBRANCH   1  18
TORSDOF 10
ENDMDL
MODEL 7
REMARK VINA RESULT:     -10.4      2.094      5.458
REMARK  Name = 445579
REMARK  10 active torsions:
REMARK  status: ('A' for Active; 'I' for Inactive)
REMARK    1  A    between atoms: C_1  and  O_18
REMARK    2  A    between atoms: C_4  and  C_9
REMARK    3  A    between atoms: N_8  and  C_11
REMARK    4  A    between atoms: C_11  and  C_12
REMARK    5  A    between atoms: O_18  and  C_24
REMARK    6  A    between atoms: C_20  and  O_27
REMARK    7  A    between atoms: C_21  and  O_25
REMARK    8  A    between atoms: C_22  and  C_31
REMARK    9  A    between atoms: C_23  and  O_29
REMARK   10  A    between atoms: C_31  and  O_32
REMARK                            x       y       z     vdW  Elec       q    Type
REMARK                         _______ _______ _______ _____ _____    ______ ____
ROOT
ATOM      1  C   UNL     1      36.562 -21.990 -15.555  0.00  0.00    +0.142 C 
ATOM      2  C   UNL     1      35.225 -22.149 -15.910  0.00  0.00    +0.042 C 
ATOM      3  C   UNL     1      37.463 -21.409 -16.442  0.00  0.00    +0.037 C 
ATOM      4  C   UNL     1      34.787 -21.725 -17.165  0.00  0.00    +0.056 C 
ATOM      5  C   UNL     1      37.024 -20.985 -17.696  0.00  0.00    +0.003 C 
ATOM      6  C   UNL     1      35.687 -21.142 -18.057  0.00  0.00    +0.005 C 
ENDROOT
BRANCH   4   9
ATOM      7  O   UNL     1      33.040 -21.993 -18.724  0.00  0.00    -0.270 OA
ATOM      8  N   UNL     1      32.476 -21.954 -16.489  0.00  0.00    -0.297 N 
ATOM      9  C   UNL     1      33.392 -21.889 -17.540  0.00  0.00    +0.246 C 
ATOM     10  H   UNL     1      32.809 -21.866 -15.566  0.00  0.00    +0.150 HD
BRANCH   8  11
ATOM     11  C   UNL     1      31.059 -22.146 -16.698  0.00  0.00    +0.117 C 
BRANCH  11  12
ATOM     12  C   UNL     1      30.466 -23.092 -15.695  0.00  0.00    -0.003 C 
ATOM     13  C   UNL     1      31.287 -23.696 -14.750  0.00  0.00    -0.003 C 
ATOM     14  C   UNL     1      29.100 -23.354 -15.720  0.00  0.00    -0.003 C 
ATOM     15  C   UNL     1      30.736 -24.576 -13.818  0.00  0.00    -0.000 C 
ATOM     16  C   UNL     1      28.550 -24.232 -14.787  0.00  0.00    -0.000 C 
ATOM     17  C   UNL     1      29.367 -24.843 -13.836  0.00  0.00    -0.000 C 
ENDBRANCH  11  12
ENDBRANCH   8  11
ENDBRANCH   4   9
BRANCH   1  18
ATOM     18  O   UNL     1      36.992 -22.406 -14.325  0.00  0.00    -0.451 OA
BRANCH  18  24
ATOM     19  O   UNL     1      37.732 -24.638 -14.055  0.00  0.00    -0.316 OA
ATOM     20  C   UNL     1      38.391 -24.350 -11.719  0.00  0.00    +0.169 C 
ATOM     21  C   UNL     1      37.200 -23.411 -11.507  0.00  0.00    +0.173 C 
ATOM     22  C   UNL     1      38.833 -24.324 -13.188  0.00  0.00    +0.177 C 
ATOM     23  C   UNL     1      36.089 -23.733 -12.506  0.00  0.00    +0.210 C 
ATOM     24  C   UNL     1      36.632 -23.731 -13.937  0.00  0.00    +0.318 C 
BRANCH  21  25
ATOM     25  O   UNL     1      36.697 -23.553 -10.182  0.00  0.00    -0.379 OA
ATOM     26  H   UNL     1      37.433 -23.721  -9.572  0.00  0.00    +0.211 HD
ENDBRANCH  21  25
BRANCH  20  27
ATOM     27  O   UNL     1      38.014 -25.685 -11.373  0.00  0.00    -0.379 OA
ATOM     28  H   UNL     1      38.407 -25.920 -10.518  0.00  0.00    +0.211 HD
ENDBRANCH  20  27
BRANCH  23  29
ATOM     29  O   UNL     1      35.037 -22.779 -12.401  0.00  0.00    -0.377 OA
ATOM     30  H   UNL     1      35.414 -21.898 -12.248  0.00  0.00    +0.211 HD
ENDBRANCH  23  29
BRANCH  22  31
ATOM     31  C   UNL     1      39.939 -25.332 -13.480  0.00  0.00    +0.169 C 
BRANCH  31  32
ATOM     32  O   UNL     1      39.353 -26.502 -14.022  0.00  0.00    -0.379 OA
ATOM     33  H   UNL     1      39.072 -27.087 -13.302  0.00  0.00    +0.211 HD
ENDBRANCH  31  32
ENDBRANCH  22  31
ENDBRANCH  18  24
ENDBRANCH   1  18
TORSDOF 10
ENDMDL
MODEL 8
REMARK VINA RESULT:     -10.3      1.334      2.137
REMARK  Name = 445579
REMARK  10 active torsions:
REMARK  status: ('A' for Active; 'I' for Inactive)
REMARK    1  A    between atoms: C_1  and  O_18
REMARK    2  A    between atoms: C_4  and  C_9
REMARK    3  A    between atoms: N_8  and  C_11
REMARK    4  A    between atoms: C_11  and  C_12
REMARK    5  A    between atoms: O_18  and  C_24
REMARK    6  A    between atoms: C_20  and  O_27
REMARK    7  A    between atoms: C_21  and  O_25
REMARK    8  A    between atoms: C_22  and  C_31
REMARK    9  A    between atoms: C_23  and  O_29
REMARK   10  A    between atoms: C_31  and  O_32
REMARK                            x       y       z     vdW  Elec       q    Type
REMARK                         _______ _______ _______ _____ _____    ______ ____
ROOT
ATOM      1  C   UNL     1      34.004 -23.251 -14.531  0.00  0.00    +0.142 C 
ATOM      2  C   UNL     1      34.214 -22.944 -15.872  0.00  0.00    +0.042 C 
ATOM      3  C   UNL     1      32.753 -23.063 -13.951  0.00  0.00    +0.037 C 
ATOM      4  C   UNL     1      33.163 -22.443 -16.640  0.00  0.00    +0.056 C 
ATOM      5  C   UNL     1      31.702 -22.563 -14.720  0.00  0.00    +0.003 C 
ATOM      6  C   UNL     1      31.907 -22.253 -16.064  0.00  0.00    +0.005 C 
ENDROOT
BRANCH   4   9
ATOM      7  O   UNL     1      33.775 -22.967 -18.855  0.00  0.00    -0.270 OA
ATOM      8  N   UNL     1      33.075 -20.813 -18.425  0.00  0.00    -0.297 N 
ATOM      9  C   UNL     1      33.376 -22.121 -18.043  0.00  0.00    +0.246 C 
ATOM     10  H   UNL     1      32.761 -20.180 -17.739  0.00  0.00    +0.150 HD
BRANCH   8  11
ATOM     11  C   UNL     1      33.205 -20.348 -19.788  0.00  0.00    +0.117 C 
BRANCH  11  12
ATOM     12  C   UNL     1      34.523 -19.672 -20.028  0.00  0.00    -0.003 C 
ATOM     13  C   UNL     1      35.684 -20.221 -19.497  0.00  0.00    -0.003 C 
ATOM     14  C   UNL     1      34.569 -18.502 -20.779  0.00  0.00    -0.003 C 
ATOM     15  C   UNL     1      36.910 -19.591 -19.720  0.00  0.00    -0.000 C 
ATOM     16  C   UNL     1      35.794 -17.875 -21.002  0.00  0.00    -0.000 C 
ATOM     17  C   UNL     1      36.964 -18.419 -20.473  0.00  0.00    -0.000 C 
ENDBRANCH  11  12
ENDBRANCH   8  11
ENDBRANCH   4   9
BRANCH   1  18
ATOM     18  O   UNL     1      35.035 -23.741 -13.777  0.00  0.00    -0.451 OA
BRANCH  18  24
ATOM     19  O   UNL     1      36.667 -23.574 -15.483  0.00  0.00    -0.316 OA
ATOM     20  C   UNL     1      38.442 -22.805 -13.989  0.00  0.00    +0.169 C 
ATOM     21  C   UNL     1      37.898 -23.719 -12.886  0.00  0.00    +0.173 C 
ATOM     22  C   UNL     1      37.316 -22.408 -14.952  0.00  0.00    +0.177 C 
ATOM     23  C   UNL     1      37.148 -24.900 -13.501  0.00  0.00    +0.210 C 
ATOM     24  C   UNL     1      36.080 -24.410 -14.482  0.00  0.00    +0.318 C 
BRANCH  21  25
ATOM     25  O   UNL     1      38.971 -24.208 -12.086  0.00  0.00    -0.379 OA
ATOM     26  H   UNL     1      38.821 -23.965 -11.159  0.00  0.00    +0.211 HD
ENDBRANCH  21  25
BRANCH  20  27
ATOM     27  O   UNL     1      39.457 -23.494 -14.723  0.00  0.00    -0.379 OA
ATOM     28  H   UNL     1      40.293 -23.454 -14.233  0.00  0.00    +0.211 HD
ENDBRANCH  20  27
BRANCH  23  29
ATOM     29  O   UNL     1      36.529 -25.678 -12.482  0.00  0.00    -0.377 OA
ATOM     30  H   UNL     1      35.583 -25.464 -12.441  0.00  0.00    +0.211 HD
ENDBRANCH  23  29
BRANCH  22  31
ATOM     31  C   UNL     1      37.825 -21.596 -16.137  0.00  0.00    +0.169 C 
BRANCH  31  32
ATOM     32  O   UNL     1      37.085 -20.390 -16.212  0.00  0.00    -0.379 OA
ATOM     33  H   UNL     1      36.377 -20.486 -16.867  0.00  0.00    +0.211 HD
ENDBRANCH  31  32
ENDBRANCH  22  31
ENDBRANCH  18  24
ENDBRANCH   1  18
TORSDOF 10
ENDMDL
MODEL 9
REMARK VINA RESULT:     -10.2      6.646     11.965
REMARK  Name = 445579
REMARK  10 active torsions:
REMARK  status: ('A' for Active; 'I' for Inactive)
REMARK    1  A    between atoms: C_1  and  O_18
REMARK    2  A    between atoms: C_4  and  C_9
REMARK    3  A    between atoms: N_8  and  C_11
REMARK    4  A    between atoms: C_11  and  C_12
REMARK    5  A    between atoms: O_18  and  C_24
REMARK    6  A    between atoms: C_20  and  O_27
REMARK    7  A    between atoms: C_21  and  O_25
REMARK    8  A    between atoms: C_22  and  C_31
REMARK    9  A    between atoms: C_23  and  O_29
REMARK   10  A    between atoms: C_31  and  O_32
REMARK                            x       y       z     vdW  Elec       q    Type
REMARK                         _______ _______ _______ _____ _____    ______ ____
ROOT
ATOM      1  C   UNL     1      34.688 -15.738 -23.903  0.00  0.00    +0.142 C 
ATOM      2  C   UNL     1      35.202 -16.113 -22.664  0.00  0.00    +0.042 C 
ATOM      3  C   UNL     1      34.176 -16.695 -24.773  0.00  0.00    +0.037 C 
ATOM      4  C   UNL     1      35.203 -17.458 -22.294  0.00  0.00    +0.056 C 
ATOM      5  C   UNL     1      34.178 -18.040 -24.402  0.00  0.00    +0.003 C 
ATOM      6  C   UNL     1      34.691 -18.421 -23.163  0.00  0.00    +0.005 C 
ENDROOT
BRANCH   4   9
ATOM      7  O   UNL     1      35.837 -17.056 -20.060  0.00  0.00    -0.270 OA
ATOM      8  N   UNL     1      36.102 -19.196 -20.872  0.00  0.00    -0.297 N 
ATOM      9  C   UNL     1      35.738 -17.855 -21.001  0.00  0.00    +0.246 C 
ATOM     10  H   UNL     1      36.002 -19.790 -21.652  0.00  0.00    +0.150 HD
BRANCH   8  11
ATOM     11  C   UNL     1      36.619 -19.751 -19.642  0.00  0.00    +0.117 C 
BRANCH  11  12
ATOM     12  C   UNL     1      35.577 -20.533 -18.897  0.00  0.00    -0.003 C 
ATOM     13  C   UNL     1      34.259 -20.520 -19.340  0.00  0.00    -0.003 C 
ATOM     14  C   UNL     1      35.939 -21.263 -17.770  0.00  0.00    -0.003 C 
ATOM     15  C   UNL     1      33.291 -21.247 -18.646  0.00  0.00    -0.000 C 
ATOM     16  C   UNL     1      34.971 -21.990 -17.078  0.00  0.00    -0.000 C 
ATOM     17  C   UNL     1      33.647 -21.982 -17.516  0.00  0.00    -0.000 C 
ENDBRANCH  11  12
ENDBRANCH   8  11
ENDBRANCH   4   9
BRANCH   1  18
ATOM     18  O   UNL     1      34.687 -14.419 -24.266  0.00  0.00    -0.451 OA
BRANCH  18  24
ATOM     19  O   UNL     1      33.014 -13.521 -22.853  0.00  0.00    -0.316 OA
ATOM     20  C   UNL     1      34.000 -11.286 -22.770  0.00  0.00    +0.169 C 
ATOM     21  C   UNL     1      34.433 -11.431 -24.232  0.00  0.00    +0.173 C 
ATOM     22  C   UNL     1      33.895 -12.666 -22.108  0.00  0.00    +0.177 C 
ATOM     23  C   UNL     1      33.515 -12.413 -24.960  0.00  0.00    +0.210 C 
ATOM     24  C   UNL     1      33.434 -13.740 -24.203  0.00  0.00    +0.318 C 
BRANCH  21  25
ATOM     25  O   UNL     1      34.380 -10.166 -24.884  0.00  0.00    -0.379 OA
ATOM     26  H   UNL     1      35.270  -9.916 -25.178  0.00  0.00    +0.211 HD
ENDBRANCH  21  25
BRANCH  20  27
ATOM     27  O   UNL     1      32.723 -10.647 -22.712  0.00  0.00    -0.379 OA
ATOM     28  H   UNL     1      32.336 -10.777 -21.832  0.00  0.00    +0.211 HD
ENDBRANCH  20  27
BRANCH  23  29
ATOM     29  O   UNL     1      33.993 -12.652 -26.280  0.00  0.00    -0.377 OA
ATOM     30  H   UNL     1      33.294 -13.075 -26.805  0.00  0.00    +0.211 HD
ENDBRANCH  23  29
BRANCH  22  31
ATOM     31  C   UNL     1      33.351 -12.588 -20.686  0.00  0.00    +0.169 C 
BRANCH  31  32
ATOM     32  O   UNL     1      31.939 -12.697 -20.735  0.00  0.00    -0.379 OA
ATOM     33  H   UNL     1      31.559 -12.340 -19.918  0.00  0.00    +0.211 HD
ENDBRANCH  31  32
ENDBRANCH  22  31
ENDBRANCH  18  24
ENDBRANCH   1  18
TORSDOF 10
ENDMDL
