MODEL 1
REMARK VINA RESULT:     -11.7      0.000      0.000
REMARK  Name = 10453870
REMARK  8 active torsions:
REMARK  status: ('A' for Active; 'I' for Inactive)
REMARK    1  A    between atoms: C_2  and  C_12
REMARK    2  A    between atoms: C_5  and  C_23
REMARK    3  A    between atoms: C_9  and  O_14
REMARK    4  A    between atoms: C_10  and  O_16
REMARK    5  A    between atoms: C_11  and  O_18
REMARK    6  A    between atoms: C_13  and  C_20
REMARK    7  A    between atoms: C_20  and  O_21
REMARK    8  A    between atoms: C_23  and  C_25
REMARK                            x       y       z     vdW  Elec       q    Type
REMARK                         _______ _______ _______ _____ _____    ______ ____
ROOT
ATOM      1  F   UNL     1      31.037 -22.080 -16.904  0.00  0.00    -0.204 F 
ATOM      2  C   UNL     1      34.230 -22.920 -14.426  0.00  0.00    +0.007 C 
ATOM      3  C   UNL     1      34.382 -23.019 -15.808  0.00  0.00    -0.004 C 
ATOM      4  C   UNL     1      33.005 -22.539 -13.881  0.00  0.00    +0.000 C 
ATOM      5  C   UNL     1      33.305 -22.735 -16.648  0.00  0.00    +0.010 C 
ATOM      6  C   UNL     1      31.928 -22.255 -14.722  0.00  0.00    +0.029 C 
ATOM      7  C   UNL     1      32.078 -22.354 -16.105  0.00  0.00    +0.136 C 
ENDROOT
BRANCH   2  12
ATOM      8  O   UNL     1      36.185 -24.247 -14.140  0.00  0.00    -0.347 OA
ATOM      9  C   UNL     1      34.938 -23.675 -12.118  0.00  0.00    +0.171 C 
ATOM     10  C   UNL     1      36.127 -24.133 -11.268  0.00  0.00    +0.169 C 
ATOM     11  C   UNL     1      37.014 -25.115 -12.034  0.00  0.00    +0.169 C 
ATOM     12  C   UNL     1      35.400 -23.228 -13.513  0.00  0.00    +0.167 C 
ATOM     13  C   UNL     1      37.374 -24.558 -13.412  0.00  0.00    +0.174 C 
BRANCH   9  14
ATOM     14  O   UNL     1      34.304 -22.572 -11.471  0.00  0.00    -0.379 OA
ATOM     15  H   UNL     1      33.374 -22.789 -11.300  0.00  0.00    +0.211 HD
ENDBRANCH   9  14
BRANCH  10  16
ATOM     16  O   UNL     1      35.646 -24.795 -10.096  0.00  0.00    -0.379 OA
ATOM     17  H   UNL     1      36.395 -25.158  -9.599  0.00  0.00    +0.211 HD
ENDBRANCH  10  16
BRANCH  11  18
ATOM     18  O   UNL     1      38.209 -25.346 -11.293  0.00  0.00    -0.379 OA
ATOM     19  H   UNL     1      38.135 -24.928 -10.421  0.00  0.00    +0.211 HD
ENDBRANCH  11  18
BRANCH  13  20
ATOM     20  C   UNL     1      38.167 -25.565 -14.239  0.00  0.00    +0.169 C 
BRANCH  20  21
ATOM     21  O   UNL     1      37.364 -25.988 -15.327  0.00  0.00    -0.379 OA
ATOM     22  H   UNL     1      36.848 -25.237 -15.658  0.00  0.00    +0.211 HD
ENDBRANCH  20  21
ENDBRANCH  13  20
ENDBRANCH   2  12
BRANCH   5  23
ATOM     23  C   UNL     1      33.468 -22.842 -18.127  0.00  0.00    +0.061 C 
BRANCH  23  25
ATOM     24  S   UNL     1      33.260 -20.456 -19.485  0.00  0.00    -0.091 S 
ATOM     25  C   UNL     1      34.185 -21.657 -18.743  0.00  0.00    +0.012 C 
ATOM     26  C   UNL     1      35.517 -21.433 -18.775  0.00  0.00    +0.003 C 
ATOM     27  C   UNL     1      35.833 -20.204 -19.443  0.00  0.00    +0.006 C 
ATOM     28  C   UNL     1      34.675 -19.558 -19.888  0.00  0.00    +0.029 C 
ATOM     29  C   UNL     1      37.083 -19.590 -19.700  0.00  0.00    +0.001 C 
ATOM     30  C   UNL     1      34.736 -18.330 -20.576  0.00  0.00    +0.006 C 
ATOM     31  C   UNL     1      37.145 -18.371 -20.381  0.00  0.00    +0.000 C 
ATOM     32  C   UNL     1      35.982 -17.749 -20.814  0.00  0.00    +0.001 C 
ENDBRANCH  23  25
ENDBRANCH   5  23
TORSDOF 8
ENDMDL
MODEL 2
REMARK VINA RESULT:     -11.4      1.189      2.407
REMARK  Name = 10453870
REMARK  8 active torsions:
REMARK  status: ('A' for Active; 'I' for Inactive)
REMARK    1  A    between atoms: C_2  and  C_12
REMARK    2  A    between atoms: C_5  and  C_23
REMARK    3  A    between atoms: C_9  and  O_14
REMARK    4  A    between atoms: C_10  and  O_16
REMARK    5  A    between atoms: C_11  and  O_18
REMARK    6  A    between atoms: C_13  and  C_20
REMARK    7  A    between atoms: C_20  and  O_21
REMARK    8  A    between atoms: C_23  and  C_25
REMARK                            x       y       z     vdW  Elec       q    Type
REMARK                         _______ _______ _______ _____ _____    ______ ____
ROOT
ATOM      1  F   UNL     1      31.073 -21.797 -16.398  0.00  0.00    -0.204 F 
ATOM      2  C   UNL     1      34.386 -23.329 -14.468  0.00  0.00    +0.007 C 
ATOM      3  C   UNL     1      34.344 -23.309 -15.862  0.00  0.00    -0.004 C 
ATOM      4  C   UNL     1      33.313 -22.834 -13.729  0.00  0.00    +0.000 C 
ATOM      5  C   UNL     1      33.226 -22.791 -16.517  0.00  0.00    +0.010 C 
ATOM      6  C   UNL     1      32.196 -22.316 -14.384  0.00  0.00    +0.029 C 
ATOM      7  C   UNL     1      32.152 -22.296 -15.778  0.00  0.00    +0.136 C 
ENDROOT
BRANCH   2  12
ATOM      8  O   UNL     1      36.233 -22.813 -13.060  0.00  0.00    -0.347 OA
ATOM      9  C   UNL     1      36.579 -24.560 -14.732  0.00  0.00    +0.171 C 
ATOM     10  C   UNL     1      37.868 -24.976 -14.016  0.00  0.00    +0.169 C 
ATOM     11  C   UNL     1      38.430 -23.832 -13.172  0.00  0.00    +0.169 C 
ATOM     12  C   UNL     1      35.600 -23.891 -13.756  0.00  0.00    +0.167 C 
ATOM     13  C   UNL     1      37.344 -23.239 -12.271  0.00  0.00    +0.174 C 
BRANCH   9  14
ATOM     14  O   UNL     1      35.957 -25.723 -15.278  0.00  0.00    -0.379 OA
ATOM     15  H   UNL     1      35.176 -25.462 -15.790  0.00  0.00    +0.211 HD
ENDBRANCH   9  14
BRANCH  10  16
ATOM     16  O   UNL     1      38.855 -25.335 -14.985  0.00  0.00    -0.379 OA
ATOM     17  H   UNL     1      39.638 -24.775 -14.872  0.00  0.00    +0.211 HD
ENDBRANCH  10  16
BRANCH  11  18
ATOM     18  O   UNL     1      39.496 -24.322 -12.365  0.00  0.00    -0.379 OA
ATOM     19  H   UNL     1      40.050 -23.580 -12.075  0.00  0.00    +0.211 HD
ENDBRANCH  11  18
BRANCH  13  20
ATOM     20  C   UNL     1      37.852 -22.025 -11.500  0.00  0.00    +0.169 C 
BRANCH  20  21
ATOM     21  O   UNL     1      37.503 -22.179 -10.136  0.00  0.00    -0.379 OA
ATOM     22  H   UNL     1      37.800 -21.403  -9.637  0.00  0.00    +0.211 HD
ENDBRANCH  20  21
ENDBRANCH  13  20
ENDBRANCH   2  12
BRANCH   5  23
ATOM     23  C   UNL     1      33.183 -22.771 -18.008  0.00  0.00    +0.061 C 
BRANCH  23  25
ATOM     24  S   UNL     1      33.200 -20.423 -19.445  0.00  0.00    -0.091 S 
ATOM     25  C   UNL     1      34.005 -21.656 -18.621  0.00  0.00    +0.012 C 
ATOM     26  C   UNL     1      35.350 -21.519 -18.590  0.00  0.00    +0.003 C 
ATOM     27  C   UNL     1      35.779 -20.336 -19.278  0.00  0.00    +0.006 C 
ATOM     28  C   UNL     1      34.690 -19.632 -19.802  0.00  0.00    +0.029 C 
ATOM     29  C   UNL     1      37.078 -19.812 -19.487  0.00  0.00    +0.001 C 
ATOM     30  C   UNL     1      34.865 -18.434 -20.522  0.00  0.00    +0.006 C 
ATOM     31  C   UNL     1      37.254 -18.623 -20.201  0.00  0.00    +0.000 C 
ATOM     32  C   UNL     1      36.157 -17.943 -20.712  0.00  0.00    +0.001 C 
ENDBRANCH  23  25
ENDBRANCH   5  23
TORSDOF 8
ENDMDL
MODEL 3
REMARK VINA RESULT:     -11.2      2.542      4.541
REMARK  Name = 10453870
REMARK  8 active torsions:
REMARK  status: ('A' for Active; 'I' for Inactive)
REMARK    1  A    between atoms: C_2  and  C_12
REMARK    2  A    between atoms: C_5  and  C_23
REMARK    3  A    between atoms: C_9  and  O_14
REMARK    4  A    between atoms: C_10  and  O_16
REMARK    5  A    between atoms: C_11  and  O_18
REMARK    6  A    between atoms: C_13  and  C_20
REMARK    7  A    between atoms: C_20  and  O_21
REMARK    8  A    between atoms: C_23  and  C_25
REMARK                            x       y       z     vdW  Elec       q    Type
REMARK                         _______ _______ _______ _____ _____    ______ ____
ROOT
ATOM      1  F   UNL     1      33.663 -19.313 -20.902  0.00  0.00    -0.204 F 
ATOM      2  C   UNL     1      34.775 -21.620 -17.664  0.00  0.00    +0.007 C 
ATOM      3  C   UNL     1      35.748 -20.944 -18.399  0.00  0.00    -0.004 C 
ATOM      4  C   UNL     1      33.432 -21.518 -18.020  0.00  0.00    +0.000 C 
ATOM      5  C   UNL     1      35.375 -20.164 -19.494  0.00  0.00    +0.010 C 
ATOM      6  C   UNL     1      33.059 -20.737 -19.114  0.00  0.00    +0.029 C 
ATOM      7  C   UNL     1      34.031 -20.060 -19.852  0.00  0.00    +0.136 C 
ENDROOT
BRANCH   2  12
ATOM      8  O   UNL     1      34.066 -22.518 -15.577  0.00  0.00    -0.347 OA
ATOM      9  C   UNL     1      36.425 -21.911 -15.769  0.00  0.00    +0.171 C 
ATOM     10  C   UNL     1      36.719 -22.688 -14.481  0.00  0.00    +0.169 C 
ATOM     11  C   UNL     1      35.463 -22.836 -13.622  0.00  0.00    +0.169 C 
ATOM     12  C   UNL     1      35.179 -22.468 -16.475  0.00  0.00    +0.167 C 
ATOM     13  C   UNL     1      34.296 -23.370 -14.454  0.00  0.00    +0.174 C 
BRANCH   9  14
ATOM     14  O   UNL     1      37.542 -22.033 -16.649  0.00  0.00    -0.379 OA
ATOM     15  H   UNL     1      38.102 -22.771 -16.361  0.00  0.00    +0.211 HD
ENDBRANCH   9  14
BRANCH  10  16
ATOM     16  O   UNL     1      37.697 -21.984 -13.715  0.00  0.00    -0.379 OA
ATOM     17  H   UNL     1      38.181 -21.372 -14.291  0.00  0.00    +0.211 HD
ENDBRANCH  10  16
BRANCH  11  18
ATOM     18  O   UNL     1      35.729 -23.737 -12.552  0.00  0.00    -0.379 OA
ATOM     19  H   UNL     1      36.179 -24.525 -12.896  0.00  0.00    +0.211 HD
ENDBRANCH  11  18
BRANCH  13  20
ATOM     20  C   UNL     1      33.004 -23.423 -13.646  0.00  0.00    +0.169 C 
BRANCH  20  21
ATOM     21  O   UNL     1      33.185 -22.675 -12.456  0.00  0.00    -0.379 OA
ATOM     22  H   UNL     1      32.323 -22.510 -12.045  0.00  0.00    +0.211 HD
ENDBRANCH  20  21
ENDBRANCH  13  20
ENDBRANCH   2  12
BRANCH   5  23
ATOM     23  C   UNL     1      36.417 -19.442 -20.279  0.00  0.00    +0.061 C 
BRANCH  23  25
ATOM     24  S   UNL     1      35.969 -17.714 -22.375  0.00  0.00    -0.091 S 
ATOM     25  C   UNL     1      35.989 -18.057 -20.723  0.00  0.00    +0.012 C 
ATOM     26  C   UNL     1      35.607 -17.028 -19.935  0.00  0.00    +0.003 C 
ATOM     27  C   UNL     1      35.270 -15.866 -20.707  0.00  0.00    +0.006 C 
ATOM     28  C   UNL     1      35.424 -16.105 -22.076  0.00  0.00    +0.029 C 
ATOM     29  C   UNL     1      34.826 -14.585 -20.297  0.00  0.00    +0.001 C 
ATOM     30  C   UNL     1      35.152 -15.108 -23.033  0.00  0.00    +0.006 C 
ATOM     31  C   UNL     1      34.555 -13.594 -21.245  0.00  0.00    +0.000 C 
ATOM     32  C   UNL     1      34.717 -13.855 -22.598  0.00  0.00    +0.001 C 
ENDBRANCH  23  25
ENDBRANCH   5  23
TORSDOF 8
ENDMDL
MODEL 4
REMARK VINA RESULT:     -11.1      8.155     12.446
REMARK  Name = 10453870
REMARK  8 active torsions:
REMARK  status: ('A' for Active; 'I' for Inactive)
REMARK    1  A    between atoms: C_2  and  C_12
REMARK    2  A    between atoms: C_5  and  C_23
REMARK    3  A    between atoms: C_9  and  O_14
REMARK    4  A    between atoms: C_10  and  O_16
REMARK    5  A    between atoms: C_11  and  O_18
REMARK    6  A    between atoms: C_13  and  C_20
REMARK    7  A    between atoms: C_20  and  O_21
REMARK    8  A    between atoms: C_23  and  C_25
REMARK                            x       y       z     vdW  Elec       q    Type
REMARK                         _______ _______ _______ _____ _____    ______ ____
ROOT
ATOM      1  F   UNL     1      34.778 -17.513 -24.745  0.00  0.00    -0.204 F 
ATOM      2  C   UNL     1      34.177 -13.862 -22.916  0.00  0.00    +0.007 C 
ATOM      3  C   UNL     1      35.134 -14.740 -22.410  0.00  0.00    -0.004 C 
ATOM      4  C   UNL     1      33.426 -14.214 -24.036  0.00  0.00    +0.000 C 
ATOM      5  C   UNL     1      35.340 -15.975 -23.026  0.00  0.00    +0.010 C 
ATOM      6  C   UNL     1      33.632 -15.448 -24.652  0.00  0.00    +0.029 C 
ATOM      7  C   UNL     1      34.588 -16.329 -24.147  0.00  0.00    +0.136 C 
ENDROOT
BRANCH   2  12
ATOM      8  O   UNL     1      32.802 -12.640 -21.406  0.00  0.00    -0.347 OA
ATOM      9  C   UNL     1      33.766 -11.391 -23.272  0.00  0.00    +0.171 C 
ATOM     10  C   UNL     1      33.383 -10.080 -22.579  0.00  0.00    +0.169 C 
ATOM     11  C   UNL     1      32.240 -10.289 -21.586  0.00  0.00    +0.169 C 
ATOM     12  C   UNL     1      33.954 -12.520 -22.247  0.00  0.00    +0.167 C 
ATOM     13  C   UNL     1      32.544 -11.458 -20.647  0.00  0.00    +0.174 C 
BRANCH   9  14
ATOM     14  O   UNL     1      34.995 -11.203 -23.974  0.00  0.00    -0.379 OA
ATOM     15  H   UNL     1      34.847 -11.327 -24.924  0.00  0.00    +0.211 HD
ENDBRANCH   9  14
BRANCH  10  16
ATOM     16  O   UNL     1      32.949  -9.135 -23.558  0.00  0.00    -0.379 OA
ATOM     17  H   UNL     1      33.329  -9.364 -24.421  0.00  0.00    +0.211 HD
ENDBRANCH  10  16
BRANCH  11  18
ATOM     18  O   UNL     1      32.062  -9.102 -20.817  0.00  0.00    -0.379 OA
ATOM     19  H   UNL     1      32.549  -9.182 -19.981  0.00  0.00    +0.211 HD
ENDBRANCH  11  18
BRANCH  13  20
ATOM     20  C   UNL     1      31.372 -11.756 -19.719  0.00  0.00    +0.169 C 
BRANCH  20  21
ATOM     21  O   UNL     1      30.251 -11.004 -20.151  0.00  0.00    -0.379 OA
ATOM     22  H   UNL     1      30.037 -10.332 -19.485  0.00  0.00    +0.211 HD
ENDBRANCH  20  21
ENDBRANCH  13  20
ENDBRANCH   2  12
BRANCH   5  23
ATOM     23  C   UNL     1      36.363 -16.914 -22.483  0.00  0.00    +0.061 C 
BRANCH  23  25
ATOM     24  S   UNL     1      36.849 -18.753 -20.494  0.00  0.00    -0.091 S 
ATOM     25  C   UNL     1      35.792 -17.948 -21.534  0.00  0.00    +0.012 C 
ATOM     26  C   UNL     1      34.498 -18.319 -21.410  0.00  0.00    +0.003 C 
ATOM     27  C   UNL     1      34.329 -19.327 -20.404  0.00  0.00    +0.006 C 
ATOM     28  C   UNL     1      35.552 -19.664 -19.814  0.00  0.00    +0.029 C 
ATOM     29  C   UNL     1      33.163 -19.992 -19.953  0.00  0.00    +0.001 C 
ATOM     30  C   UNL     1      35.636 -20.635 -18.797  0.00  0.00    +0.006 C 
ATOM     31  C   UNL     1      33.244 -20.956 -18.944  0.00  0.00    +0.000 C 
ATOM     32  C   UNL     1      34.469 -21.273 -18.374  0.00  0.00    +0.001 C 
ENDBRANCH  23  25
ENDBRANCH   5  23
TORSDOF 8
ENDMDL
MODEL 5
REMARK VINA RESULT:     -10.5      8.221     12.549
REMARK  Name = 10453870
REMARK  8 active torsions:
REMARK  status: ('A' for Active; 'I' for Inactive)
REMARK    1  A    between atoms: C_2  and  C_12
REMARK    2  A    between atoms: C_5  and  C_23
REMARK    3  A    between atoms: C_9  and  O_14
REMARK    4  A    between atoms: C_10  and  O_16
REMARK    5  A    between atoms: C_11  and  O_18
REMARK    6  A    between atoms: C_13  and  C_20
REMARK    7  A    between atoms: C_20  and  O_21
REMARK    8  A    between atoms: C_23  and  C_25
REMARK                            x       y       z     vdW  Elec       q    Type
REMARK                         _______ _______ _______ _____ _____    ______ ____
ROOT
ATOM      1  F   UNL     1      35.325 -17.978 -23.888  0.00  0.00    -0.204 F 
ATOM      2  C   UNL     1      33.949 -14.098 -23.580  0.00  0.00    +0.007 C 
ATOM      3  C   UNL     1      34.840 -14.594 -22.630  0.00  0.00    -0.004 C 
ATOM      4  C   UNL     1      33.524 -14.909 -24.631  0.00  0.00    +0.000 C 
ATOM      5  C   UNL     1      35.307 -15.905 -22.731  0.00  0.00    +0.010 C 
ATOM      6  C   UNL     1      33.991 -16.219 -24.733  0.00  0.00    +0.029 C 
ATOM      7  C   UNL     1      34.882 -16.718 -23.782  0.00  0.00    +0.136 C 
ENDROOT
BRANCH   2  12
ATOM      8  O   UNL     1      34.486 -11.805 -23.918  0.00  0.00    -0.347 OA
ATOM      9  C   UNL     1      33.016 -12.325 -22.037  0.00  0.00    +0.171 C 
ATOM     10  C   UNL     1      32.661 -10.840 -21.917  0.00  0.00    +0.169 C 
ATOM     11  C   UNL     1      33.744  -9.957 -22.536  0.00  0.00    +0.169 C 
ATOM     12  C   UNL     1      33.441 -12.675 -23.471  0.00  0.00    +0.167 C 
ATOM     13  C   UNL     1      34.090 -10.433 -23.948  0.00  0.00    +0.174 C 
BRANCH   9  14
ATOM     14  O   UNL     1      31.870 -13.105 -21.697  0.00  0.00    -0.379 OA
ATOM     15  H   UNL     1      31.246 -13.103 -22.439  0.00  0.00    +0.211 HD
ENDBRANCH   9  14
BRANCH  10  16
ATOM     16  O   UNL     1      32.541 -10.490 -20.537  0.00  0.00    -0.379 OA
ATOM     17  H   UNL     1      33.216 -10.961 -20.024  0.00  0.00    +0.211 HD
ENDBRANCH  10  16
BRANCH  11  18
ATOM     18  O   UNL     1      33.278  -8.611 -22.594  0.00  0.00    -0.379 OA
ATOM     19  H   UNL     1      32.797  -8.400 -21.779  0.00  0.00    +0.211 HD
ENDBRANCH  11  18
BRANCH  13  20
ATOM     20  C   UNL     1      35.245  -9.636 -24.545  0.00  0.00    +0.169 C 
BRANCH  20  21
ATOM     21  O   UNL     1      36.028  -9.113 -23.486  0.00  0.00    -0.379 OA
ATOM     22  H   UNL     1      35.465  -8.585 -22.899  0.00  0.00    +0.211 HD
ENDBRANCH  20  21
ENDBRANCH  13  20
ENDBRANCH   2  12
BRANCH   5  23
ATOM     23  C   UNL     1      36.260 -16.434 -21.713  0.00  0.00    +0.061 C 
BRANCH  23  25
ATOM     24  S   UNL     1      36.884 -18.730 -20.328  0.00  0.00    -0.091 S 
ATOM     25  C   UNL     1      35.754 -17.670 -20.996  0.00  0.00    +0.012 C 
ATOM     26  C   UNL     1      34.467 -18.044 -20.819  0.00  0.00    +0.003 C 
ATOM     27  C   UNL     1      34.368 -19.275 -20.090  0.00  0.00    +0.006 C 
ATOM     28  C   UNL     1      35.633 -19.768 -19.753  0.00  0.00    +0.029 C 
ATOM     29  C   UNL     1      33.231 -20.018 -19.688  0.00  0.00    +0.001 C 
ATOM     30  C   UNL     1      35.787 -20.969 -19.034  0.00  0.00    +0.006 C 
ATOM     31  C   UNL     1      33.382 -21.210 -18.974  0.00  0.00    +0.000 C 
ATOM     32  C   UNL     1      34.648 -21.679 -18.652  0.00  0.00    +0.001 C 
ENDBRANCH  23  25
ENDBRANCH   5  23
TORSDOF 8
ENDMDL
MODEL 6
REMARK VINA RESULT:     -10.3      3.313      6.950
REMARK  Name = 10453870
REMARK  8 active torsions:
REMARK  status: ('A' for Active; 'I' for Inactive)
REMARK    1  A    between atoms: C_2  and  C_12
REMARK    2  A    between atoms: C_5  and  C_23
REMARK    3  A    between atoms: C_9  and  O_14
REMARK    4  A    between atoms: C_10  and  O_16
REMARK    5  A    between atoms: C_11  and  O_18
REMARK    6  A    between atoms: C_13  and  C_20
REMARK    7  A    between atoms: C_20  and  O_21
REMARK    8  A    between atoms: C_23  and  C_25
REMARK                            x       y       z     vdW  Elec       q    Type
REMARK                         _______ _______ _______ _____ _____    ______ ____
ROOT
ATOM      1  F   UNL     1      36.597 -20.262 -19.068  0.00  0.00    -0.204 F 
ATOM      2  C   UNL     1      33.589 -22.219 -17.027  0.00  0.00    +0.007 C 
ATOM      3  C   UNL     1      34.861 -22.124 -16.463  0.00  0.00    -0.004 C 
ATOM      4  C   UNL     1      33.333 -21.655 -18.275  0.00  0.00    +0.000 C 
ATOM      5  C   UNL     1      35.879 -21.463 -17.150  0.00  0.00    +0.010 C 
ATOM      6  C   UNL     1      34.352 -20.993 -18.962  0.00  0.00    +0.029 C 
ATOM      7  C   UNL     1      35.625 -20.898 -18.400  0.00  0.00    +0.136 C 
ENDROOT
BRANCH   2  12
ATOM      8  O   UNL     1      31.268 -22.211 -16.500  0.00  0.00    -0.347 OA
ATOM      9  C   UNL     1      32.785 -23.054 -14.779  0.00  0.00    +0.171 C 
ATOM     10  C   UNL     1      31.587 -23.636 -14.023  0.00  0.00    +0.169 C 
ATOM     11  C   UNL     1      30.290 -22.919 -14.398  0.00  0.00    +0.169 C 
ATOM     12  C   UNL     1      32.483 -22.937 -16.281  0.00  0.00    +0.167 C 
ATOM     13  C   UNL     1      30.130 -22.847 -15.918  0.00  0.00    +0.174 C 
BRANCH   9  14
ATOM     14  O   UNL     1      33.907 -23.919 -14.605  0.00  0.00    -0.379 OA
ATOM     15  H   UNL     1      34.724 -23.430 -14.791  0.00  0.00    +0.211 HD
ENDBRANCH   9  14
BRANCH  10  16
ATOM     16  O   UNL     1      31.789 -23.476 -12.618  0.00  0.00    -0.379 OA
ATOM     17  H   UNL     1      32.178 -22.605 -12.444  0.00  0.00    +0.211 HD
ENDBRANCH  10  16
BRANCH  11  18
ATOM     18  O   UNL     1      29.184 -23.624 -13.841  0.00  0.00    -0.379 OA
ATOM     19  H   UNL     1      28.376 -23.395 -14.327  0.00  0.00    +0.211 HD
ENDBRANCH  11  18
BRANCH  13  20
ATOM     20  C   UNL     1      28.899 -22.040 -16.319  0.00  0.00    +0.169 C 
BRANCH  20  21
ATOM     21  O   UNL     1      28.153 -22.793 -17.259  0.00  0.00    -0.379 OA
ATOM     22  H   UNL     1      28.645 -22.847 -18.093  0.00  0.00    +0.211 HD
ENDBRANCH  20  21
ENDBRANCH  13  20
ENDBRANCH   2  12
BRANCH   5  23
ATOM     23  C   UNL     1      37.239 -21.363 -16.546  0.00  0.00    +0.061 C 
BRANCH  23  25
ATOM     24  S   UNL     1      38.541 -23.261 -15.035  0.00  0.00    -0.091 S 
ATOM     25  C   UNL     1      37.360 -22.068 -15.210  0.00  0.00    +0.012 C 
ATOM     26  C   UNL     1      36.616 -21.855 -14.102  0.00  0.00    +0.003 C 
ATOM     27  C   UNL     1      37.016 -22.709 -13.022  0.00  0.00    +0.006 C 
ATOM     28  C   UNL     1      38.074 -23.542 -13.399  0.00  0.00    +0.029 C 
ATOM     29  C   UNL     1      36.516 -22.820 -11.701  0.00  0.00    +0.001 C 
ATOM     30  C   UNL     1      38.637 -24.471 -12.502  0.00  0.00    +0.006 C 
ATOM     31  C   UNL     1      37.073 -23.740 -10.809  0.00  0.00    +0.000 C 
ATOM     32  C   UNL     1      38.122 -24.557 -11.207  0.00  0.00    +0.001 C 
ENDBRANCH  23  25
ENDBRANCH   5  23
TORSDOF 8
ENDMDL
MODEL 7
REMARK VINA RESULT:     -10.3      6.204      9.681
REMARK  Name = 10453870
REMARK  8 active torsions:
REMARK  status: ('A' for Active; 'I' for Inactive)
REMARK    1  A    between atoms: C_2  and  C_12
REMARK    2  A    between atoms: C_5  and  C_23
REMARK    3  A    between atoms: C_9  and  O_14
REMARK    4  A    between atoms: C_10  and  O_16
REMARK    5  A    between atoms: C_11  and  O_18
REMARK    6  A    between atoms: C_13  and  C_20
REMARK    7  A    between atoms: C_20  and  O_21
REMARK    8  A    between atoms: C_23  and  C_25
REMARK                            x       y       z     vdW  Elec       q    Type
REMARK                         _______ _______ _______ _____ _____    ______ ____
ROOT
ATOM      1  F   UNL     1      33.859 -14.626 -25.498  0.00  0.00    -0.204 F 
ATOM      2  C   UNL     1      34.924 -17.611 -22.852  0.00  0.00    +0.007 C 
ATOM      3  C   UNL     1      35.288 -16.291 -22.590  0.00  0.00    -0.004 C 
ATOM      4  C   UNL     1      34.203 -17.923 -24.004  0.00  0.00    +0.000 C 
ATOM      5  C   UNL     1      34.929 -15.280 -23.482  0.00  0.00    +0.010 C 
ATOM      6  C   UNL     1      33.845 -16.911 -24.895  0.00  0.00    +0.029 C 
ATOM      7  C   UNL     1      34.208 -15.590 -24.635  0.00  0.00    +0.136 C 
ENDROOT
BRANCH   2  12
ATOM      8  O   UNL     1      34.146 -19.065 -21.136  0.00  0.00    -0.347 OA
ATOM      9  C   UNL     1      36.449 -18.272 -20.946  0.00  0.00    +0.171 C 
ATOM     10  C   UNL     1      36.716 -19.335 -19.876  0.00  0.00    +0.169 C 
ATOM     11  C   UNL     1      35.419 -19.785 -19.203  0.00  0.00    +0.169 C 
ATOM     12  C   UNL     1      35.314 -18.709 -21.884  0.00  0.00    +0.167 C 
ATOM     13  C   UNL     1      34.368 -20.161 -20.250  0.00  0.00    +0.174 C 
BRANCH   9  14
ATOM     14  O   UNL     1      37.635 -18.087 -21.720  0.00  0.00    -0.379 OA
ATOM     15  H   UNL     1      37.687 -18.774 -22.401  0.00  0.00    +0.211 HD
ENDBRANCH   9  14
BRANCH  10  16
ATOM     16  O   UNL     1      37.569 -18.790 -18.867  0.00  0.00    -0.379 OA
ATOM     17  H   UNL     1      38.335 -18.367 -19.285  0.00  0.00    +0.211 HD
ENDBRANCH  10  16
BRANCH  11  18
ATOM     18  O   UNL     1      35.684 -20.913 -18.376  0.00  0.00    -0.379 OA
ATOM     19  H   UNL     1      34.876 -21.440 -18.277  0.00  0.00    +0.211 HD
ENDBRANCH  11  18
BRANCH  13  20
ATOM     20  C   UNL     1      33.030 -20.509 -19.606  0.00  0.00    +0.169 C 
BRANCH  20  21
ATOM     21  O   UNL     1      33.112 -21.818 -19.072  0.00  0.00    -0.379 OA
ATOM     22  H   UNL     1      33.912 -22.253 -19.404  0.00  0.00    +0.211 HD
ENDBRANCH  20  21
ENDBRANCH  13  20
ENDBRANCH   2  12
BRANCH   5  23
ATOM     23  C   UNL     1      35.319 -13.868 -23.200  0.00  0.00    +0.061 C 
BRANCH  23  25
ATOM     24  S   UNL     1      33.698 -11.654 -22.980  0.00  0.00    -0.091 S 
ATOM     25  C   UNL     1      34.297 -13.111 -22.376  0.00  0.00    +0.012 C 
ATOM     26  C   UNL     1      33.787 -13.469 -21.176  0.00  0.00    +0.003 C 
ATOM     27  C   UNL     1      32.839 -12.506 -20.694  0.00  0.00    +0.006 C 
ATOM     28  C   UNL     1      32.691 -11.446 -21.595  0.00  0.00    +0.029 C 
ATOM     29  C   UNL     1      32.076 -12.481 -19.501  0.00  0.00    +0.001 C 
ATOM     30  C   UNL     1      31.812 -10.377 -21.336  0.00  0.00    +0.006 C 
ATOM     31  C   UNL     1      31.203 -11.421 -19.242  0.00  0.00    +0.000 C 
ATOM     32  C   UNL     1      31.074 -10.381 -20.151  0.00  0.00    +0.001 C 
ENDBRANCH  23  25
ENDBRANCH   5  23
TORSDOF 8
ENDMDL
MODEL 8
REMARK VINA RESULT:     -10.2      2.361      3.632
REMARK  Name = 10453870
REMARK  8 active torsions:
REMARK  status: ('A' for Active; 'I' for Inactive)
REMARK    1  A    between atoms: C_2  and  C_12
REMARK    2  A    between atoms: C_5  and  C_23
REMARK    3  A    between atoms: C_9  and  O_14
REMARK    4  A    between atoms: C_10  and  O_16
REMARK    5  A    between atoms: C_11  and  O_18
REMARK    6  A    between atoms: C_13  and  C_20
REMARK    7  A    between atoms: C_20  and  O_21
REMARK    8  A    between atoms: C_23  and  C_25
REMARK                            x       y       z     vdW  Elec       q    Type
REMARK                         _______ _______ _______ _____ _____    ______ ____
ROOT
ATOM      1  F   UNL     1      34.148 -20.414 -20.523  0.00  0.00    -0.204 F 
ATOM      2  C   UNL     1      35.616 -21.588 -16.847  0.00  0.00    +0.007 C 
ATOM      3  C   UNL     1      36.453 -20.936 -17.751  0.00  0.00    -0.004 C 
ATOM      4  C   UNL     1      34.287 -21.843 -17.183  0.00  0.00    +0.000 C 
ATOM      5  C   UNL     1      35.960 -20.537 -18.994  0.00  0.00    +0.010 C 
ATOM      6  C   UNL     1      33.794 -21.445 -18.426  0.00  0.00    +0.029 C 
ATOM      7  C   UNL     1      34.631 -20.792 -19.332  0.00  0.00    +0.136 C 
ENDROOT
BRANCH   2  12
ATOM      8  O   UNL     1      37.333 -22.794 -15.725  0.00  0.00    -0.347 OA
ATOM      9  C   UNL     1      35.115 -22.829 -14.701  0.00  0.00    +0.171 C 
ATOM     10  C   UNL     1      35.729 -23.390 -13.415  0.00  0.00    +0.169 C 
ATOM     11  C   UNL     1      37.062 -24.085 -13.692  0.00  0.00    +0.169 C 
ATOM     12  C   UNL     1      36.151 -22.021 -15.497  0.00  0.00    +0.167 C 
ATOM     13  C   UNL     1      37.983 -23.183 -14.515  0.00  0.00    +0.174 C 
BRANCH   9  14
ATOM     14  O   UNL     1      34.029 -21.968 -14.359  0.00  0.00    -0.379 OA
ATOM     15  H   UNL     1      33.585 -22.307 -13.566  0.00  0.00    +0.211 HD
ENDBRANCH   9  14
BRANCH  10  16
ATOM     16  O   UNL     1      34.840 -24.353 -12.845  0.00  0.00    -0.379 OA
ATOM     17  H   UNL     1      35.014 -24.432 -11.895  0.00  0.00    +0.211 HD
ENDBRANCH  10  16
BRANCH  11  18
ATOM     18  O   UNL     1      37.694 -24.400 -12.455  0.00  0.00    -0.379 OA
ATOM     19  H   UNL     1      38.606 -24.689 -12.621  0.00  0.00    +0.211 HD
ENDBRANCH  11  18
BRANCH  13  20
ATOM     20  C   UNL     1      39.276 -23.895 -14.898  0.00  0.00    +0.169 C 
BRANCH  20  21
ATOM     21  O   UNL     1      40.115 -23.952 -13.757  0.00  0.00    -0.379 OA
ATOM     22  H   UNL     1      40.443 -24.857 -13.643  0.00  0.00    +0.211 HD
ENDBRANCH  20  21
ENDBRANCH  13  20
ENDBRANCH   2  12
BRANCH   5  23
ATOM     23  C   UNL     1      36.858 -19.840 -19.960  0.00  0.00    +0.061 C 
BRANCH  23  25
ATOM     24  S   UNL     1      36.217 -18.222 -22.093  0.00  0.00    -0.091 S 
ATOM     25  C   UNL     1      36.317 -18.505 -20.432  0.00  0.00    +0.012 C 
ATOM     26  C   UNL     1      35.890 -17.478 -19.665  0.00  0.00    +0.003 C 
ATOM     27  C   UNL     1      35.444 -16.371 -20.461  0.00  0.00    +0.006 C 
ATOM     28  C   UNL     1      35.569 -16.646 -21.827  0.00  0.00    +0.029 C 
ATOM     29  C   UNL     1      34.925 -15.110 -20.077  0.00  0.00    +0.001 C 
ATOM     30  C   UNL     1      35.194 -15.704 -22.805  0.00  0.00    +0.006 C 
ATOM     31  C   UNL     1      34.552 -14.175 -21.046  0.00  0.00    +0.000 C 
ATOM     32  C   UNL     1      34.686 -14.471 -22.395  0.00  0.00    +0.001 C 
ENDBRANCH  23  25
ENDBRANCH   5  23
TORSDOF 8
ENDMDL
MODEL 9
REMARK VINA RESULT:     -10.1      8.016     12.335
REMARK  Name = 10453870
REMARK  8 active torsions:
REMARK  status: ('A' for Active; 'I' for Inactive)
REMARK    1  A    between atoms: C_2  and  C_12
REMARK    2  A    between atoms: C_5  and  C_23
REMARK    3  A    between atoms: C_9  and  O_14
REMARK    4  A    between atoms: C_10  and  O_16
REMARK    5  A    between atoms: C_11  and  O_18
REMARK    6  A    between atoms: C_13  and  C_20
REMARK    7  A    between atoms: C_20  and  O_21
REMARK    8  A    between atoms: C_23  and  C_25
REMARK                            x       y       z     vdW  Elec       q    Type
REMARK                         _______ _______ _______ _____ _____    ______ ____
ROOT
ATOM      1  F   UNL     1      35.103 -19.398 -23.940  0.00  0.00    -0.204 F 
ATOM      2  C   UNL     1      34.003 -15.423 -24.117  0.00  0.00    +0.007 C 
ATOM      3  C   UNL     1      34.946 -15.840 -23.177  0.00  0.00    -0.004 C 
ATOM      4  C   UNL     1      33.434 -16.345 -24.993  0.00  0.00    +0.000 C 
ATOM      5  C   UNL     1      35.320 -17.182 -23.115  0.00  0.00    +0.010 C 
ATOM      6  C   UNL     1      33.808 -17.687 -24.931  0.00  0.00    +0.029 C 
ATOM      7  C   UNL     1      34.751 -18.106 -23.992  0.00  0.00    +0.136 C 
ENDROOT
BRANCH   2  12
ATOM      8  O   UNL     1      34.123 -13.422 -25.400  0.00  0.00    -0.347 OA
ATOM      9  C   UNL     1      34.101 -13.171 -22.970  0.00  0.00    +0.171 C 
ATOM     10  C   UNL     1      33.819 -11.675 -23.137  0.00  0.00    +0.169 C 
ATOM     11  C   UNL     1      34.273 -11.173 -24.508  0.00  0.00    +0.169 C 
ATOM     12  C   UNL     1      33.597 -13.965 -24.184  0.00  0.00    +0.167 C 
ATOM     13  C   UNL     1      33.725 -12.069 -25.621  0.00  0.00    +0.174 C 
BRANCH   9  14
ATOM     14  O   UNL     1      33.425 -13.642 -21.804  0.00  0.00    -0.379 OA
ATOM     15  H   UNL     1      33.946 -14.347 -21.391  0.00  0.00    +0.211 HD
ENDBRANCH   9  14
BRANCH  10  16
ATOM     16  O   UNL     1      34.535 -10.942 -22.141  0.00  0.00    -0.379 OA
ATOM     17  H   UNL     1      34.912 -11.558 -21.494  0.00  0.00    +0.211 HD
ENDBRANCH  10  16
BRANCH  11  18
ATOM     18  O   UNL     1      33.802  -9.842 -24.702  0.00  0.00    -0.379 OA
ATOM     19  H   UNL     1      32.962  -9.724 -24.231  0.00  0.00    +0.211 HD
ENDBRANCH  11  18
BRANCH  13  20
ATOM     20  C   UNL     1      34.253 -11.654 -26.991  0.00  0.00    +0.169 C 
BRANCH  20  21
ATOM     21  O   UNL     1      34.701 -12.813 -27.672  0.00  0.00    -0.379 OA
ATOM     22  H   UNL     1      35.226 -13.360 -27.068  0.00  0.00    +0.211 HD
ENDBRANCH  20  21
ENDBRANCH  13  20
ENDBRANCH   2  12
BRANCH   5  23
ATOM     23  C   UNL     1      36.328 -17.627 -22.110  0.00  0.00    +0.061 C 
BRANCH  23  25
ATOM     24  S   UNL     1      34.103 -18.804 -20.996  0.00  0.00    -0.091 S 
ATOM     25  C   UNL     1      35.775 -18.601 -21.090  0.00  0.00    +0.012 C 
ATOM     26  C   UNL     1      36.477 -19.355 -20.215  0.00  0.00    +0.003 C 
ATOM     27  C   UNL     1      35.616 -20.163 -19.400  0.00  0.00    +0.006 C 
ATOM     28  C   UNL     1      34.272 -19.959 -19.727  0.00  0.00    +0.029 C 
ATOM     29  C   UNL     1      35.922 -21.087 -18.371  0.00  0.00    +0.001 C 
ATOM     30  C   UNL     1      33.239 -20.645 -19.058  0.00  0.00    +0.006 C 
ATOM     31  C   UNL     1      34.899 -21.769 -17.707  0.00  0.00    +0.000 C 
ATOM     32  C   UNL     1      33.572 -21.548 -18.048  0.00  0.00    +0.001 C 
ENDBRANCH  23  25
ENDBRANCH   5  23
TORSDOF 8
ENDMDL
