MODEL 1
REMARK VINA RESULT:     -12.0      0.000      0.000
REMARK  Name = 6420159
REMARK  9 active torsions:
REMARK  status: ('A' for Active; 'I' for Inactive)
REMARK    1  A    between atoms: C_1  and  N_3
REMARK    2  A    between atoms: C_1  and  C_15
REMARK    3  A    between atoms: C_1  and  C_29
REMARK    4  A    between atoms: N_14  and  C_17
REMARK    5  A    between atoms: C_17  and  C_18
REMARK    6  A    between atoms: C_18  and  N_19
REMARK    7  A    between atoms: N_19  and  C_21
REMARK    8  A    between atoms: C_26  and  O_27
REMARK    9  A    between atoms: C_29  and  C_30
REMARK                            x       y       z     vdW  Elec       q    Type
REMARK                         _______ _______ _______ _____ _____    ______ ____
ROOT
ATOM      1  C   UNL     1      33.684 -22.762 -16.633  0.00  0.00    +0.151 C 
ENDROOT
BRANCH   1   3
ATOM      2  O   UNL     1      36.350 -22.490 -14.131  0.00  0.00    -0.414 OA
ATOM      3  N   UNL     1      34.647 -22.293 -15.659  0.00  0.00    -0.271 N 
ATOM      4  N   UNL     1      35.664 -24.408 -15.128  0.00  0.00    -0.356 NA
ATOM      5  C   UNL     1      35.536 -23.124 -15.001  0.00  0.00    +0.345 C 
ATOM      6  C   UNL     1      37.104 -23.515 -13.635  0.00  0.00    +0.175 C 
ATOM      7  C   UNL     1      36.681 -24.687 -14.247  0.00  0.00    +0.152 C 
ATOM      8  C   UNL     1      38.118 -23.439 -12.688  0.00  0.00    +0.040 C 
ATOM      9  C   UNL     1      37.306 -25.894 -13.904  0.00  0.00    +0.088 C 
ATOM     10  C   UNL     1      38.731 -24.652 -12.357  0.00  0.00    -0.001 C 
ATOM     11  C   UNL     1      38.335 -25.856 -12.951  0.00  0.00    -0.018 C 
ATOM     12  H   UNL     1      34.670 -21.331 -15.454  0.00  0.00    +0.153 HD
ENDBRANCH   1   3
BRANCH   1  15
ATOM     13  O   UNL     1      33.890 -23.043 -19.030  0.00  0.00    -0.273 OA
ATOM     14  N   UNL     1      35.010 -21.285 -18.015  0.00  0.00    -0.301 N 
ATOM     15  C   UNL     1      34.185 -22.400 -18.025  0.00  0.00    +0.240 C 
ATOM     16  H   UNL     1      35.190 -20.833 -17.160  0.00  0.00    +0.150 HD
BRANCH  14  17
ATOM     17  C   UNL     1      35.611 -20.765 -19.219  0.00  0.00    +0.111 C 
BRANCH  17  18
ATOM     18  C   UNL     1      34.752 -19.697 -19.877  0.00  0.00    +0.109 C 
BRANCH  18  19
ATOM     19  N   UNL     1      35.581 -18.653 -20.430  0.00  0.00    -0.331 N 
ATOM     20  H   UNL     1      36.387 -18.386 -19.931  0.00  0.00    +0.147 HD
BRANCH  19  21
ATOM     21  C   UNL     1      35.308 -18.004 -21.624  0.00  0.00    +0.045 C 
ATOM     22  C   UNL     1      35.570 -16.629 -21.775  0.00  0.00    +0.017 C 
ATOM     23  C   UNL     1      34.759 -18.701 -22.716  0.00  0.00    +0.017 C 
ATOM     24  C   UNL     1      35.294 -15.976 -22.976  0.00  0.00    +0.038 C 
ATOM     25  C   UNL     1      34.483 -18.047 -23.917  0.00  0.00    +0.038 C 
ATOM     26  C   UNL     1      34.750 -16.685 -24.046  0.00  0.00    +0.139 C 
BRANCH  26  27
ATOM     27  O   UNL     1      34.481 -16.048 -25.219  0.00  0.00    -0.471 OA
ATOM     28  C   UNL     1      33.752 -14.824 -25.142  0.00  0.00    +0.252 C 
ENDBRANCH  26  27
ENDBRANCH  19  21
ENDBRANCH  18  19
ENDBRANCH  17  18
ENDBRANCH  14  17
ENDBRANCH   1  15
BRANCH   1  29
ATOM     29  C   UNL     1      32.318 -22.120 -16.384  0.00  0.00    +0.029 C 
BRANCH  29  30
ATOM     30  C   UNL     1      31.262 -23.139 -15.962  0.00  0.00    +0.002 C 
ATOM     31  C   UNL     1      29.866 -22.502 -15.957  0.00  0.00    +0.000 C 
ATOM     32  C   UNL     1      31.597 -23.730 -14.586  0.00  0.00    +0.000 C 
ATOM     33  C   UNL     1      28.798 -23.487 -15.487  0.00  0.00    +0.000 C 
ATOM     34  C   UNL     1      30.526 -24.712 -14.118  0.00  0.00    +0.000 C 
ATOM     35  C   UNL     1      29.139 -24.078 -14.123  0.00  0.00    +0.000 C 
ENDBRANCH  29  30
ENDBRANCH   1  29
TORSDOF 9
ENDMDL
MODEL 2
REMARK VINA RESULT:     -11.8      0.913      1.332
REMARK  Name = 6420159
REMARK  9 active torsions:
REMARK  status: ('A' for Active; 'I' for Inactive)
REMARK    1  A    between atoms: C_1  and  N_3
REMARK    2  A    between atoms: C_1  and  C_15
REMARK    3  A    between atoms: C_1  and  C_29
REMARK    4  A    between atoms: N_14  and  C_17
REMARK    5  A    between atoms: C_17  and  C_18
REMARK    6  A    between atoms: C_18  and  N_19
REMARK    7  A    between atoms: N_19  and  C_21
REMARK    8  A    between atoms: C_26  and  O_27
REMARK    9  A    between atoms: C_29  and  C_30
REMARK                            x       y       z     vdW  Elec       q    Type
REMARK                         _______ _______ _______ _____ _____    ______ ____
ROOT
ATOM      1  C   UNL     1      33.735 -22.721 -16.696  0.00  0.00    +0.151 C 
ENDROOT
BRANCH   1   3
ATOM      2  O   UNL     1      36.342 -22.389 -14.140  0.00  0.00    -0.414 OA
ATOM      3  N   UNL     1      34.684 -22.227 -15.721  0.00  0.00    -0.271 N 
ATOM      4  N   UNL     1      35.632 -24.337 -15.057  0.00  0.00    -0.356 NA
ATOM      5  C   UNL     1      35.534 -23.046 -14.998  0.00  0.00    +0.345 C 
ATOM      6  C   UNL     1      37.056 -23.406 -13.572  0.00  0.00    +0.175 C 
ATOM      7  C   UNL     1      36.619 -24.596 -14.137  0.00  0.00    +0.152 C 
ATOM      8  C   UNL     1      38.047 -23.307 -12.604  0.00  0.00    +0.040 C 
ATOM      9  C   UNL     1      37.203 -25.799 -13.717  0.00  0.00    +0.088 C 
ATOM     10  C   UNL     1      38.619 -24.516 -12.196  0.00  0.00    -0.001 C 
ATOM     11  C   UNL     1      38.207 -25.739 -12.740  0.00  0.00    -0.018 C 
ATOM     12  H   UNL     1      34.727 -21.257 -15.563  0.00  0.00    +0.153 HD
ENDBRANCH   1   3
BRANCH   1  15
ATOM     13  O   UNL     1      33.899 -22.975 -19.100  0.00  0.00    -0.273 OA
ATOM     14  N   UNL     1      35.122 -21.295 -18.072  0.00  0.00    -0.301 N 
ATOM     15  C   UNL     1      34.239 -22.365 -18.088  0.00  0.00    +0.240 C 
ATOM     16  H   UNL     1      35.336 -20.866 -17.212  0.00  0.00    +0.150 HD
BRANCH  14  17
ATOM     17  C   UNL     1      35.737 -20.790 -19.276  0.00  0.00    +0.111 C 
BRANCH  17  18
ATOM     18  C   UNL     1      35.027 -19.556 -19.810  0.00  0.00    +0.109 C 
BRANCH  18  19
ATOM     19  N   UNL     1      35.986 -18.538 -20.168  0.00  0.00    -0.331 N 
ATOM     20  H   UNL     1      36.934 -18.695 -19.950  0.00  0.00    +0.147 HD
BRANCH  19  21
ATOM     21  C   UNL     1      35.649 -17.351 -20.800  0.00  0.00    +0.045 C 
ATOM     22  C   UNL     1      35.662 -17.253 -22.204  0.00  0.00    +0.017 C 
ATOM     23  C   UNL     1      35.288 -16.213 -20.056  0.00  0.00    +0.017 C 
ATOM     24  C   UNL     1      35.325 -16.058 -22.841  0.00  0.00    +0.038 C 
ATOM     25  C   UNL     1      34.951 -15.019 -20.693  0.00  0.00    +0.038 C 
ATOM     26  C   UNL     1      34.969 -14.941 -22.085  0.00  0.00    +0.139 C 
BRANCH  26  27
ATOM     27  O   UNL     1      34.639 -13.776 -22.705  0.00  0.00    -0.471 OA
ATOM     28  C   UNL     1      33.893 -13.874 -23.917  0.00  0.00    +0.252 C 
ENDBRANCH  26  27
ENDBRANCH  19  21
ENDBRANCH  18  19
ENDBRANCH  17  18
ENDBRANCH  14  17
ENDBRANCH   1  15
BRANCH   1  29
ATOM     29  C   UNL     1      32.358 -22.098 -16.462  0.00  0.00    +0.029 C 
BRANCH  29  30
ATOM     30  C   UNL     1      31.330 -23.118 -15.978  0.00  0.00    +0.002 C 
ATOM     31  C   UNL     1      29.922 -22.507 -15.968  0.00  0.00    +0.000 C 
ATOM     32  C   UNL     1      31.704 -23.649 -14.587  0.00  0.00    +0.000 C 
ATOM     33  C   UNL     1      28.883 -23.493 -15.437  0.00  0.00    +0.000 C 
ATOM     34  C   UNL     1      30.663 -24.631 -14.059  0.00  0.00    +0.000 C 
ATOM     35  C   UNL     1      29.264 -24.023 -14.059  0.00  0.00    +0.000 C 
ENDBRANCH  29  30
ENDBRANCH   1  29
TORSDOF 9
ENDMDL
MODEL 3
REMARK VINA RESULT:     -11.4      3.162      7.407
REMARK  Name = 6420159
REMARK  9 active torsions:
REMARK  status: ('A' for Active; 'I' for Inactive)
REMARK    1  A    between atoms: C_1  and  N_3
REMARK    2  A    between atoms: C_1  and  C_15
REMARK    3  A    between atoms: C_1  and  C_29
REMARK    4  A    between atoms: N_14  and  C_17
REMARK    5  A    between atoms: C_17  and  C_18
REMARK    6  A    between atoms: C_18  and  N_19
REMARK    7  A    between atoms: N_19  and  C_21
REMARK    8  A    between atoms: C_26  and  O_27
REMARK    9  A    between atoms: C_29  and  C_30
REMARK                            x       y       z     vdW  Elec       q    Type
REMARK                         _______ _______ _______ _____ _____    ______ ____
ROOT
ATOM      1  C   UNL     1      33.844 -22.342 -16.487  0.00  0.00    +0.151 C 
ENDROOT
BRANCH   1   3
ATOM      2  O   UNL     1      36.031 -24.778 -14.838  0.00  0.00    -0.414 OA
ATOM      3  N   UNL     1      34.581 -23.528 -16.106  0.00  0.00    -0.271 N 
ATOM      4  N   UNL     1      35.730 -22.626 -14.194  0.00  0.00    -0.356 NA
ATOM      5  C   UNL     1      35.441 -23.579 -15.023  0.00  0.00    +0.345 C 
ATOM      6  C   UNL     1      36.806 -24.557 -13.734  0.00  0.00    +0.175 C 
ATOM      7  C   UNL     1      36.618 -23.239 -13.343  0.00  0.00    +0.152 C 
ATOM      8  C   UNL     1      37.641 -25.462 -13.092  0.00  0.00    +0.040 C 
ATOM      9  C   UNL     1      37.310 -22.760 -12.222  0.00  0.00    +0.088 C 
ATOM     10  C   UNL     1      38.324 -24.969 -11.975  0.00  0.00    -0.001 C 
ATOM     11  C   UNL     1      38.163 -23.645 -11.547  0.00  0.00    -0.018 C 
ATOM     12  H   UNL     1      34.465 -24.342 -16.647  0.00  0.00    +0.153 HD
ENDBRANCH   1   3
BRANCH   1  15
ATOM     13  O   UNL     1      31.441 -22.032 -16.473  0.00  0.00    -0.273 OA
ATOM     14  N   UNL     1      32.453 -22.974 -14.612  0.00  0.00    -0.301 N 
ATOM     15  C   UNL     1      32.447 -22.424 -15.885  0.00  0.00    +0.240 C 
ATOM     16  H   UNL     1      33.309 -23.262 -14.220  0.00  0.00    +0.150 HD
BRANCH  14  17
ATOM     17  C   UNL     1      31.243 -23.140 -13.843  0.00  0.00    +0.111 C 
BRANCH  17  18
ATOM     18  C   UNL     1      30.797 -24.592 -13.777  0.00  0.00    +0.109 C 
BRANCH  18  19
ATOM     19  N   UNL     1      29.537 -24.764 -14.461  0.00  0.00    -0.331 N 
ATOM     20  H   UNL     1      29.146 -25.667 -14.495  0.00  0.00    +0.147 HD
BRANCH  19  21
ATOM     21  C   UNL     1      28.846 -23.730 -15.074  0.00  0.00    +0.045 C 
ATOM     22  C   UNL     1      28.427 -22.606 -14.338  0.00  0.00    +0.017 C 
ATOM     23  C   UNL     1      28.544 -23.777 -16.447  0.00  0.00    +0.017 C 
ATOM     24  C   UNL     1      27.730 -21.566 -14.953  0.00  0.00    +0.038 C 
ATOM     25  C   UNL     1      27.847 -22.737 -17.063  0.00  0.00    +0.038 C 
ATOM     26  C   UNL     1      27.440 -21.632 -16.316  0.00  0.00    +0.139 C 
BRANCH  26  27
ATOM     27  O   UNL     1      26.762 -20.618 -16.918  0.00  0.00    -0.471 OA
ATOM     28  C   UNL     1      25.958 -20.953 -18.048  0.00  0.00    +0.252 C 
ENDBRANCH  26  27
ENDBRANCH  19  21
ENDBRANCH  18  19
ENDBRANCH  17  18
ENDBRANCH  14  17
ENDBRANCH   1  15
BRANCH   1  29
ATOM     29  C   UNL     1      33.754 -22.237 -18.010  0.00  0.00    +0.029 C 
BRANCH  29  30
ATOM     30  C   UNL     1      34.377 -20.950 -18.545  0.00  0.00    +0.002 C 
ATOM     31  C   UNL     1      33.552 -20.393 -19.713  0.00  0.00    +0.000 C 
ATOM     32  C   UNL     1      35.833 -21.187 -18.970  0.00  0.00    +0.000 C 
ATOM     33  C   UNL     1      34.185 -19.133 -20.300  0.00  0.00    +0.000 C 
ATOM     34  C   UNL     1      36.461 -19.927 -19.558  0.00  0.00    +0.000 C 
ATOM     35  C   UNL     1      35.633 -19.371 -20.713  0.00  0.00    +0.000 C 
ENDBRANCH  29  30
ENDBRANCH   1  29
TORSDOF 9
ENDMDL
MODEL 4
REMARK VINA RESULT:     -11.2      1.389      5.204
REMARK  Name = 6420159
REMARK  9 active torsions:
REMARK  status: ('A' for Active; 'I' for Inactive)
REMARK    1  A    between atoms: C_1  and  N_3
REMARK    2  A    between atoms: C_1  and  C_15
REMARK    3  A    between atoms: C_1  and  C_29
REMARK    4  A    between atoms: N_14  and  C_17
REMARK    5  A    between atoms: C_17  and  C_18
REMARK    6  A    between atoms: C_18  and  N_19
REMARK    7  A    between atoms: N_19  and  C_21
REMARK    8  A    between atoms: C_26  and  O_27
REMARK    9  A    between atoms: C_29  and  C_30
REMARK                            x       y       z     vdW  Elec       q    Type
REMARK                         _______ _______ _______ _____ _____    ______ ____
ROOT
ATOM      1  C   UNL     1      35.822 -22.013 -15.593  0.00  0.00    +0.151 C 
ENDROOT
BRANCH   1   3
ATOM      2  O   UNL     1      32.354 -23.063 -16.153  0.00  0.00    -0.414 OA
ATOM      3  N   UNL     1      34.534 -22.339 -16.167  0.00  0.00    -0.271 N 
ATOM      4  N   UNL     1      33.426 -23.057 -14.155  0.00  0.00    -0.356 NA
ATOM      5  C   UNL     1      33.467 -22.821 -15.429  0.00  0.00    +0.345 C 
ATOM      6  C   UNL     1      31.481 -23.516 -15.205  0.00  0.00    +0.175 C 
ATOM      7  C   UNL     1      32.141 -23.511 -13.984  0.00  0.00    +0.152 C 
ATOM      8  C   UNL     1      30.165 -23.919 -15.391  0.00  0.00    +0.040 C 
ATOM      9  C   UNL     1      31.452 -23.938 -12.840  0.00  0.00    +0.088 C 
ATOM     10  C   UNL     1      29.492 -24.342 -14.240  0.00  0.00    -0.001 C 
ATOM     11  C   UNL     1      30.121 -24.352 -12.989  0.00  0.00    -0.018 C 
ATOM     12  H   UNL     1      34.410 -22.212 -17.135  0.00  0.00    +0.153 HD
ENDBRANCH   1   3
BRANCH   1  15
ATOM     13  O   UNL     1      37.625 -20.560 -16.302  0.00  0.00    -0.273 OA
ATOM     14  N   UNL     1      36.024 -21.186 -17.856  0.00  0.00    -0.301 N 
ATOM     15  C   UNL     1      36.604 -21.176 -16.597  0.00  0.00    +0.240 C 
ATOM     16  H   UNL     1      35.203 -21.711 -18.000  0.00  0.00    +0.150 HD
BRANCH  14  17
ATOM     17  C   UNL     1      36.585 -20.452 -18.965  0.00  0.00    +0.111 C 
BRANCH  17  18
ATOM     18  C   UNL     1      35.513 -19.831 -19.846  0.00  0.00    +0.109 C 
BRANCH  18  19
ATOM     19  N   UNL     1      35.921 -18.519 -20.287  0.00  0.00    -0.331 N 
ATOM     20  H   UNL     1      36.511 -17.994 -19.700  0.00  0.00    +0.147 HD
BRANCH  19  21
ATOM     21  C   UNL     1      35.527 -17.954 -21.490  0.00  0.00    +0.045 C 
ATOM     22  C   UNL     1      34.951 -18.743 -22.504  0.00  0.00    +0.017 C 
ATOM     23  C   UNL     1      35.695 -16.578 -21.732  0.00  0.00    +0.017 C 
ATOM     24  C   UNL     1      34.556 -18.175 -23.715  0.00  0.00    +0.038 C 
ATOM     25  C   UNL     1      35.300 -16.011 -22.943  0.00  0.00    +0.038 C 
ATOM     26  C   UNL     1      34.731 -16.809 -23.935  0.00  0.00    +0.139 C 
BRANCH  26  27
ATOM     27  O   UNL     1      34.345 -16.254 -25.116  0.00  0.00    -0.471 OA
ATOM     28  C   UNL     1      34.006 -14.868 -25.104  0.00  0.00    +0.252 C 
ENDBRANCH  26  27
ENDBRANCH  19  21
ENDBRANCH  18  19
ENDBRANCH  17  18
ENDBRANCH  14  17
ENDBRANCH   1  15
BRANCH   1  29
ATOM     29  C   UNL     1      36.595 -23.291 -15.260  0.00  0.00    +0.029 C 
BRANCH  29  30
ATOM     30  C   UNL     1      37.485 -23.131 -14.029  0.00  0.00    +0.002 C 
ATOM     31  C   UNL     1      38.231 -24.438 -13.726  0.00  0.00    +0.000 C 
ATOM     32  C   UNL     1      36.659 -22.681 -12.817  0.00  0.00    +0.000 C 
ATOM     33  C   UNL     1      39.087 -24.319 -12.468  0.00  0.00    +0.000 C 
ATOM     34  C   UNL     1      37.518 -22.566 -11.560  0.00  0.00    +0.000 C 
ATOM     35  C   UNL     1      38.264 -23.864 -11.268  0.00  0.00    +0.000 C 
ENDBRANCH  29  30
ENDBRANCH   1  29
TORSDOF 9
ENDMDL
MODEL 5
REMARK VINA RESULT:     -10.7      3.242      8.532
REMARK  Name = 6420159
REMARK  9 active torsions:
REMARK  status: ('A' for Active; 'I' for Inactive)
REMARK    1  A    between atoms: C_1  and  N_3
REMARK    2  A    between atoms: C_1  and  C_15
REMARK    3  A    between atoms: C_1  and  C_29
REMARK    4  A    between atoms: N_14  and  C_17
REMARK    5  A    between atoms: C_17  and  C_18
REMARK    6  A    between atoms: C_18  and  N_19
REMARK    7  A    between atoms: N_19  and  C_21
REMARK    8  A    between atoms: C_26  and  O_27
REMARK    9  A    between atoms: C_29  and  C_30
REMARK                            x       y       z     vdW  Elec       q    Type
REMARK                         _______ _______ _______ _____ _____    ______ ____
ROOT
ATOM      1  C   UNL     1      35.171 -24.045 -14.647  0.00  0.00    +0.151 C 
ENDROOT
BRANCH   1   3
ATOM      2  O   UNL     1      36.374 -21.590 -17.089  0.00  0.00    -0.414 OA
ATOM      3  N   UNL     1      35.965 -23.114 -15.421  0.00  0.00    -0.271 N 
ATOM      4  N   UNL     1      34.275 -22.442 -16.996  0.00  0.00    -0.356 NA
ATOM      5  C   UNL     1      35.473 -22.405 -16.502  0.00  0.00    +0.345 C 
ATOM      6  C   UNL     1      35.646 -21.027 -18.099  0.00  0.00    +0.175 C 
ATOM      7  C   UNL     1      34.362 -21.550 -18.038  0.00  0.00    +0.152 C 
ATOM      8  C   UNL     1      36.077 -20.096 -19.035  0.00  0.00    +0.040 C 
ATOM      9  C   UNL     1      33.413 -21.126 -18.978  0.00  0.00    +0.088 C 
ATOM     10  C   UNL     1      35.118 -19.683 -19.966  0.00  0.00    -0.001 C 
ATOM     11  C   UNL     1      33.812 -20.186 -19.940  0.00  0.00    -0.018 C 
ATOM     12  H   UNL     1      36.905 -22.979 -15.165  0.00  0.00    +0.153 HD
ENDBRANCH   1   3
BRANCH   1  15
ATOM     13  O   UNL     1      34.595 -22.935 -12.572  0.00  0.00    -0.273 OA
ATOM     14  N   UNL     1      33.044 -22.950 -14.295  0.00  0.00    -0.301 N 
ATOM     15  C   UNL     1      34.266 -23.252 -13.713  0.00  0.00    +0.240 C 
ATOM     16  H   UNL     1      32.868 -23.245 -15.218  0.00  0.00    +0.150 HD
BRANCH  14  17
ATOM     17  C   UNL     1      32.021 -22.214 -13.592  0.00  0.00    +0.111 C 
BRANCH  17  18
ATOM     18  C   UNL     1      31.110 -23.125 -12.783  0.00  0.00    +0.109 C 
BRANCH  18  19
ATOM     19  N   UNL     1      30.281 -23.916 -13.661  0.00  0.00    -0.331 N 
ATOM     20  H   UNL     1      30.312 -24.897 -13.571  0.00  0.00    +0.147 HD
BRANCH  19  21
ATOM     21  C   UNL     1      29.443 -23.375 -14.623  0.00  0.00    +0.045 C 
ATOM     22  C   UNL     1      29.108 -24.103 -15.780  0.00  0.00    +0.017 C 
ATOM     23  C   UNL     1      28.907 -22.084 -14.471  0.00  0.00    +0.017 C 
ATOM     24  C   UNL     1      28.266 -23.558 -16.750  0.00  0.00    +0.038 C 
ATOM     25  C   UNL     1      28.065 -21.539 -15.440  0.00  0.00    +0.038 C 
ATOM     26  C   UNL     1      27.745 -22.276 -16.580  0.00  0.00    +0.139 C 
BRANCH  26  27
ATOM     27  O   UNL     1      26.922 -21.744 -17.525  0.00  0.00    -0.471 OA
ATOM     28  C   UNL     1      26.094 -20.653 -17.126  0.00  0.00    +0.252 C 
ENDBRANCH  26  27
ENDBRANCH  19  21
ENDBRANCH  18  19
ENDBRANCH  17  18
ENDBRANCH  14  17
ENDBRANCH   1  15
BRANCH   1  29
ATOM     29  C   UNL     1      36.079 -24.972 -13.835  0.00  0.00    +0.029 C 
BRANCH  29  30
ATOM     30  C   UNL     1      37.550 -24.574 -13.925  0.00  0.00    +0.002 C 
ATOM     31  C   UNL     1      38.370 -25.680 -14.603  0.00  0.00    +0.000 C 
ATOM     32  C   UNL     1      38.112 -24.254 -12.534  0.00  0.00    +0.000 C 
ATOM     33  C   UNL     1      39.855 -25.329 -14.658  0.00  0.00    +0.000 C 
ATOM     34  C   UNL     1      39.597 -23.906 -12.591  0.00  0.00    +0.000 C 
ATOM     35  C   UNL     1      40.407 -25.003 -13.274  0.00  0.00    +0.000 C 
ENDBRANCH  29  30
ENDBRANCH   1  29
TORSDOF 9
ENDMDL
MODEL 6
REMARK VINA RESULT:     -10.4      5.824     10.058
REMARK  Name = 6420159
REMARK  9 active torsions:
REMARK  status: ('A' for Active; 'I' for Inactive)
REMARK    1  A    between atoms: C_1  and  N_3
REMARK    2  A    between atoms: C_1  and  C_15
REMARK    3  A    between atoms: C_1  and  C_29
REMARK    4  A    between atoms: N_14  and  C_17
REMARK    5  A    between atoms: C_17  and  C_18
REMARK    6  A    between atoms: C_18  and  N_19
REMARK    7  A    between atoms: N_19  and  C_21
REMARK    8  A    between atoms: C_26  and  O_27
REMARK    9  A    between atoms: C_29  and  C_30
REMARK                            x       y       z     vdW  Elec       q    Type
REMARK                         _______ _______ _______ _____ _____    ______ ____
ROOT
ATOM      1  C   UNL     1      34.544 -14.903 -22.987  0.00  0.00    +0.151 C 
ENDROOT
BRANCH   1   3
ATOM      2  O   UNL     1      36.804 -17.426 -21.587  0.00  0.00    -0.414 OA
ATOM      3  N   UNL     1      35.695 -15.695 -22.609  0.00  0.00    -0.271 N 
ATOM      4  N   UNL     1      34.554 -17.371 -21.313  0.00  0.00    -0.356 NA
ATOM      5  C   UNL     1      35.616 -16.833 -21.826  0.00  0.00    +0.345 C 
ATOM      6  C   UNL     1      36.448 -18.494 -20.813  0.00  0.00    +0.175 C 
ATOM      7  C   UNL     1      35.071 -18.456 -20.647  0.00  0.00    +0.152 C 
ATOM      8  C   UNL     1      37.283 -19.463 -20.271  0.00  0.00    +0.040 C 
ATOM      9  C   UNL     1      34.453 -19.456 -19.883  0.00  0.00    +0.088 C 
ATOM     10  C   UNL     1      36.652 -20.453 -19.512  0.00  0.00    -0.001 C 
ATOM     11  C   UNL     1      35.264 -20.452 -19.320  0.00  0.00    -0.018 C 
ATOM     12  H   UNL     1      36.581 -15.408 -22.926  0.00  0.00    +0.153 HD
ENDBRANCH   1   3
BRANCH   1  15
ATOM     13  O   UNL     1      34.959 -15.556 -25.282  0.00  0.00    -0.273 OA
ATOM     14  N   UNL     1      34.126 -13.434 -24.863  0.00  0.00    -0.301 N 
ATOM     15  C   UNL     1      34.571 -14.695 -24.496  0.00  0.00    +0.240 C 
ATOM     16  H   UNL     1      33.834 -12.808 -24.161  0.00  0.00    +0.150 HD
BRANCH  14  17
ATOM     17  C   UNL     1      34.076 -13.009 -26.241  0.00  0.00    +0.111 C 
BRANCH  17  18
ATOM     18  C   UNL     1      33.690 -11.545 -26.379  0.00  0.00    +0.109 C 
BRANCH  18  19
ATOM     19  N   UNL     1      34.785 -10.695 -25.974  0.00  0.00    -0.331 N 
ATOM     20  H   UNL     1      35.640 -10.778 -26.455  0.00  0.00    +0.147 HD
BRANCH  19  21
ATOM     21  C   UNL     1      34.701  -9.769 -24.946  0.00  0.00    +0.045 C 
ATOM     22  C   UNL     1      33.508  -9.606 -24.216  0.00  0.00    +0.017 C 
ATOM     23  C   UNL     1      35.804  -8.965 -24.607  0.00  0.00    +0.017 C 
ATOM     24  C   UNL     1      33.423  -8.673 -23.183  0.00  0.00    +0.038 C 
ATOM     25  C   UNL     1      35.719  -8.031 -23.573  0.00  0.00    +0.038 C 
ATOM     26  C   UNL     1      34.529  -7.885 -22.862  0.00  0.00    +0.139 C 
BRANCH  26  27
ATOM     27  O   UNL     1      34.447  -6.976 -21.853  0.00  0.00    -0.471 OA
ATOM     28  C   UNL     1      33.235  -6.948 -21.100  0.00  0.00    +0.252 C 
ENDBRANCH  26  27
ENDBRANCH  19  21
ENDBRANCH  18  19
ENDBRANCH  17  18
ENDBRANCH  14  17
ENDBRANCH   1  15
BRANCH   1  29
ATOM     29  C   UNL     1      34.568 -13.551 -22.271  0.00  0.00    +0.029 C 
BRANCH  29  30
ATOM     30  C   UNL     1      33.289 -13.285 -21.480  0.00  0.00    +0.002 C 
ATOM     31  C   UNL     1      32.957 -11.787 -21.473  0.00  0.00    +0.000 C 
ATOM     32  C   UNL     1      33.415 -13.823 -20.048  0.00  0.00    +0.000 C 
ATOM     33  C   UNL     1      31.710 -11.490 -20.644  0.00  0.00    +0.000 C 
ATOM     34  C   UNL     1      32.169 -13.521 -19.221  0.00  0.00    +0.000 C 
ATOM     35  C   UNL     1      31.837 -12.032 -19.224  0.00  0.00    +0.000 C 
ENDBRANCH  29  30
ENDBRANCH   1  29
TORSDOF 9
ENDMDL
MODEL 7
REMARK VINA RESULT:     -10.3      9.896     15.576
REMARK  Name = 6420159
REMARK  9 active torsions:
REMARK  status: ('A' for Active; 'I' for Inactive)
REMARK    1  A    between atoms: C_1  and  N_3
REMARK    2  A    between atoms: C_1  and  C_15
REMARK    3  A    between atoms: C_1  and  C_29
REMARK    4  A    between atoms: N_14  and  C_17
REMARK    5  A    between atoms: C_17  and  C_18
REMARK    6  A    between atoms: C_18  and  N_19
REMARK    7  A    between atoms: N_19  and  C_21
REMARK    8  A    between atoms: C_26  and  O_27
REMARK    9  A    between atoms: C_29  and  C_30
REMARK                            x       y       z     vdW  Elec       q    Type
REMARK                         _______ _______ _______ _____ _____    ______ ____
ROOT
ATOM      1  C   UNL     1      32.609  -7.383 -20.814  0.00  0.00    +0.151 C 
ENDROOT
BRANCH   1   3
ATOM      2  O   UNL     1      33.025  -9.672 -23.647  0.00  0.00    -0.414 OA
ATOM      3  N   UNL     1      32.454  -8.429 -21.803  0.00  0.00    -0.271 N 
ATOM      4  N   UNL     1      34.440  -7.991 -23.089  0.00  0.00    -0.356 NA
ATOM      5  C   UNL     1      33.352  -8.647 -22.832  0.00  0.00    +0.345 C 
ATOM      6  C   UNL     1      34.050  -9.669 -24.549  0.00  0.00    +0.175 C 
ATOM      7  C   UNL     1      34.914  -8.639 -24.204  0.00  0.00    +0.152 C 
ATOM      8  C   UNL     1      34.230 -10.523 -25.629  0.00  0.00    +0.040 C 
ATOM      9  C   UNL     1      36.058  -8.424 -24.985  0.00  0.00    +0.088 C 
ATOM     10  C   UNL     1      35.377 -10.296 -26.398  0.00  0.00    -0.001 C 
ATOM     11  C   UNL     1      36.274  -9.268 -26.084  0.00  0.00    -0.018 C 
ATOM     12  H   UNL     1      31.666  -9.016 -21.739  0.00  0.00    +0.153 HD
ENDBRANCH   1   3
BRANCH   1  15
ATOM     13  O   UNL     1      32.464  -7.328 -18.397  0.00  0.00    -0.273 OA
ATOM     14  N   UNL     1      31.948  -9.302 -19.499  0.00  0.00    -0.301 N 
ATOM     15  C   UNL     1      32.337  -7.972 -19.436  0.00  0.00    +0.240 C 
ATOM     16  H   UNL     1      31.873  -9.736 -20.379  0.00  0.00    +0.150 HD
BRANCH  14  17
ATOM     17  C   UNL     1      31.649 -10.069 -18.314  0.00  0.00    +0.111 C 
BRANCH  17  18
ATOM     18  C   UNL     1      31.633 -11.565 -18.587  0.00  0.00    +0.109 C 
BRANCH  18  19
ATOM     19  N   UNL     1      31.604 -11.818 -20.008  0.00  0.00    -0.331 N 
ATOM     20  H   UNL     1      30.850 -11.458 -20.529  0.00  0.00    +0.147 HD
BRANCH  19  21
ATOM     21  C   UNL     1      32.576 -12.541 -20.681  0.00  0.00    +0.045 C 
ATOM     22  C   UNL     1      32.712 -12.442 -22.078  0.00  0.00    +0.017 C 
ATOM     23  C   UNL     1      33.452 -13.394 -19.986  0.00  0.00    +0.017 C 
ATOM     24  C   UNL     1      33.690 -13.170 -22.756  0.00  0.00    +0.038 C 
ATOM     25  C   UNL     1      34.430 -14.123 -20.663  0.00  0.00    +0.038 C 
ATOM     26  C   UNL     1      34.549 -14.011 -22.048  0.00  0.00    +0.139 C 
BRANCH  26  27
ATOM     27  O   UNL     1      35.504 -14.721 -22.708  0.00  0.00    -0.471 OA
ATOM     28  C   UNL     1      35.063 -15.598 -23.744  0.00  0.00    +0.252 C 
ENDBRANCH  26  27
ENDBRANCH  19  21
ENDBRANCH  18  19
ENDBRANCH  17  18
ENDBRANCH  14  17
ENDBRANCH   1  15
BRANCH   1  29
ATOM     29  C   UNL     1      31.637  -6.235 -21.095  0.00  0.00    +0.029 C 
BRANCH  29  30
ATOM     30  C   UNL     1      32.272  -5.121 -21.925  0.00  0.00    +0.002 C 
ATOM     31  C   UNL     1      31.883  -3.744 -21.372  0.00  0.00    +0.000 C 
ATOM     32  C   UNL     1      31.874  -5.250 -23.402  0.00  0.00    +0.000 C 
ATOM     33  C   UNL     1      32.463  -2.612 -22.217  0.00  0.00    +0.000 C 
ATOM     34  C   UNL     1      32.454  -4.116 -24.243  0.00  0.00    +0.000 C 
ATOM     35  C   UNL     1      32.072  -2.748 -23.685  0.00  0.00    +0.000 C 
ENDBRANCH  29  30
ENDBRANCH   1  29
TORSDOF 9
ENDMDL
MODEL 8
REMARK VINA RESULT:     -10.3      3.662      7.269
REMARK  Name = 6420159
REMARK  9 active torsions:
REMARK  status: ('A' for Active; 'I' for Inactive)
REMARK    1  A    between atoms: C_1  and  N_3
REMARK    2  A    between atoms: C_1  and  C_15
REMARK    3  A    between atoms: C_1  and  C_29
REMARK    4  A    between atoms: N_14  and  C_17
REMARK    5  A    between atoms: C_17  and  C_18
REMARK    6  A    between atoms: C_18  and  N_19
REMARK    7  A    between atoms: N_19  and  C_21
REMARK    8  A    between atoms: C_26  and  O_27
REMARK    9  A    between atoms: C_29  and  C_30
REMARK                            x       y       z     vdW  Elec       q    Type
REMARK                         _______ _______ _______ _____ _____    ______ ____
ROOT
ATOM      1  C   UNL     1      33.817 -22.001 -15.377  0.00  0.00    +0.151 C 
ENDROOT
BRANCH   1   3
ATOM      2  O   UNL     1      36.973 -22.577 -13.603  0.00  0.00    -0.414 OA
ATOM      3  N   UNL     1      35.014 -21.874 -14.573  0.00  0.00    -0.271 N 
ATOM      4  N   UNL     1      35.875 -24.100 -14.874  0.00  0.00    -0.356 NA
ATOM      5  C   UNL     1      35.924 -22.900 -14.388  0.00  0.00    +0.345 C 
ATOM      6  C   UNL     1      37.695 -23.737 -13.587  0.00  0.00    +0.175 C 
ATOM      7  C   UNL     1      37.020 -24.666 -14.366  0.00  0.00    +0.152 C 
ATOM      8  C   UNL     1      38.891 -23.980 -12.924  0.00  0.00    +0.040 C 
ATOM      9  C   UNL     1      37.563 -25.950 -14.511  0.00  0.00    +0.088 C 
ATOM     10  C   UNL     1      39.420 -25.265 -13.079  0.00  0.00    -0.001 C 
ATOM     11  C   UNL     1      38.770 -26.233 -13.856  0.00  0.00    -0.018 C 
ATOM     12  H   UNL     1      35.189 -21.011 -14.134  0.00  0.00    +0.153 HD
ENDBRANCH   1   3
BRANCH   1  15
ATOM     13  O   UNL     1      31.742 -21.794 -14.144  0.00  0.00    -0.273 OA
ATOM     14  N   UNL     1      32.857 -23.827 -14.115  0.00  0.00    -0.301 N 
ATOM     15  C   UNL     1      32.686 -22.503 -14.489  0.00  0.00    +0.240 C 
ATOM     16  H   UNL     1      33.646 -24.317 -14.442  0.00  0.00    +0.150 HD
BRANCH  14  17
ATOM     17  C   UNL     1      31.914 -24.511 -13.264  0.00  0.00    +0.111 C 
BRANCH  17  18
ATOM     18  C   UNL     1      30.699 -25.007 -14.032  0.00  0.00    +0.109 C 
BRANCH  18  19
ATOM     19  N   UNL     1      29.557 -24.165 -13.768  0.00  0.00    -0.331 N 
ATOM     20  H   UNL     1      29.257 -24.067 -12.835  0.00  0.00    +0.147 HD
BRANCH  19  21
ATOM     21  C   UNL     1      28.857 -23.486 -14.754  0.00  0.00    +0.045 C 
ATOM     22  C   UNL     1      28.765 -24.002 -16.060  0.00  0.00    +0.017 C 
ATOM     23  C   UNL     1      28.221 -22.262 -14.475  0.00  0.00    +0.017 C 
ATOM     24  C   UNL     1      28.062 -23.319 -17.052  0.00  0.00    +0.038 C 
ATOM     25  C   UNL     1      27.518 -21.579 -15.467  0.00  0.00    +0.038 C 
ATOM     26  C   UNL     1      27.439 -22.107 -16.755  0.00  0.00    +0.139 C 
BRANCH  26  27
ATOM     27  O   UNL     1      26.752 -21.440 -17.722  0.00  0.00    -0.471 OA
ATOM     28  C   UNL     1      25.886 -20.388 -17.297  0.00  0.00    +0.252 C 
ENDBRANCH  26  27
ENDBRANCH  19  21
ENDBRANCH  18  19
ENDBRANCH  17  18
ENDBRANCH  14  17
ENDBRANCH   1  15
BRANCH   1  29
ATOM     29  C   UNL     1      34.052 -22.979 -16.530  0.00  0.00    +0.029 C 
BRANCH  29  30
ATOM     30  C   UNL     1      34.210 -22.271 -17.874  0.00  0.00    +0.002 C 
ATOM     31  C   UNL     1      35.542 -21.511 -17.933  0.00  0.00    +0.000 C 
ATOM     32  C   UNL     1      33.030 -21.324 -18.131  0.00  0.00    +0.000 C 
ATOM     33  C   UNL     1      35.699 -20.751 -19.248  0.00  0.00    +0.000 C 
ATOM     34  C   UNL     1      33.192 -20.564 -19.444  0.00  0.00    +0.000 C 
ATOM     35  C   UNL     1      34.521 -19.818 -19.503  0.00  0.00    +0.000 C 
ENDBRANCH  29  30
ENDBRANCH   1  29
TORSDOF 9
ENDMDL
MODEL 9
REMARK VINA RESULT:     -10.2      5.149     12.879
REMARK  Name = 6420159
REMARK  9 active torsions:
REMARK  status: ('A' for Active; 'I' for Inactive)
REMARK    1  A    between atoms: C_1  and  N_3
REMARK    2  A    between atoms: C_1  and  C_15
REMARK    3  A    between atoms: C_1  and  C_29
REMARK    4  A    between atoms: N_14  and  C_17
REMARK    5  A    between atoms: C_17  and  C_18
REMARK    6  A    between atoms: C_18  and  N_19
REMARK    7  A    between atoms: N_19  and  C_21
REMARK    8  A    between atoms: C_26  and  O_27
REMARK    9  A    between atoms: C_29  and  C_30
REMARK                            x       y       z     vdW  Elec       q    Type
REMARK                         _______ _______ _______ _____ _____    ______ ____
ROOT
ATOM      1  C   UNL     1      32.968 -12.412 -21.042  0.00  0.00    +0.151 C 
ENDROOT
BRANCH   1   3
ATOM      2  O   UNL     1      33.915 -12.148 -24.574  0.00  0.00    -0.414 OA
ATOM      3  N   UNL     1      33.166 -12.636 -22.459  0.00  0.00    -0.271 N 
ATOM      4  N   UNL     1      34.386 -10.624 -22.963  0.00  0.00    -0.356 NA
ATOM      5  C   UNL     1      33.839 -11.754 -23.286  0.00  0.00    +0.345 C 
ATOM      6  C   UNL     1      34.610 -11.124 -25.153  0.00  0.00    +0.175 C 
ATOM      7  C   UNL     1      34.896 -10.194 -24.164  0.00  0.00    +0.152 C 
ATOM      8  C   UNL     1      34.981 -11.001 -26.486  0.00  0.00    +0.040 C 
ATOM      9  C   UNL     1      35.611  -9.038 -24.508  0.00  0.00    +0.088 C 
ATOM     10  C   UNL     1      35.693  -9.842 -26.813  0.00  0.00    -0.001 C 
ATOM     11  C   UNL     1      36.002  -8.879 -25.845  0.00  0.00    -0.018 C 
ATOM     12  H   UNL     1      32.803 -13.460 -22.854  0.00  0.00    +0.153 HD
ENDBRANCH   1   3
BRANCH   1  15
ATOM     13  O   UNL     1      32.613 -14.128 -19.370  0.00  0.00    -0.273 OA
ATOM     14  N   UNL     1      34.451 -14.303 -20.772  0.00  0.00    -0.301 N 
ATOM     15  C   UNL     1      33.298 -13.697 -20.296  0.00  0.00    +0.240 C 
ATOM     16  H   UNL     1      34.935 -13.884 -21.520  0.00  0.00    +0.150 HD
BRANCH  14  17
ATOM     17  C   UNL     1      34.963 -15.528 -20.207  0.00  0.00    +0.111 C 
BRANCH  17  18
ATOM     18  C   UNL     1      35.688 -16.378 -21.239  0.00  0.00    +0.109 C 
BRANCH  18  19
ATOM     19  N   UNL     1      34.967 -17.606 -21.475  0.00  0.00    -0.331 N 
ATOM     20  H   UNL     1      34.410 -17.670 -22.285  0.00  0.00    +0.147 HD
BRANCH  19  21
ATOM     21  C   UNL     1      35.013 -18.702 -20.627  0.00  0.00    +0.045 C 
ATOM     22  C   UNL     1      33.836 -19.376 -20.254  0.00  0.00    +0.017 C 
ATOM     23  C   UNL     1      36.238 -19.167 -20.115  0.00  0.00    +0.017 C 
ATOM     24  C   UNL     1      33.882 -20.478 -19.399  0.00  0.00    +0.038 C 
ATOM     25  C   UNL     1      36.284 -20.269 -19.260  0.00  0.00    +0.038 C 
ATOM     26  C   UNL     1      35.106 -20.924 -18.902  0.00  0.00    +0.139 C 
BRANCH  26  27
ATOM     27  O   UNL     1      35.152 -21.999 -18.069  0.00  0.00    -0.471 OA
ATOM     28  C   UNL     1      34.026 -22.212 -17.220  0.00  0.00    +0.252 C 
ENDBRANCH  26  27
ENDBRANCH  19  21
ENDBRANCH  18  19
ENDBRANCH  17  18
ENDBRANCH  14  17
ENDBRANCH   1  15
BRANCH   1  29
ATOM     29  C   UNL     1      31.520 -12.001 -20.766  0.00  0.00    +0.029 C 
BRANCH  29  30
ATOM     30  C   UNL     1      31.416 -10.612 -20.140  0.00  0.00    +0.002 C 
ATOM     31  C   UNL     1      32.020  -9.552 -21.071  0.00  0.00    +0.000 C 
ATOM     32  C   UNL     1      32.097 -10.583 -18.765  0.00  0.00    +0.000 C 
ATOM     33  C   UNL     1      31.975  -8.160 -20.444  0.00  0.00    +0.000 C 
ATOM     34  C   UNL     1      32.053  -9.190 -18.143  0.00  0.00    +0.000 C 
ATOM     35  C   UNL     1      32.646  -8.138 -19.074  0.00  0.00    +0.000 C 
ENDBRANCH  29  30
ENDBRANCH   1  29
TORSDOF 9
ENDMDL
