MODEL 1
REMARK VINA RESULT:     -11.4      0.000      0.000
REMARK  Name = 449162
REMARK  12 active torsions:
REMARK  status: ('A' for Active; 'I' for Inactive)
REMARK    1  A    between atoms: C_1  and  C_9
REMARK    2  A    between atoms: C_3  and  C_19
REMARK    3  A    between atoms: C_10  and  C_16
REMARK    4  A    between atoms: C_11  and  C_13
REMARK    5  A    between atoms: C_13  and  O_14
REMARK    6  A    between atoms: C_16  and  O_17
REMARK    7  A    between atoms: C_20  and  C_21
REMARK    8  A    between atoms: C_21  and  O_22
REMARK    9  A    between atoms: O_22  and  C_23
REMARK   10  A    between atoms: C_24  and  C_32
REMARK   11  A    between atoms: C_25  and  O_29
REMARK   12  A    between atoms: C_32  and  O_33
REMARK                            x       y       z     vdW  Elec       q    Type
REMARK                         _______ _______ _______ _____ _____    ______ ____
ROOT
ATOM      1  C   UNL     1      35.524 -17.845 -21.840  0.00  0.00    +0.037 C 
ATOM      2  C   UNL     1      34.660 -18.703 -21.159  0.00  0.00    +0.003 C 
ATOM      3  C   UNL     1      35.151 -19.532 -20.151  0.00  0.00    -0.000 C 
ATOM      4  C   UNL     1      36.880 -17.816 -21.511  0.00  0.00    +0.003 C 
ATOM      5  C   UNL     1      36.506 -19.504 -19.822  0.00  0.00    -0.000 C 
ATOM      6  C   UNL     1      37.370 -18.646 -20.503  0.00  0.00    +0.000 C 
ENDROOT
BRANCH   1   9
ATOM      7  O   UNL     1      34.662 -17.619 -24.027  0.00  0.00    -0.353 OA
ATOM      8  N   UNL     1      34.197 -16.679 -24.937  0.00  0.00    -0.071 NA
ATOM      9  C   UNL     1      35.018 -16.986 -22.883  0.00  0.00    +0.175 A 
ATOM     10  C   UNL     1      34.804 -15.645 -23.001  0.00  0.00    +0.071 A 
ATOM     11  C   UNL     1      34.291 -15.507 -24.303  0.00  0.00    +0.196 A 
BRANCH  11  13
ATOM     12  O   UNL     1      33.177 -13.416 -24.472  0.00  0.00    -0.243 OA
ATOM     13  C   UNL     1      33.885 -14.303 -24.970  0.00  0.00    +0.359 C 
BRANCH  13  14
ATOM     14  O   UNL     1      34.341 -14.172 -26.258  0.00  0.00    -0.476 OA
ATOM     15  H   UNL     1      35.148 -13.727 -26.426  0.00  0.00    +0.295 HD
ENDBRANCH  13  14
ENDBRANCH  11  13
BRANCH  10  16
ATOM     16  C   UNL     1      35.053 -14.591 -22.003  0.00  0.00    +0.169 C 
BRANCH  16  17
ATOM     17  O   UNL     1      33.856 -13.911 -21.610  0.00  0.00    -0.377 OA
ATOM     18  H   UNL     1      33.923 -12.973 -21.847  0.00  0.00    +0.211 HD
ENDBRANCH  16  17
ENDBRANCH  10  16
ENDBRANCH   1   9
BRANCH   3  19
ATOM     19  C   UNL     1      34.249 -20.426 -19.443  0.00  0.00    -0.001 C 
ATOM     20  C   UNL     1      34.608 -21.342 -18.515  0.00  0.00    +0.021 C 
BRANCH  20  21
ATOM     21  C   UNL     1      33.640 -22.230 -17.801  0.00  0.00    +0.232 C 
BRANCH  21  22
ATOM     22  O   UNL     1      34.326 -22.911 -16.759  0.00  0.00    -0.470 OA
BRANCH  22  23
ATOM     23  C   UNL     1      33.701 -22.969 -15.542  0.00  0.00    +0.148 C 
ATOM     24  C   UNL     1      34.359 -23.482 -14.429  0.00  0.00    +0.143 C 
ATOM     25  C   UNL     1      33.702 -23.532 -13.199  0.00  0.00    +0.143 C 
ATOM     26  C   UNL     1      32.393 -22.506 -15.438  0.00  0.00    +0.037 C 
ATOM     27  C   UNL     1      32.391 -23.070 -13.089  0.00  0.00    +0.037 C 
ATOM     28  C   UNL     1      31.737 -22.557 -14.208  0.00  0.00    +0.006 C 
BRANCH  25  29
ATOM     29  O   UNL     1      34.324 -24.029 -12.092  0.00  0.00    -0.505 OA
ATOM     30  H   UNL     1      33.946 -24.748 -11.624  0.00  0.00    +0.292 HD
ENDBRANCH  25  29
BRANCH  24  32
ATOM     31  O   UNL     1      36.046 -25.050 -15.046  0.00  0.00    -0.245 OA
ATOM     32  C   UNL     1      35.730 -23.966 -14.544  0.00  0.00    +0.347 C 
BRANCH  32  33
ATOM     33  O   UNL     1      36.621 -23.067 -14.027  0.00  0.00    -0.441 OA
ATOM     34  C   UNL     1      37.413 -22.333 -14.966  0.00  0.00    +0.256 C 
ENDBRANCH  32  33
ENDBRANCH  24  32
ENDBRANCH  22  23
ENDBRANCH  21  22
ENDBRANCH  20  21
ENDBRANCH   3  19
TORSDOF 12
ENDMDL
MODEL 2
REMARK VINA RESULT:     -11.4      2.451      3.533
REMARK  Name = 449162
REMARK  12 active torsions:
REMARK  status: ('A' for Active; 'I' for Inactive)
REMARK    1  A    between atoms: C_1  and  C_9
REMARK    2  A    between atoms: C_3  and  C_19
REMARK    3  A    between atoms: C_10  and  C_16
REMARK    4  A    between atoms: C_11  and  C_13
REMARK    5  A    between atoms: C_13  and  O_14
REMARK    6  A    between atoms: C_16  and  O_17
REMARK    7  A    between atoms: C_20  and  C_21
REMARK    8  A    between atoms: C_21  and  O_22
REMARK    9  A    between atoms: O_22  and  C_23
REMARK   10  A    between atoms: C_24  and  C_32
REMARK   11  A    between atoms: C_25  and  O_29
REMARK   12  A    between atoms: C_32  and  O_33
REMARK                            x       y       z     vdW  Elec       q    Type
REMARK                         _______ _______ _______ _____ _____    ______ ____
ROOT
ATOM      1  C   UNL     1      34.690 -19.491 -20.216  0.00  0.00    +0.037 C 
ATOM      2  C   UNL     1      35.778 -19.889 -19.440  0.00  0.00    +0.003 C 
ATOM      3  C   UNL     1      35.608 -20.841 -18.435  0.00  0.00    -0.000 C 
ATOM      4  C   UNL     1      33.431 -20.047 -19.988  0.00  0.00    +0.003 C 
ATOM      5  C   UNL     1      34.349 -21.397 -18.206  0.00  0.00    -0.000 C 
ATOM      6  C   UNL     1      33.261 -20.999 -18.982  0.00  0.00    +0.000 C 
ENDROOT
BRANCH   1   9
ATOM      7  O   UNL     1      34.707 -18.969 -22.519  0.00  0.00    -0.353 OA
ATOM      8  N   UNL     1      34.902 -17.923 -23.411  0.00  0.00    -0.071 NA
ATOM      9  C   UNL     1      34.864 -18.506 -21.255  0.00  0.00    +0.175 A 
ATOM     10  C   UNL     1      35.159 -17.175 -21.275  0.00  0.00    +0.071 A 
ATOM     11  C   UNL     1      35.170 -16.861 -22.645  0.00  0.00    +0.196 A 
BRANCH  11  13
ATOM     12  O   UNL     1      35.700 -14.545 -22.649  0.00  0.00    -0.243 OA
ATOM     13  C   UNL     1      35.426 -15.589 -23.259  0.00  0.00    +0.359 C 
BRANCH  13  14
ATOM     14  O   UNL     1      35.348 -15.580 -24.629  0.00  0.00    -0.476 OA
ATOM     15  H   UNL     1      35.882 -14.992 -25.125  0.00  0.00    +0.295 HD
ENDBRANCH  13  14
ENDBRANCH  11  13
BRANCH  10  16
ATOM     16  C   UNL     1      35.408 -16.280 -20.132  0.00  0.00    +0.169 C 
BRANCH  16  17
ATOM     17  O   UNL     1      34.547 -15.135 -20.132  0.00  0.00    -0.377 OA
ATOM     18  H   UNL     1      33.685 -15.379 -20.506  0.00  0.00    +0.211 HD
ENDBRANCH  16  17
ENDBRANCH  10  16
ENDBRANCH   1   9
BRANCH   3  19
ATOM     19  C   UNL     1      36.744 -21.255 -17.626  0.00  0.00    -0.001 C 
ATOM     20  C   UNL     1      36.767 -21.343 -16.277  0.00  0.00    +0.021 C 
BRANCH  20  21
ATOM     21  C   UNL     1      37.956 -21.789 -15.489  0.00  0.00    +0.232 C 
BRANCH  21  22
ATOM     22  O   UNL     1      37.785 -23.155 -15.137  0.00  0.00    -0.470 OA
BRANCH  22  23
ATOM     23  C   UNL     1      37.514 -23.426 -13.822  0.00  0.00    +0.148 C 
ATOM     24  C   UNL     1      37.620 -24.721 -13.327  0.00  0.00    +0.143 C 
ATOM     25  C   UNL     1      37.339 -24.973 -11.983  0.00  0.00    +0.143 C 
ATOM     26  C   UNL     1      37.130 -22.380 -12.988  0.00  0.00    +0.037 C 
ATOM     27  C   UNL     1      36.953 -23.929 -11.143  0.00  0.00    +0.037 C 
ATOM     28  C   UNL     1      36.848 -22.633 -11.646  0.00  0.00    +0.006 C 
BRANCH  25  29
ATOM     29  O   UNL     1      37.436 -26.233 -11.472  0.00  0.00    -0.505 OA
ATOM     30  H   UNL     1      38.235 -26.714 -11.559  0.00  0.00    +0.292 HD
ENDBRANCH  25  29
BRANCH  24  32
ATOM     31  O   UNL     1      37.359 -26.217 -15.165  0.00  0.00    -0.245 OA
ATOM     32  C   UNL     1      38.024 -25.813 -14.205  0.00  0.00    +0.347 C 
BRANCH  32  33
ATOM     33  O   UNL     1      39.232 -26.333 -13.832  0.00  0.00    -0.441 OA
ATOM     34  C   UNL     1      40.377 -25.493 -14.014  0.00  0.00    +0.256 C 
ENDBRANCH  32  33
ENDBRANCH  24  32
ENDBRANCH  22  23
ENDBRANCH  21  22
ENDBRANCH  20  21
ENDBRANCH   3  19
TORSDOF 12
ENDMDL
MODEL 3
REMARK VINA RESULT:     -11.2      2.102      3.824
REMARK  Name = 449162
REMARK  12 active torsions:
REMARK  status: ('A' for Active; 'I' for Inactive)
REMARK    1  A    between atoms: C_1  and  C_9
REMARK    2  A    between atoms: C_3  and  C_19
REMARK    3  A    between atoms: C_10  and  C_16
REMARK    4  A    between atoms: C_11  and  C_13
REMARK    5  A    between atoms: C_13  and  O_14
REMARK    6  A    between atoms: C_16  and  O_17
REMARK    7  A    between atoms: C_20  and  C_21
REMARK    8  A    between atoms: C_21  and  O_22
REMARK    9  A    between atoms: O_22  and  C_23
REMARK   10  A    between atoms: C_24  and  C_32
REMARK   11  A    between atoms: C_25  and  O_29
REMARK   12  A    between atoms: C_32  and  O_33
REMARK                            x       y       z     vdW  Elec       q    Type
REMARK                         _______ _______ _______ _____ _____    ______ ____
ROOT
ATOM      1  C   UNL     1      34.737 -19.486 -20.169  0.00  0.00    +0.037 C 
ATOM      2  C   UNL     1      35.835 -19.886 -19.407  0.00  0.00    +0.003 C 
ATOM      3  C   UNL     1      35.677 -20.840 -18.403  0.00  0.00    -0.000 C 
ATOM      4  C   UNL     1      33.481 -20.042 -19.927  0.00  0.00    +0.003 C 
ATOM      5  C   UNL     1      34.421 -21.396 -18.159  0.00  0.00    -0.000 C 
ATOM      6  C   UNL     1      33.323 -20.997 -18.922  0.00  0.00    +0.000 C 
ENDROOT
BRANCH   1   9
ATOM      7  O   UNL     1      34.762 -18.967 -22.473  0.00  0.00    -0.353 OA
ATOM      8  N   UNL     1      34.942 -17.918 -23.365  0.00  0.00    -0.071 NA
ATOM      9  C   UNL     1      34.899 -18.499 -21.208  0.00  0.00    +0.175 A 
ATOM     10  C   UNL     1      35.166 -17.162 -21.228  0.00  0.00    +0.071 A 
ATOM     11  C   UNL     1      35.182 -16.849 -22.598  0.00  0.00    +0.196 A 
BRANCH  11  13
ATOM     12  O   UNL     1      35.682 -14.527 -22.602  0.00  0.00    -0.243 OA
ATOM     13  C   UNL     1      35.415 -15.573 -23.211  0.00  0.00    +0.359 C 
BRANCH  13  14
ATOM     14  O   UNL     1      35.324 -15.563 -24.581  0.00  0.00    -0.476 OA
ATOM     15  H   UNL     1      34.489 -15.652 -24.996  0.00  0.00    +0.295 HD
ENDBRANCH  13  14
ENDBRANCH  11  13
BRANCH  10  16
ATOM     16  C   UNL     1      35.386 -16.260 -20.084  0.00  0.00    +0.169 C 
BRANCH  16  17
ATOM     17  O   UNL     1      34.536 -15.109 -20.120  0.00  0.00    -0.377 OA
ATOM     18  H   UNL     1      33.720 -15.294 -19.629  0.00  0.00    +0.211 HD
ENDBRANCH  16  17
ENDBRANCH  10  16
ENDBRANCH   1   9
BRANCH   3  19
ATOM     19  C   UNL     1      36.823 -21.256 -17.608  0.00  0.00    -0.001 C 
ATOM     20  C   UNL     1      36.846 -21.394 -16.263  0.00  0.00    +0.021 C 
BRANCH  20  21
ATOM     21  C   UNL     1      38.046 -21.840 -15.491  0.00  0.00    +0.232 C 
BRANCH  21  22
ATOM     22  O   UNL     1      37.650 -22.132 -14.158  0.00  0.00    -0.470 OA
BRANCH  22  23
ATOM     23  C   UNL     1      37.775 -23.432 -13.746  0.00  0.00    +0.148 C 
ATOM     24  C   UNL     1      37.310 -23.829 -12.497  0.00  0.00    +0.143 C 
ATOM     25  C   UNL     1      37.447 -25.159 -12.098  0.00  0.00    +0.143 C 
ATOM     26  C   UNL     1      38.375 -24.351 -14.601  0.00  0.00    +0.037 C 
ATOM     27  C   UNL     1      38.049 -26.084 -12.951  0.00  0.00    +0.037 C 
ATOM     28  C   UNL     1      38.513 -25.680 -14.202  0.00  0.00    +0.006 C 
BRANCH  25  29
ATOM     29  O   UNL     1      36.999 -25.575 -10.880  0.00  0.00    -0.505 OA
ATOM     30  H   UNL     1      36.081 -25.696 -10.734  0.00  0.00    +0.292 HD
ENDBRANCH  25  29
BRANCH  24  32
ATOM     31  O   UNL     1      37.275 -21.926 -11.061  0.00  0.00    -0.245 OA
ATOM     32  C   UNL     1      36.680 -22.861 -11.605  0.00  0.00    +0.347 C 
BRANCH  32  33
ATOM     33  O   UNL     1      35.347 -23.121 -11.450  0.00  0.00    -0.441 OA
ATOM     34  C   UNL     1      34.594 -23.358 -12.644  0.00  0.00    +0.256 C 
ENDBRANCH  32  33
ENDBRANCH  24  32
ENDBRANCH  22  23
ENDBRANCH  21  22
ENDBRANCH  20  21
ENDBRANCH   3  19
TORSDOF 12
ENDMDL
MODEL 4
REMARK VINA RESULT:     -11.2      1.103      1.795
REMARK  Name = 449162
REMARK  12 active torsions:
REMARK  status: ('A' for Active; 'I' for Inactive)
REMARK    1  A    between atoms: C_1  and  C_9
REMARK    2  A    between atoms: C_3  and  C_19
REMARK    3  A    between atoms: C_10  and  C_16
REMARK    4  A    between atoms: C_11  and  C_13
REMARK    5  A    between atoms: C_13  and  O_14
REMARK    6  A    between atoms: C_16  and  O_17
REMARK    7  A    between atoms: C_20  and  C_21
REMARK    8  A    between atoms: C_21  and  O_22
REMARK    9  A    between atoms: O_22  and  C_23
REMARK   10  A    between atoms: C_24  and  C_32
REMARK   11  A    between atoms: C_25  and  O_29
REMARK   12  A    between atoms: C_32  and  O_33
REMARK                            x       y       z     vdW  Elec       q    Type
REMARK                         _______ _______ _______ _____ _____    ______ ____
ROOT
ATOM      1  C   UNL     1      35.702 -17.805 -21.565  0.00  0.00    +0.037 C 
ATOM      2  C   UNL     1      34.762 -18.612 -20.924  0.00  0.00    +0.003 C 
ATOM      3  C   UNL     1      35.180 -19.584 -20.016  0.00  0.00    -0.000 C 
ATOM      4  C   UNL     1      37.061 -17.969 -21.296  0.00  0.00    +0.003 C 
ATOM      5  C   UNL     1      36.539 -19.749 -19.746  0.00  0.00    -0.000 C 
ATOM      6  C   UNL     1      37.479 -18.941 -20.387  0.00  0.00    +0.000 C 
ENDROOT
BRANCH   1   9
ATOM      7  O   UNL     1      35.463 -15.519 -22.107  0.00  0.00    -0.353 OA
ATOM      8  N   UNL     1      35.005 -14.664 -23.101  0.00  0.00    -0.071 NA
ATOM      9  C   UNL     1      35.271 -16.800 -22.505  0.00  0.00    +0.175 A 
ATOM     10  C   UNL     1      34.696 -16.827 -23.742  0.00  0.00    +0.071 A 
ATOM     11  C   UNL     1      34.552 -15.467 -24.068  0.00  0.00    +0.196 A 
BRANCH  11  13
ATOM     12  O   UNL     1      34.613 -14.162 -26.052  0.00  0.00    -0.243 OA
ATOM     13  C   UNL     1      34.001 -14.898 -25.264  0.00  0.00    +0.359 C 
BRANCH  13  14
ATOM     14  O   UNL     1      32.690 -15.224 -25.510  0.00  0.00    -0.476 OA
ATOM     15  H   UNL     1      32.484 -15.946 -26.069  0.00  0.00    +0.295 HD
ENDBRANCH  13  14
ENDBRANCH  11  13
BRANCH  10  16
ATOM     16  C   UNL     1      34.316 -18.002 -24.544  0.00  0.00    +0.169 C 
BRANCH  16  17
ATOM     17  O   UNL     1      32.918 -18.027 -24.854  0.00  0.00    -0.377 OA
ATOM     18  H   UNL     1      32.685 -18.892 -25.228  0.00  0.00    +0.211 HD
ENDBRANCH  16  17
ENDBRANCH  10  16
ENDBRANCH   1   9
BRANCH   3  19
ATOM     19  C   UNL     1      34.199 -20.425 -19.348  0.00  0.00    -0.001 C 
ATOM     20  C   UNL     1      34.464 -21.356 -18.404  0.00  0.00    +0.021 C 
BRANCH  20  21
ATOM     21  C   UNL     1      33.418 -22.188 -17.735  0.00  0.00    +0.232 C 
BRANCH  21  22
ATOM     22  O   UNL     1      34.051 -23.067 -16.816  0.00  0.00    -0.470 OA
BRANCH  22  23
ATOM     23  C   UNL     1      33.565 -23.077 -15.534  0.00  0.00    +0.148 C 
ATOM     24  C   UNL     1      34.349 -23.537 -14.482  0.00  0.00    +0.143 C 
ATOM     25  C   UNL     1      33.835 -23.538 -13.185  0.00  0.00    +0.143 C 
ATOM     26  C   UNL     1      32.272 -22.618 -15.305  0.00  0.00    +0.037 C 
ATOM     27  C   UNL     1      32.539 -23.079 -12.948  0.00  0.00    +0.037 C 
ATOM     28  C   UNL     1      31.758 -22.620 -14.008  0.00  0.00    +0.006 C 
BRANCH  25  29
ATOM     29  O   UNL     1      34.582 -23.982 -12.135  0.00  0.00    -0.505 OA
ATOM     30  H   UNL     1      34.413 -23.662 -11.270  0.00  0.00    +0.292 HD
ENDBRANCH  25  29
BRANCH  24  32
ATOM     31  O   UNL     1      36.644 -23.297 -15.084  0.00  0.00    -0.245 OA
ATOM     32  C   UNL     1      35.705 -24.017 -14.729  0.00  0.00    +0.347 C 
BRANCH  32  33
ATOM     33  O   UNL     1      35.803 -25.364 -14.518  0.00  0.00    -0.441 OA
ATOM     34  C   UNL     1      37.116 -25.930 -14.575  0.00  0.00    +0.256 C 
ENDBRANCH  32  33
ENDBRANCH  24  32
ENDBRANCH  22  23
ENDBRANCH  21  22
ENDBRANCH  20  21
ENDBRANCH   3  19
TORSDOF 12
ENDMDL
MODEL 5
REMARK VINA RESULT:     -10.7      3.117     11.238
REMARK  Name = 449162
REMARK  12 active torsions:
REMARK  status: ('A' for Active; 'I' for Inactive)
REMARK    1  A    between atoms: C_1  and  C_9
REMARK    2  A    between atoms: C_3  and  C_19
REMARK    3  A    between atoms: C_10  and  C_16
REMARK    4  A    between atoms: C_11  and  C_13
REMARK    5  A    between atoms: C_13  and  O_14
REMARK    6  A    between atoms: C_16  and  O_17
REMARK    7  A    between atoms: C_20  and  C_21
REMARK    8  A    between atoms: C_21  and  O_22
REMARK    9  A    between atoms: O_22  and  C_23
REMARK   10  A    between atoms: C_24  and  C_32
REMARK   11  A    between atoms: C_25  and  O_29
REMARK   12  A    between atoms: C_32  and  O_33
REMARK                            x       y       z     vdW  Elec       q    Type
REMARK                         _______ _______ _______ _____ _____    ______ ____
ROOT
ATOM      1  C   UNL     1      35.879 -22.301 -16.111  0.00  0.00    +0.037 C 
ATOM      2  C   UNL     1      36.516 -21.489 -17.049  0.00  0.00    +0.003 C 
ATOM      3  C   UNL     1      35.812 -21.017 -18.156  0.00  0.00    -0.000 C 
ATOM      4  C   UNL     1      34.536 -22.640 -16.280  0.00  0.00    +0.003 C 
ATOM      5  C   UNL     1      34.470 -21.356 -18.326  0.00  0.00    -0.000 C 
ATOM      6  C   UNL     1      33.832 -22.167 -17.388  0.00  0.00    +0.000 C 
ENDROOT
BRANCH   1   9
ATOM      7  O   UNL     1      37.276 -21.846 -14.262  0.00  0.00    -0.353 OA
ATOM      8  N   UNL     1      37.926 -22.453 -13.196  0.00  0.00    -0.071 NA
ATOM      9  C   UNL     1      36.605 -22.790 -14.965  0.00  0.00    +0.175 A 
ATOM     10  C   UNL     1      36.788 -24.017 -14.398  0.00  0.00    +0.071 A 
ATOM     11  C   UNL     1      37.620 -23.750 -13.297  0.00  0.00    +0.196 A 
BRANCH  11  13
ATOM     12  O   UNL     1      37.960 -24.610 -11.108  0.00  0.00    -0.243 OA
ATOM     13  C   UNL     1      38.138 -24.679 -12.333  0.00  0.00    +0.359 C 
BRANCH  13  14
ATOM     14  O   UNL     1      38.881 -25.706 -12.860  0.00  0.00    -0.476 OA
ATOM     15  H   UNL     1      38.453 -26.453 -13.229  0.00  0.00    +0.295 HD
ENDBRANCH  13  14
ENDBRANCH  11  13
BRANCH  10  16
ATOM     16  C   UNL     1      36.244 -25.314 -14.836  0.00  0.00    +0.169 C 
BRANCH  16  17
ATOM     17  O   UNL     1      37.234 -26.146 -15.450  0.00  0.00    -0.377 OA
ATOM     18  H   UNL     1      37.800 -26.536 -14.764  0.00  0.00    +0.211 HD
ENDBRANCH  16  17
ENDBRANCH  10  16
ENDBRANCH   1   9
BRANCH   3  19
ATOM     19  C   UNL     1      36.478 -20.170 -19.134  0.00  0.00    -0.001 C 
ATOM     20  C   UNL     1      35.892 -19.205 -19.877  0.00  0.00    +0.021 C 
BRANCH  20  21
ATOM     21  C   UNL     1      36.623 -18.349 -20.860  0.00  0.00    +0.232 C 
BRANCH  21  22
ATOM     22  O   UNL     1      35.686 -17.812 -21.785  0.00  0.00    -0.470 OA
BRANCH  22  23
ATOM     23  C   UNL     1      35.307 -16.509 -21.596  0.00  0.00    +0.148 C 
ATOM     24  C   UNL     1      34.925 -15.718 -22.674  0.00  0.00    +0.143 C 
ATOM     25  C   UNL     1      34.543 -14.393 -22.458  0.00  0.00    +0.143 C 
ATOM     26  C   UNL     1      35.312 -15.991 -20.305  0.00  0.00    +0.037 C 
ATOM     27  C   UNL     1      34.546 -13.868 -21.166  0.00  0.00    +0.037 C 
ATOM     28  C   UNL     1      34.931 -14.667 -20.090  0.00  0.00    +0.006 C 
BRANCH  25  29
ATOM     29  O   UNL     1      34.163 -13.596 -23.496  0.00  0.00    -0.505 OA
ATOM     30  H   UNL     1      33.570 -12.885 -23.349  0.00  0.00    +0.292 HD
ENDBRANCH  25  29
BRANCH  24  32
ATOM     31  O   UNL     1      35.252 -15.636 -25.034  0.00  0.00    -0.245 OA
ATOM     32  C   UNL     1      34.922 -16.267 -24.025  0.00  0.00    +0.347 C 
BRANCH  32  33
ATOM     33  O   UNL     1      34.507 -17.570 -24.033  0.00  0.00    -0.441 OA
ATOM     34  C   UNL     1      33.431 -17.897 -24.917  0.00  0.00    +0.256 C 
ENDBRANCH  32  33
ENDBRANCH  24  32
ENDBRANCH  22  23
ENDBRANCH  21  22
ENDBRANCH  20  21
ENDBRANCH   3  19
TORSDOF 12
ENDMDL
MODEL 6
REMARK VINA RESULT:     -10.6      3.167     11.282
REMARK  Name = 449162
REMARK  12 active torsions:
REMARK  status: ('A' for Active; 'I' for Inactive)
REMARK    1  A    between atoms: C_1  and  C_9
REMARK    2  A    between atoms: C_3  and  C_19
REMARK    3  A    between atoms: C_10  and  C_16
REMARK    4  A    between atoms: C_11  and  C_13
REMARK    5  A    between atoms: C_13  and  O_14
REMARK    6  A    between atoms: C_16  and  O_17
REMARK    7  A    between atoms: C_20  and  C_21
REMARK    8  A    between atoms: C_21  and  O_22
REMARK    9  A    between atoms: O_22  and  C_23
REMARK   10  A    between atoms: C_24  and  C_32
REMARK   11  A    between atoms: C_25  and  O_29
REMARK   12  A    between atoms: C_32  and  O_33
REMARK                            x       y       z     vdW  Elec       q    Type
REMARK                         _______ _______ _______ _____ _____    ______ ____
ROOT
ATOM      1  C   UNL     1      36.025 -22.296 -16.020  0.00  0.00    +0.037 C 
ATOM      2  C   UNL     1      36.673 -21.485 -16.951  0.00  0.00    +0.003 C 
ATOM      3  C   UNL     1      35.970 -20.976 -18.042  0.00  0.00    -0.000 C 
ATOM      4  C   UNL     1      34.673 -22.599 -16.181  0.00  0.00    +0.003 C 
ATOM      5  C   UNL     1      34.618 -21.278 -18.204  0.00  0.00    -0.000 C 
ATOM      6  C   UNL     1      33.970 -22.090 -17.273  0.00  0.00    +0.000 C 
ENDROOT
BRANCH   1   9
ATOM      7  O   UNL     1      37.440 -21.906 -14.170  0.00  0.00    -0.353 OA
ATOM      8  N   UNL     1      38.087 -22.548 -13.122  0.00  0.00    -0.071 NA
ATOM      9  C   UNL     1      36.751 -22.824 -14.891  0.00  0.00    +0.175 A 
ATOM     10  C   UNL     1      36.918 -24.066 -14.353  0.00  0.00    +0.071 A 
ATOM     11  C   UNL     1      37.760 -23.837 -13.251  0.00  0.00    +0.196 A 
BRANCH  11  13
ATOM     12  O   UNL     1      37.950 -24.863 -11.117  0.00  0.00    -0.243 OA
ATOM     13  C   UNL     1      38.269 -24.796 -12.313  0.00  0.00    +0.359 C 
BRANCH  13  14
ATOM     14  O   UNL     1      39.177 -25.688 -12.829  0.00  0.00    -0.476 OA
ATOM     15  H   UNL     1      40.090 -25.584 -12.648  0.00  0.00    +0.295 HD
ENDBRANCH  13  14
ENDBRANCH  11  13
BRANCH  10  16
ATOM     16  C   UNL     1      36.351 -25.343 -14.817  0.00  0.00    +0.169 C 
BRANCH  16  17
ATOM     17  O   UNL     1      37.342 -26.215 -15.372  0.00  0.00    -0.377 OA
ATOM     18  H   UNL     1      37.647 -26.834 -14.690  0.00  0.00    +0.211 HD
ENDBRANCH  16  17
ENDBRANCH  10  16
ENDBRANCH   1   9
BRANCH   3  19
ATOM     19  C   UNL     1      36.647 -20.129 -19.012  0.00  0.00    -0.001 C 
ATOM     20  C   UNL     1      36.049 -19.389 -19.973  0.00  0.00    +0.021 C 
BRANCH  20  21
ATOM     21  C   UNL     1      36.788 -18.520 -20.939  0.00  0.00    +0.232 C 
BRANCH  21  22
ATOM     22  O   UNL     1      35.987 -17.386 -21.240  0.00  0.00    -0.470 OA
BRANCH  22  23
ATOM     23  C   UNL     1      35.324 -17.397 -22.439  0.00  0.00    +0.148 C 
ATOM     24  C   UNL     1      34.882 -16.212 -23.017  0.00  0.00    +0.143 C 
ATOM     25  C   UNL     1      34.209 -16.248 -24.239  0.00  0.00    +0.143 C 
ATOM     26  C   UNL     1      35.101 -18.618 -23.070  0.00  0.00    +0.037 C 
ATOM     27  C   UNL     1      33.983 -17.468 -24.876  0.00  0.00    +0.037 C 
ATOM     28  C   UNL     1      34.428 -18.652 -24.291  0.00  0.00    +0.006 C 
BRANCH  25  29
ATOM     29  O   UNL     1      33.766 -15.101 -24.829  0.00  0.00    -0.505 OA
ATOM     30  H   UNL     1      33.329 -14.449 -24.317  0.00  0.00    +0.292 HD
ENDBRANCH  25  29
BRANCH  24  32
ATOM     31  O   UNL     1      35.450 -13.898 -22.934  0.00  0.00    -0.245 OA
ATOM     32  C   UNL     1      35.119 -14.936 -22.352  0.00  0.00    +0.347 C 
BRANCH  32  33
ATOM     33  O   UNL     1      34.928 -15.035 -21.002  0.00  0.00    -0.441 OA
ATOM     34  C   UNL     1      34.285 -13.928 -20.361  0.00  0.00    +0.256 C 
ENDBRANCH  32  33
ENDBRANCH  24  32
ENDBRANCH  22  23
ENDBRANCH  21  22
ENDBRANCH  20  21
ENDBRANCH   3  19
TORSDOF 12
ENDMDL
MODEL 7
REMARK VINA RESULT:     -10.6      1.520      2.627
REMARK  Name = 449162
REMARK  12 active torsions:
REMARK  status: ('A' for Active; 'I' for Inactive)
REMARK    1  A    between atoms: C_1  and  C_9
REMARK    2  A    between atoms: C_3  and  C_19
REMARK    3  A    between atoms: C_10  and  C_16
REMARK    4  A    between atoms: C_11  and  C_13
REMARK    5  A    between atoms: C_13  and  O_14
REMARK    6  A    between atoms: C_16  and  O_17
REMARK    7  A    between atoms: C_20  and  C_21
REMARK    8  A    between atoms: C_21  and  O_22
REMARK    9  A    between atoms: O_22  and  C_23
REMARK   10  A    between atoms: C_24  and  C_32
REMARK   11  A    between atoms: C_25  and  O_29
REMARK   12  A    between atoms: C_32  and  O_33
REMARK                            x       y       z     vdW  Elec       q    Type
REMARK                         _______ _______ _______ _____ _____    ______ ____
ROOT
ATOM      1  C   UNL     1      35.411 -18.750 -21.418  0.00  0.00    +0.037 C 
ATOM      2  C   UNL     1      34.550 -19.584 -20.705  0.00  0.00    +0.003 C 
ATOM      3  C   UNL     1      34.995 -20.219 -19.546  0.00  0.00    -0.000 C 
ATOM      4  C   UNL     1      36.717 -18.550 -20.971  0.00  0.00    +0.003 C 
ATOM      5  C   UNL     1      36.301 -20.020 -19.098  0.00  0.00    -0.000 C 
ATOM      6  C   UNL     1      37.162 -19.185 -19.811  0.00  0.00    +0.000 C 
ENDROOT
BRANCH   1   9
ATOM      7  O   UNL     1      34.541 -18.921 -23.606  0.00  0.00    -0.353 OA
ATOM      8  N   UNL     1      34.130 -18.159 -24.693  0.00  0.00    -0.071 NA
ATOM      9  C   UNL     1      34.952 -18.092 -22.617  0.00  0.00    +0.175 A 
ATOM     10  C   UNL     1      34.828 -16.792 -23.011  0.00  0.00    +0.071 A 
ATOM     11  C   UNL     1      34.311 -16.891 -24.314  0.00  0.00    +0.196 A 
BRANCH  11  13
ATOM     12  O   UNL     1      34.785 -15.003 -25.676  0.00  0.00    -0.243 OA
ATOM     13  C   UNL     1      33.979 -15.826 -25.216  0.00  0.00    +0.359 C 
BRANCH  13  14
ATOM     14  O   UNL     1      32.654 -15.755 -25.568  0.00  0.00    -0.476 OA
ATOM     15  H   UNL     1      32.167 -16.542 -25.717  0.00  0.00    +0.295 HD
ENDBRANCH  13  14
ENDBRANCH  11  13
BRANCH  10  16
ATOM     16  C   UNL     1      35.160 -15.575 -22.251  0.00  0.00    +0.169 C 
BRANCH  16  17
ATOM     17  O   UNL     1      35.972 -14.664 -22.999  0.00  0.00    -0.377 OA
ATOM     18  H   UNL     1      36.110 -13.854 -22.483  0.00  0.00    +0.211 HD
ENDBRANCH  16  17
ENDBRANCH  10  16
ENDBRANCH   1   9
BRANCH   3  19
ATOM     19  C   UNL     1      34.096 -21.089 -18.803  0.00  0.00    -0.001 C 
ATOM     20  C   UNL     1      34.433 -21.856 -17.742  0.00  0.00    +0.021 C 
BRANCH  20  21
ATOM     21  C   UNL     1      33.468 -22.724 -17.000  0.00  0.00    +0.232 C 
BRANCH  21  22
ATOM     22  O   UNL     1      33.372 -22.260 -15.660  0.00  0.00    -0.470 OA
BRANCH  22  23
ATOM     23  C   UNL     1      34.347 -22.674 -14.791  0.00  0.00    +0.148 C 
ATOM     24  C   UNL     1      34.012 -23.263 -13.577  0.00  0.00    +0.143 C 
ATOM     25  C   UNL     1      35.022 -23.677 -12.707  0.00  0.00    +0.143 C 
ATOM     26  C   UNL     1      35.681 -22.494 -15.146  0.00  0.00    +0.037 C 
ATOM     27  C   UNL     1      36.360 -23.499 -13.057  0.00  0.00    +0.037 C 
ATOM     28  C   UNL     1      36.689 -22.907 -14.276  0.00  0.00    +0.006 C 
BRANCH  25  29
ATOM     29  O   UNL     1      34.722 -24.258 -11.511  0.00  0.00    -0.505 OA
ATOM     30  H   UNL     1      35.104 -23.929 -10.721  0.00  0.00    +0.292 HD
ENDBRANCH  25  29
BRANCH  24  32
ATOM     31  O   UNL     1      32.050 -22.857 -12.285  0.00  0.00    -0.245 OA
ATOM     32  C   UNL     1      32.613 -23.450 -13.211  0.00  0.00    +0.347 C 
BRANCH  32  33
ATOM     33  O   UNL     1      32.003 -24.364 -14.024  0.00  0.00    -0.441 OA
ATOM     34  C   UNL     1      30.597 -24.557 -13.834  0.00  0.00    +0.256 C 
ENDBRANCH  32  33
ENDBRANCH  24  32
ENDBRANCH  22  23
ENDBRANCH  21  22
ENDBRANCH  20  21
ENDBRANCH   3  19
TORSDOF 12
ENDMDL
MODEL 8
REMARK VINA RESULT:     -10.5      3.092     11.096
REMARK  Name = 449162
REMARK  12 active torsions:
REMARK  status: ('A' for Active; 'I' for Inactive)
REMARK    1  A    between atoms: C_1  and  C_9
REMARK    2  A    between atoms: C_3  and  C_19
REMARK    3  A    between atoms: C_10  and  C_16
REMARK    4  A    between atoms: C_11  and  C_13
REMARK    5  A    between atoms: C_13  and  O_14
REMARK    6  A    between atoms: C_16  and  O_17
REMARK    7  A    between atoms: C_20  and  C_21
REMARK    8  A    between atoms: C_21  and  O_22
REMARK    9  A    between atoms: O_22  and  C_23
REMARK   10  A    between atoms: C_24  and  C_32
REMARK   11  A    between atoms: C_25  and  O_29
REMARK   12  A    between atoms: C_32  and  O_33
REMARK                            x       y       z     vdW  Elec       q    Type
REMARK                         _______ _______ _______ _____ _____    ______ ____
ROOT
ATOM      1  C   UNL     1      35.345 -22.504 -15.588  0.00  0.00    +0.037 C 
ATOM      2  C   UNL     1      35.720 -21.836 -16.754  0.00  0.00    +0.003 C 
ATOM      3  C   UNL     1      34.778 -21.597 -17.753  0.00  0.00    -0.000 C 
ATOM      4  C   UNL     1      34.028 -22.932 -15.421  0.00  0.00    +0.003 C 
ATOM      5  C   UNL     1      33.460 -22.024 -17.588  0.00  0.00    -0.000 C 
ATOM      6  C   UNL     1      33.086 -22.692 -16.422  0.00  0.00    +0.000 C 
ENDROOT
BRANCH   1   9
ATOM      7  O   UNL     1      37.610 -22.736 -14.961  0.00  0.00    -0.353 OA
ATOM      8  N   UNL     1      38.432 -22.989 -13.870  0.00  0.00    -0.071 NA
ATOM      9  C   UNL     1      36.319 -22.753 -14.553  0.00  0.00    +0.175 A 
ATOM     10  C   UNL     1      36.252 -23.011 -13.215  0.00  0.00    +0.071 A 
ATOM     11  C   UNL     1      37.599 -23.150 -12.838  0.00  0.00    +0.196 A 
BRANCH  11  13
ATOM     12  O   UNL     1      37.789 -24.381 -10.816  0.00  0.00    -0.243 OA
ATOM     13  C   UNL     1      38.128 -23.429 -11.534  0.00  0.00    +0.359 C 
BRANCH  13  14
ATOM     14  O   UNL     1      39.081 -22.544 -11.094  0.00  0.00    -0.476 OA
ATOM     15  H   UNL     1      39.919 -22.858 -10.818  0.00  0.00    +0.295 HD
ENDBRANCH  13  14
ENDBRANCH  11  13
BRANCH  10  16
ATOM     16  C   UNL     1      35.052 -23.120 -12.367  0.00  0.00    +0.169 C 
BRANCH  16  17
ATOM     17  O   UNL     1      34.980 -24.370 -11.674  0.00  0.00    -0.377 OA
ATOM     18  H   UNL     1      35.081 -25.098 -12.307  0.00  0.00    +0.211 HD
ENDBRANCH  16  17
ENDBRANCH  10  16
ENDBRANCH   1   9
BRANCH   3  19
ATOM     19  C   UNL     1      35.169 -20.900 -18.969  0.00  0.00    -0.001 C 
ATOM     20  C   UNL     1      34.467 -19.922 -19.584  0.00  0.00    +0.021 C 
BRANCH  20  21
ATOM     21  C   UNL     1      34.919 -19.224 -20.825  0.00  0.00    +0.232 C 
BRANCH  21  22
ATOM     22  O   UNL     1      34.999 -17.829 -20.563  0.00  0.00    -0.470 OA
BRANCH  22  23
ATOM     23  C   UNL     1      35.031 -16.996 -21.650  0.00  0.00    +0.148 C 
ATOM     24  C   UNL     1      34.995 -15.616 -21.488  0.00  0.00    +0.143 C 
ATOM     25  C   UNL     1      35.029 -14.786 -22.610  0.00  0.00    +0.143 C 
ATOM     26  C   UNL     1      35.101 -17.557 -22.922  0.00  0.00    +0.037 C 
ATOM     27  C   UNL     1      35.099 -15.342 -23.887  0.00  0.00    +0.037 C 
ATOM     28  C   UNL     1      35.134 -16.727 -24.042  0.00  0.00    +0.006 C 
BRANCH  25  29
ATOM     29  O   UNL     1      34.996 -13.429 -22.479  0.00  0.00    -0.505 OA
ATOM     30  H   UNL     1      34.411 -12.922 -23.007  0.00  0.00    +0.292 HD
ENDBRANCH  25  29
BRANCH  24  32
ATOM     31  O   UNL     1      35.538 -15.463 -19.171  0.00  0.00    -0.245 OA
ATOM     32  C   UNL     1      34.922 -15.034 -20.152  0.00  0.00    +0.347 C 
BRANCH  32  33
ATOM     33  O   UNL     1      34.087 -13.952 -20.125  0.00  0.00    -0.441 OA
ATOM     34  C   UNL     1      32.781 -14.162 -19.578  0.00  0.00    +0.256 C 
ENDBRANCH  32  33
ENDBRANCH  24  32
ENDBRANCH  22  23
ENDBRANCH  21  22
ENDBRANCH  20  21
ENDBRANCH   3  19
TORSDOF 12
ENDMDL
MODEL 9
REMARK VINA RESULT:     -10.4      2.537      3.916
REMARK  Name = 449162
REMARK  12 active torsions:
REMARK  status: ('A' for Active; 'I' for Inactive)
REMARK    1  A    between atoms: C_1  and  C_9
REMARK    2  A    between atoms: C_3  and  C_19
REMARK    3  A    between atoms: C_10  and  C_16
REMARK    4  A    between atoms: C_11  and  C_13
REMARK    5  A    between atoms: C_13  and  O_14
REMARK    6  A    between atoms: C_16  and  O_17
REMARK    7  A    between atoms: C_20  and  C_21
REMARK    8  A    between atoms: C_21  and  O_22
REMARK    9  A    between atoms: O_22  and  C_23
REMARK   10  A    between atoms: C_24  and  C_32
REMARK   11  A    between atoms: C_25  and  O_29
REMARK   12  A    between atoms: C_32  and  O_33
REMARK                            x       y       z     vdW  Elec       q    Type
REMARK                         _______ _______ _______ _____ _____    ______ ____
ROOT
ATOM      1  C   UNL     1      35.633 -18.498 -20.737  0.00  0.00    +0.037 C 
ATOM      2  C   UNL     1      34.611 -19.362 -20.345  0.00  0.00    +0.003 C 
ATOM      3  C   UNL     1      34.882 -20.412 -19.469  0.00  0.00    -0.000 C 
ATOM      4  C   UNL     1      36.928 -18.685 -20.252  0.00  0.00    +0.003 C 
ATOM      5  C   UNL     1      36.176 -20.600 -18.984  0.00  0.00    -0.000 C 
ATOM      6  C   UNL     1      37.199 -19.736 -19.375  0.00  0.00    +0.000 C 
ENDROOT
BRANCH   1   9
ATOM      7  O   UNL     1      35.571 -16.172 -21.139  0.00  0.00    -0.353 OA
ATOM      8  N   UNL     1      35.263 -15.229 -22.112  0.00  0.00    -0.071 NA
ATOM      9  C   UNL     1      35.354 -17.411 -21.643  0.00  0.00    +0.175 A 
ATOM     10  C   UNL     1      34.909 -17.325 -22.929  0.00  0.00    +0.071 A 
ATOM     11  C   UNL     1      34.870 -15.941 -23.172  0.00  0.00    +0.196 A 
BRANCH  11  13
ATOM     12  O   UNL     1      34.837 -15.574 -25.519  0.00  0.00    -0.243 OA
ATOM     13  C   UNL     1      34.475 -15.265 -24.375  0.00  0.00    +0.359 C 
BRANCH  13  14
ATOM     14  O   UNL     1      33.630 -14.199 -24.189  0.00  0.00    -0.476 OA
ATOM     15  H   UNL     1      32.706 -14.340 -24.126  0.00  0.00    +0.295 HD
ENDBRANCH  13  14
ENDBRANCH  11  13
BRANCH  10  16
ATOM     16  C   UNL     1      34.552 -18.421 -23.845  0.00  0.00    +0.169 C 
BRANCH  16  17
ATOM     17  O   UNL     1      33.375 -18.139 -24.610  0.00  0.00    -0.377 OA
ATOM     18  H   UNL     1      32.664 -18.743 -24.344  0.00  0.00    +0.211 HD
ENDBRANCH  16  17
ENDBRANCH  10  16
ENDBRANCH   1   9
BRANCH   3  19
ATOM     19  C   UNL     1      33.815 -21.313 -19.061  0.00  0.00    -0.001 C 
ATOM     20  C   UNL     1      33.490 -21.632 -17.788  0.00  0.00    +0.021 C 
BRANCH  20  21
ATOM     21  C   UNL     1      32.372 -22.552 -17.418  0.00  0.00    +0.232 C 
BRANCH  21  22
ATOM     22  O   UNL     1      31.641 -21.976 -16.343  0.00  0.00    -0.470 OA
BRANCH  22  23
ATOM     23  C   UNL     1      31.425 -22.769 -15.247  0.00  0.00    +0.148 C 
ATOM     24  C   UNL     1      30.164 -23.295 -14.990  0.00  0.00    +0.143 C 
ATOM     25  C   UNL     1      29.966 -24.100 -13.868  0.00  0.00    +0.143 C 
ATOM     26  C   UNL     1      32.491 -23.038 -14.394  0.00  0.00    +0.037 C 
ATOM     27  C   UNL     1      31.030 -24.373 -13.009  0.00  0.00    +0.037 C 
ATOM     28  C   UNL     1      32.292 -23.842 -13.272  0.00  0.00    +0.006 C 
BRANCH  25  29
ATOM     29  O   UNL     1      28.740 -24.630 -13.593  0.00  0.00    -0.505 OA
ATOM     30  H   UNL     1      28.512 -24.849 -12.711  0.00  0.00    +0.292 HD
ENDBRANCH  25  29
BRANCH  24  32
ATOM     31  O   UNL     1      28.624 -23.796 -16.741  0.00  0.00    -0.245 OA
ATOM     32  C   UNL     1      29.050 -23.010 -15.888  0.00  0.00    +0.347 C 
BRANCH  32  33
ATOM     33  O   UNL     1      28.538 -21.762 -15.666  0.00  0.00    -0.441 OA
ATOM     34  C   UNL     1      27.223 -21.507 -16.171  0.00  0.00    +0.256 C 
ENDBRANCH  32  33
ENDBRANCH  24  32
ENDBRANCH  22  23
ENDBRANCH  21  22
ENDBRANCH  20  21
ENDBRANCH   3  19
TORSDOF 12
ENDMDL
