MODEL 1
REMARK VINA RESULT:     -12.0      0.000      0.000
REMARK  Name = 25113615
REMARK  7 active torsions:
REMARK  status: ('A' for Active; 'I' for Inactive)
REMARK    1  A    between atoms: N_2  and  C_20
REMARK    2  A    between atoms: C_3  and  C_7
REMARK    3  A    between atoms: C_11  and  C_12
REMARK    4  A    between atoms: C_12  and  C_13
REMARK    5  A    between atoms: C_13  and  C_14
REMARK    6  A    between atoms: C_20  and  C_21
REMARK    7  A    between atoms: C_26  and  C_29
REMARK                            x       y       z     vdW  Elec       q    Type
REMARK                         _______ _______ _______ _____ _____    ______ ____
ROOT
ATOM      1  O   UNL     1      35.682 -23.023 -12.784  0.00  0.00    -0.273 OA
ATOM      2  N   UNL     1      34.032 -24.294 -13.824  0.00  0.00    -0.299 N 
ATOM      3  C   UNL     1      35.322 -23.826 -13.641  0.00  0.00    +0.241 C 
ATOM      4  H   UNL     1      33.865 -24.939 -14.548  0.00  0.00    +0.150 HD
ENDROOT
BRANCH   3   7
ATOM      5  O   UNL     1      38.764 -21.840 -15.418  0.00  0.00    -0.275 OA
ATOM      6  N   UNL     1      37.489 -23.601 -14.637  0.00  0.00    -0.273 N 
ATOM      7  C   UNL     1      36.288 -24.433 -14.613  0.00  0.00    +0.152 C 
ATOM      8  C   UNL     1      36.775 -25.791 -14.113  0.00  0.00    +0.031 C 
ATOM      9  C   UNL     1      37.962 -25.435 -13.221  0.00  0.00    +0.024 C 
ATOM     10  C   UNL     1      38.589 -24.249 -13.936  0.00  0.00    +0.094 C 
ATOM     11  C   UNL     1      37.679 -22.421 -15.335  0.00  0.00    +0.226 C 
BRANCH  11  12
ATOM     12  C   UNL     1      36.463 -21.851 -16.021  0.00  0.00    +0.090 C 
BRANCH  12  13
ATOM     13  C   UNL     1      36.837 -21.263 -17.373  0.00  0.00    +0.036 C 
BRANCH  13  14
ATOM     14  C   UNL     1      35.641 -20.917 -18.225  0.00  0.00    -0.022 C 
ATOM     15  C   UNL     1      35.782 -20.047 -19.306  0.00  0.00    -0.004 C 
ATOM     16  C   UNL     1      34.393 -21.467 -17.932  0.00  0.00    -0.004 C 
ATOM     17  C   UNL     1      34.676 -19.726 -20.094  0.00  0.00    -0.000 C 
ATOM     18  C   UNL     1      33.287 -21.147 -18.720  0.00  0.00    -0.000 C 
ATOM     19  C   UNL     1      33.429 -20.277 -19.801  0.00  0.00    -0.000 C 
ENDBRANCH  13  14
ENDBRANCH  12  13
ENDBRANCH  11  12
ENDBRANCH   3   7
BRANCH   2  20
ATOM     20  C   UNL     1      32.918 -23.881 -13.000  0.00  0.00    +0.116 C 
BRANCH  20  21
ATOM     21  C   UNL     1      31.688 -23.609 -13.817  0.00  0.00    -0.003 C 
ATOM     22  C   UNL     1      31.729 -22.667 -14.845  0.00  0.00    -0.003 C 
ATOM     23  C   UNL     1      30.503 -24.295 -13.547  0.00  0.00    -0.003 C 
ATOM     24  C   UNL     1      30.585 -22.411 -15.603  0.00  0.00    +0.002 C 
ATOM     25  C   UNL     1      29.360 -24.039 -14.305  0.00  0.00    +0.002 C 
ATOM     26  C   UNL     1      29.402 -23.097 -15.333  0.00  0.00    +0.031 C 
BRANCH  26  29
ATOM     27  N   UNL     1      27.477 -21.659 -15.957  0.00  0.00    -0.343 N 
ATOM     28  N   UNL     1      27.805 -23.714 -17.019  0.00  0.00    -0.285 NA
ATOM     29  C   UNL     1      28.211 -22.831 -16.124  0.00  0.00    +0.117 C 
ATOM     30  H   UNL     1      26.673 -21.500 -16.503  0.00  0.00    +0.144 HD
ATOM     31  H   UNL     1      27.761 -20.991 -15.293  0.00  0.00    +0.144 HD
ATOM     32  H   UNL     1      26.999 -23.536 -17.555  0.00  0.00    +0.188 HD
ENDBRANCH  26  29
ENDBRANCH  20  21
ENDBRANCH   2  20
TORSDOF 7
ENDMDL
MODEL 2
REMARK VINA RESULT:     -11.0      2.937      6.254
REMARK  Name = 25113615
REMARK  7 active torsions:
REMARK  status: ('A' for Active; 'I' for Inactive)
REMARK    1  A    between atoms: N_2  and  C_20
REMARK    2  A    between atoms: C_3  and  C_7
REMARK    3  A    between atoms: C_11  and  C_12
REMARK    4  A    between atoms: C_12  and  C_13
REMARK    5  A    between atoms: C_13  and  C_14
REMARK    6  A    between atoms: C_20  and  C_21
REMARK    7  A    between atoms: C_26  and  C_29
REMARK                            x       y       z     vdW  Elec       q    Type
REMARK                         _______ _______ _______ _____ _____    ______ ____
ROOT
ATOM      1  O   UNL     1      35.257 -24.204 -15.581  0.00  0.00    -0.273 OA
ATOM      2  N   UNL     1      34.844 -22.026 -16.293  0.00  0.00    -0.299 N 
ATOM      3  C   UNL     1      35.318 -22.988 -15.417  0.00  0.00    +0.241 C 
ATOM      4  H   UNL     1      34.951 -21.078 -16.051  0.00  0.00    +0.150 HD
ENDROOT
BRANCH   3   7
ATOM      5  O   UNL     1      34.945 -24.421 -11.323  0.00  0.00    -0.275 OA
ATOM      6  N   UNL     1      35.929 -23.374 -13.133  0.00  0.00    -0.273 N 
ATOM      7  C   UNL     1      35.965 -22.384 -14.207  0.00  0.00    +0.152 C 
ATOM      8  C   UNL     1      37.452 -22.143 -14.454  0.00  0.00    +0.031 C 
ATOM      9  C   UNL     1      38.094 -23.476 -14.078  0.00  0.00    +0.024 C 
ATOM     10  C   UNL     1      37.247 -23.951 -12.908  0.00  0.00    +0.094 C 
ATOM     11  C   UNL     1      34.864 -23.668 -12.297  0.00  0.00    +0.226 C 
BRANCH  11  12
ATOM     12  C   UNL     1      33.553 -23.006 -12.634  0.00  0.00    +0.090 C 
BRANCH  12  13
ATOM     13  C   UNL     1      32.466 -24.049 -12.850  0.00  0.00    +0.036 C 
BRANCH  13  14
ATOM     14  C   UNL     1      31.450 -23.645 -13.890  0.00  0.00    -0.022 C 
ATOM     15  C   UNL     1      31.712 -22.573 -14.742  0.00  0.00    -0.004 C 
ATOM     16  C   UNL     1      30.248 -24.344 -13.999  0.00  0.00    -0.004 C 
ATOM     17  C   UNL     1      30.773 -22.198 -15.704  0.00  0.00    -0.000 C 
ATOM     18  C   UNL     1      29.309 -23.970 -14.960  0.00  0.00    -0.000 C 
ATOM     19  C   UNL     1      29.571 -22.897 -15.813  0.00  0.00    -0.000 C 
ENDBRANCH  13  14
ENDBRANCH  12  13
ENDBRANCH  11  12
ENDBRANCH   3   7
BRANCH   2  20
ATOM     20  C   UNL     1      34.199 -22.348 -17.546  0.00  0.00    +0.116 C 
BRANCH  20  21
ATOM     21  C   UNL     1      34.446 -21.297 -18.589  0.00  0.00    -0.003 C 
ATOM     22  C   UNL     1      35.753 -20.961 -18.944  0.00  0.00    -0.003 C 
ATOM     23  C   UNL     1      33.369 -20.655 -19.203  0.00  0.00    -0.003 C 
ATOM     24  C   UNL     1      35.983 -19.982 -19.912  0.00  0.00    +0.002 C 
ATOM     25  C   UNL     1      33.600 -19.677 -20.171  0.00  0.00    +0.002 C 
ATOM     26  C   UNL     1      34.907 -19.341 -20.525  0.00  0.00    +0.031 C 
BRANCH  26  29
ATOM     27  N   UNL     1      35.729 -17.100 -21.207  0.00  0.00    -0.343 N 
ATOM     28  N   UNL     1      34.809 -18.550 -22.792  0.00  0.00    -0.285 NA
ATOM     29  C   UNL     1      35.148 -18.323 -21.535  0.00  0.00    +0.117 C 
ATOM     30  H   UNL     1      35.882 -16.424 -21.907  0.00  0.00    +0.144 HD
ATOM     31  H   UNL     1      35.985 -16.910 -20.276  0.00  0.00    +0.144 HD
ATOM     32  H   UNL     1      34.971 -17.862 -23.477  0.00  0.00    +0.188 HD
ENDBRANCH  26  29
ENDBRANCH  20  21
ENDBRANCH   2  20
TORSDOF 7
ENDMDL
MODEL 3
REMARK VINA RESULT:     -10.3      8.912     12.439
REMARK  Name = 25113615
REMARK  7 active torsions:
REMARK  status: ('A' for Active; 'I' for Inactive)
REMARK    1  A    between atoms: N_2  and  C_20
REMARK    2  A    between atoms: C_3  and  C_7
REMARK    3  A    between atoms: C_11  and  C_12
REMARK    4  A    between atoms: C_12  and  C_13
REMARK    5  A    between atoms: C_13  and  C_14
REMARK    6  A    between atoms: C_20  and  C_21
REMARK    7  A    between atoms: C_26  and  C_29
REMARK                            x       y       z     vdW  Elec       q    Type
REMARK                         _______ _______ _______ _____ _____    ______ ____
ROOT
ATOM      1  O   UNL     1      34.145 -14.441 -20.305  0.00  0.00    -0.273 OA
ATOM      2  N   UNL     1      33.087 -12.783 -21.551  0.00  0.00    -0.299 N 
ATOM      3  C   UNL     1      34.029 -13.773 -21.330  0.00  0.00    +0.241 C 
ATOM      4  H   UNL     1      33.093 -12.315 -22.417  0.00  0.00    +0.150 HD
ENDROOT
BRANCH   3   7
ATOM      5  O   UNL     1      34.653 -17.533 -23.435  0.00  0.00    -0.275 OA
ATOM      6  N   UNL     1      34.535 -15.243 -23.153  0.00  0.00    -0.273 N 
ATOM      7  C   UNL     1      34.919 -13.985 -22.517  0.00  0.00    +0.152 C 
ATOM      8  C   UNL     1      34.659 -12.923 -23.583  0.00  0.00    +0.031 C 
ATOM      9  C   UNL     1      33.508 -13.513 -24.396  0.00  0.00    +0.024 C 
ATOM     10  C   UNL     1      33.810 -15.003 -24.394  0.00  0.00    +0.094 C 
ATOM     11  C   UNL     1      34.902 -16.523 -22.773  0.00  0.00    +0.226 C 
BRANCH  11  12
ATOM     12  C   UNL     1      35.651 -16.639 -21.469  0.00  0.00    +0.090 C 
BRANCH  12  13
ATOM     13  C   UNL     1      36.457 -17.930 -21.429  0.00  0.00    +0.036 C 
BRANCH  13  14
ATOM     14  C   UNL     1      35.868 -18.972 -20.509  0.00  0.00    -0.022 C 
ATOM     15  C   UNL     1      36.705 -19.751 -19.711  0.00  0.00    -0.004 C 
ATOM     16  C   UNL     1      34.487 -19.156 -20.459  0.00  0.00    -0.004 C 
ATOM     17  C   UNL     1      36.162 -20.714 -18.860  0.00  0.00    -0.000 C 
ATOM     18  C   UNL     1      33.943 -20.120 -19.609  0.00  0.00    -0.000 C 
ATOM     19  C   UNL     1      34.781 -20.899 -18.810  0.00  0.00    -0.000 C 
ENDBRANCH  13  14
ENDBRANCH  12  13
ENDBRANCH  11  12
ENDBRANCH   3   7
BRANCH   2  20
ATOM     20  C   UNL     1      32.095 -12.403 -20.571  0.00  0.00    +0.116 C 
BRANCH  20  21
ATOM     21  C   UNL     1      32.126 -10.930 -20.283  0.00  0.00    -0.003 C 
ATOM     22  C   UNL     1      32.216 -10.017 -21.334  0.00  0.00    -0.003 C 
ATOM     23  C   UNL     1      32.067 -10.473 -18.966  0.00  0.00    -0.003 C 
ATOM     24  C   UNL     1      32.248  -8.648 -21.068  0.00  0.00    +0.002 C 
ATOM     25  C   UNL     1      32.098  -9.105 -18.700  0.00  0.00    +0.002 C 
ATOM     26  C   UNL     1      32.188  -8.192 -19.751  0.00  0.00    +0.031 C 
BRANCH  26  29
ATOM     27  N   UNL     1      31.832  -5.831 -20.433  0.00  0.00    -0.343 N 
ATOM     28  N   UNL     1      32.626  -6.332 -18.294  0.00  0.00    -0.285 NA
ATOM     29  C   UNL     1      32.220  -6.765 -19.474  0.00  0.00    +0.117 C 
ATOM     30  H   UNL     1      31.861  -4.870 -20.225  0.00  0.00    +0.144 HD
ATOM     31  H   UNL     1      31.529  -6.133 -21.320  0.00  0.00    +0.144 HD
ATOM     32  H   UNL     1      32.648  -5.366 -18.105  0.00  0.00    +0.188 HD
ENDBRANCH  26  29
ENDBRANCH  20  21
ENDBRANCH   2  20
TORSDOF 7
ENDMDL
MODEL 4
REMARK VINA RESULT:     -10.0      7.591     11.294
REMARK  Name = 25113615
REMARK  7 active torsions:
REMARK  status: ('A' for Active; 'I' for Inactive)
REMARK    1  A    between atoms: N_2  and  C_20
REMARK    2  A    between atoms: C_3  and  C_7
REMARK    3  A    between atoms: C_11  and  C_12
REMARK    4  A    between atoms: C_12  and  C_13
REMARK    5  A    between atoms: C_13  and  C_14
REMARK    6  A    between atoms: C_20  and  C_21
REMARK    7  A    between atoms: C_26  and  C_29
REMARK                            x       y       z     vdW  Elec       q    Type
REMARK                         _______ _______ _______ _____ _____    ______ ____
ROOT
ATOM      1  O   UNL     1      36.093 -14.859 -22.840  0.00  0.00    -0.273 OA
ATOM      2  N   UNL     1      34.970 -16.878 -22.549  0.00  0.00    -0.299 N 
ATOM      3  C   UNL     1      35.079 -15.549 -22.920  0.00  0.00    +0.241 C 
ATOM      4  H   UNL     1      34.100 -17.326 -22.661  0.00  0.00    +0.150 HD
ENDROOT
BRANCH   3   7
ATOM      5  O   UNL     1      33.944 -11.351 -23.138  0.00  0.00    -0.275 OA
ATOM      6  N   UNL     1      33.982 -13.582 -23.738  0.00  0.00    -0.273 N 
ATOM      7  C   UNL     1      33.796 -15.008 -23.476  0.00  0.00    +0.152 C 
ATOM      8  C   UNL     1      33.504 -15.612 -24.846  0.00  0.00    +0.031 C 
ATOM      9  C   UNL     1      34.257 -14.694 -25.806  0.00  0.00    +0.024 C 
ATOM     10  C   UNL     1      34.105 -13.324 -25.166  0.00  0.00    +0.094 C 
ATOM     11  C   UNL     1      33.911 -12.544 -22.824  0.00  0.00    +0.226 C 
BRANCH  11  12
ATOM     12  C   UNL     1      33.782 -12.941 -21.375  0.00  0.00    +0.090 C 
BRANCH  12  13
ATOM     13  C   UNL     1      32.338 -12.817 -20.912  0.00  0.00    +0.036 C 
BRANCH  13  14
ATOM     14  C   UNL     1      32.080 -11.579 -20.089  0.00  0.00    -0.022 C 
ATOM     15  C   UNL     1      31.829 -11.690 -18.721  0.00  0.00    -0.004 C 
ATOM     16  C   UNL     1      32.092 -10.323 -20.695  0.00  0.00    -0.004 C 
ATOM     17  C   UNL     1      31.591 -10.546 -17.959  0.00  0.00    -0.000 C 
ATOM     18  C   UNL     1      31.853  -9.179 -19.933  0.00  0.00    -0.000 C 
ATOM     19  C   UNL     1      31.603  -9.291 -18.565  0.00  0.00    -0.000 C 
ENDBRANCH  13  14
ENDBRANCH  12  13
ENDBRANCH  11  12
ENDBRANCH   3   7
BRANCH   2  20
ATOM     20  C   UNL     1      36.072 -17.640 -22.007  0.00  0.00    +0.116 C 
BRANCH  20  21
ATOM     21  C   UNL     1      35.610 -18.654 -21.000  0.00  0.00    -0.003 C 
ATOM     22  C   UNL     1      34.253 -18.958 -20.890  0.00  0.00    -0.003 C 
ATOM     23  C   UNL     1      36.538 -19.291 -20.174  0.00  0.00    -0.003 C 
ATOM     24  C   UNL     1      33.824 -19.899 -19.953  0.00  0.00    +0.002 C 
ATOM     25  C   UNL     1      36.107 -20.232 -19.238  0.00  0.00    +0.002 C 
ATOM     26  C   UNL     1      34.750 -20.536 -19.128  0.00  0.00    +0.031 C 
BRANCH  26  29
ATOM     27  N   UNL     1      32.967 -21.908 -18.079  0.00  0.00    -0.343 N 
ATOM     28  N   UNL     1      35.169 -22.053 -17.312  0.00  0.00    -0.285 NA
ATOM     29  C   UNL     1      34.302 -21.517 -18.153  0.00  0.00    +0.117 C 
ATOM     30  H   UNL     1      32.685 -22.573 -17.411  0.00  0.00    +0.144 HD
ATOM     31  H   UNL     1      32.305 -21.518 -18.694  0.00  0.00    +0.144 HD
ATOM     32  H   UNL     1      34.867 -22.717 -16.651  0.00  0.00    +0.188 HD
ENDBRANCH  26  29
ENDBRANCH  20  21
ENDBRANCH   2  20
TORSDOF 7
ENDMDL
MODEL 5
REMARK VINA RESULT:      -9.9      3.444      7.162
REMARK  Name = 25113615
REMARK  7 active torsions:
REMARK  status: ('A' for Active; 'I' for Inactive)
REMARK    1  A    between atoms: N_2  and  C_20
REMARK    2  A    between atoms: C_3  and  C_7
REMARK    3  A    between atoms: C_11  and  C_12
REMARK    4  A    between atoms: C_12  and  C_13
REMARK    5  A    between atoms: C_13  and  C_14
REMARK    6  A    between atoms: C_20  and  C_21
REMARK    7  A    between atoms: C_26  and  C_29
REMARK                            x       y       z     vdW  Elec       q    Type
REMARK                         _______ _______ _______ _____ _____    ______ ____
ROOT
ATOM      1  O   UNL     1      34.591 -23.002 -16.748  0.00  0.00    -0.273 OA
ATOM      2  N   UNL     1      35.920 -21.297 -17.612  0.00  0.00    -0.299 N 
ATOM      3  C   UNL     1      35.397 -22.086 -16.602  0.00  0.00    +0.241 C 
ATOM      4  H   UNL     1      36.561 -20.590 -17.370  0.00  0.00    +0.150 HD
ENDROOT
BRANCH   3   7
ATOM      5  O   UNL     1      34.566 -24.136 -12.852  0.00  0.00    -0.275 OA
ATOM      6  N   UNL     1      35.764 -22.868 -14.367  0.00  0.00    -0.273 N 
ATOM      7  C   UNL     1      35.944 -21.721 -15.255  0.00  0.00    +0.152 C 
ATOM      8  C   UNL     1      37.457 -21.526 -15.322  0.00  0.00    +0.031 C 
ATOM      9  C   UNL     1      38.005 -22.936 -15.116  0.00  0.00    +0.024 C 
ATOM     10  C   UNL     1      37.030 -23.545 -14.123  0.00  0.00    +0.094 C 
ATOM     11  C   UNL     1      34.612 -23.233 -13.691  0.00  0.00    +0.226 C 
BRANCH  11  12
ATOM     12  C   UNL     1      33.366 -22.454 -14.031  0.00  0.00    +0.090 C 
BRANCH  12  13
ATOM     13  C   UNL     1      32.173 -22.984 -13.250  0.00  0.00    +0.036 C 
BRANCH  13  14
ATOM     14  C   UNL     1      30.925 -23.122 -14.087  0.00  0.00    -0.022 C 
ATOM     15  C   UNL     1      30.145 -22.000 -14.366  0.00  0.00    -0.004 C 
ATOM     16  C   UNL     1      30.551 -24.371 -14.581  0.00  0.00    -0.004 C 
ATOM     17  C   UNL     1      28.991 -22.126 -15.140  0.00  0.00    -0.000 C 
ATOM     18  C   UNL     1      29.398 -24.498 -15.355  0.00  0.00    -0.000 C 
ATOM     19  C   UNL     1      28.617 -23.375 -15.634  0.00  0.00    -0.000 C 
ENDBRANCH  13  14
ENDBRANCH  12  13
ENDBRANCH  11  12
ENDBRANCH   3   7
BRANCH   2  20
ATOM     20  C   UNL     1      35.571 -21.461 -19.004  0.00  0.00    +0.116 C 
BRANCH  20  21
ATOM     21  C   UNL     1      35.545 -20.149 -19.735  0.00  0.00    -0.003 C 
ATOM     22  C   UNL     1      34.358 -19.697 -20.313  0.00  0.00    -0.003 C 
ATOM     23  C   UNL     1      36.708 -19.384 -19.838  0.00  0.00    -0.003 C 
ATOM     24  C   UNL     1      34.335 -18.480 -20.994  0.00  0.00    +0.002 C 
ATOM     25  C   UNL     1      36.683 -18.167 -20.519  0.00  0.00    +0.002 C 
ATOM     26  C   UNL     1      35.496 -17.715 -21.097  0.00  0.00    +0.031 C 
BRANCH  26  29
ATOM     27  N   UNL     1      35.189 -15.252 -21.144  0.00  0.00    -0.343 N 
ATOM     28  N   UNL     1      35.713 -16.411 -23.104  0.00  0.00    -0.285 NA
ATOM     29  C   UNL     1      35.470 -16.445 -21.805  0.00  0.00    +0.117 C 
ATOM     30  H   UNL     1      35.176 -14.404 -21.644  0.00  0.00    +0.144 HD
ATOM     31  H   UNL     1      35.003 -15.256 -20.178  0.00  0.00    +0.144 HD
ATOM     32  H   UNL     1      35.696 -15.553 -23.585  0.00  0.00    +0.188 HD
ENDBRANCH  26  29
ENDBRANCH  20  21
ENDBRANCH   2  20
TORSDOF 7
ENDMDL
MODEL 6
REMARK VINA RESULT:      -9.8      4.406      8.648
REMARK  Name = 25113615
REMARK  7 active torsions:
REMARK  status: ('A' for Active; 'I' for Inactive)
REMARK    1  A    between atoms: N_2  and  C_20
REMARK    2  A    between atoms: C_3  and  C_7
REMARK    3  A    between atoms: C_11  and  C_12
REMARK    4  A    between atoms: C_12  and  C_13
REMARK    5  A    between atoms: C_13  and  C_14
REMARK    6  A    between atoms: C_20  and  C_21
REMARK    7  A    between atoms: C_26  and  C_29
REMARK                            x       y       z     vdW  Elec       q    Type
REMARK                         _______ _______ _______ _____ _____    ______ ____
ROOT
ATOM      1  O   UNL     1      37.004 -19.932 -17.847  0.00  0.00    -0.273 OA
ATOM      2  N   UNL     1      36.027 -19.792 -19.956  0.00  0.00    -0.299 N 
ATOM      3  C   UNL     1      36.301 -20.397 -18.741  0.00  0.00    +0.241 C 
ATOM      4  H   UNL     1      35.447 -20.265 -20.595  0.00  0.00    +0.150 HD
ENDROOT
BRANCH   3   7
ATOM      5  O   UNL     1      34.779 -22.111 -15.040  0.00  0.00    -0.275 OA
ATOM      6  N   UNL     1      34.912 -21.729 -17.315  0.00  0.00    -0.273 N 
ATOM      7  C   UNL     1      35.611 -21.720 -18.598  0.00  0.00    +0.152 C 
ATOM      8  C   UNL     1      34.503 -21.866 -19.637  0.00  0.00    +0.031 C 
ATOM      9  C   UNL     1      33.298 -21.214 -18.964  0.00  0.00    +0.024 C 
ATOM     10  C   UNL     1      33.474 -21.587 -17.501  0.00  0.00    +0.094 C 
ATOM     11  C   UNL     1      35.452 -21.986 -16.065  0.00  0.00    +0.226 C 
BRANCH  11  12
ATOM     12  C   UNL     1      36.953 -22.115 -16.005  0.00  0.00    +0.090 C 
BRANCH  12  13
ATOM     13  C   UNL     1      37.437 -22.063 -14.563  0.00  0.00    +0.036 C 
BRANCH  13  14
ATOM     14  C   UNL     1      38.325 -23.225 -14.190  0.00  0.00    -0.022 C 
ATOM     15  C   UNL     1      38.028 -23.997 -13.067  0.00  0.00    -0.004 C 
ATOM     16  C   UNL     1      39.444 -23.525 -14.967  0.00  0.00    -0.004 C 
ATOM     17  C   UNL     1      38.849 -25.072 -12.721  0.00  0.00    -0.000 C 
ATOM     18  C   UNL     1      40.265 -24.598 -14.621  0.00  0.00    -0.000 C 
ATOM     19  C   UNL     1      39.967 -25.372 -13.499  0.00  0.00    -0.000 C 
ENDBRANCH  13  14
ENDBRANCH  12  13
ENDBRANCH  11  12
ENDBRANCH   3   7
BRANCH   2  20
ATOM     20  C   UNL     1      36.552 -18.498 -20.331  0.00  0.00    +0.116 C 
BRANCH  20  21
ATOM     21  C   UNL     1      35.838 -17.927 -21.522  0.00  0.00    -0.003 C 
ATOM     22  C   UNL     1      35.865 -16.552 -21.757  0.00  0.00    -0.003 C 
ATOM     23  C   UNL     1      35.147 -18.770 -22.393  0.00  0.00    -0.003 C 
ATOM     24  C   UNL     1      35.200 -16.021 -22.862  0.00  0.00    +0.002 C 
ATOM     25  C   UNL     1      34.482 -18.238 -23.498  0.00  0.00    +0.002 C 
ATOM     26  C   UNL     1      34.509 -16.863 -23.732  0.00  0.00    +0.031 C 
BRANCH  26  29
ATOM     27  N   UNL     1      34.122 -15.039 -25.371  0.00  0.00    -0.343 N 
ATOM     28  N   UNL     1      32.876 -17.013 -25.489  0.00  0.00    -0.285 NA
ATOM     29  C   UNL     1      33.817 -16.309 -24.885  0.00  0.00    +0.117 C 
ATOM     30  H   UNL     1      33.640 -14.683 -26.152  0.00  0.00    +0.144 HD
ATOM     31  H   UNL     1      34.817 -14.498 -24.933  0.00  0.00    +0.144 HD
ATOM     32  H   UNL     1      32.407 -16.639 -26.269  0.00  0.00    +0.188 HD
ENDBRANCH  26  29
ENDBRANCH  20  21
ENDBRANCH   2  20
TORSDOF 7
ENDMDL
MODEL 7
REMARK VINA RESULT:      -9.7     11.793     15.500
REMARK  Name = 25113615
REMARK  7 active torsions:
REMARK  status: ('A' for Active; 'I' for Inactive)
REMARK    1  A    between atoms: N_2  and  C_20
REMARK    2  A    between atoms: C_3  and  C_7
REMARK    3  A    between atoms: C_11  and  C_12
REMARK    4  A    between atoms: C_12  and  C_13
REMARK    5  A    between atoms: C_13  and  C_14
REMARK    6  A    between atoms: C_20  and  C_21
REMARK    7  A    between atoms: C_26  and  C_29
REMARK                            x       y       z     vdW  Elec       q    Type
REMARK                         _______ _______ _______ _____ _____    ______ ____
ROOT
ATOM      1  O   UNL     1      31.162  -8.560 -22.258  0.00  0.00    -0.273 OA
ATOM      2  N   UNL     1      32.177  -9.449 -20.360  0.00  0.00    -0.299 N 
ATOM      3  C   UNL     1      31.946  -8.474 -21.316  0.00  0.00    +0.241 C 
ATOM      4  H   UNL     1      32.832  -9.263 -19.650  0.00  0.00    +0.150 HD
ENDROOT
BRANCH   3   7
ATOM      5  O   UNL     1      34.138  -6.213 -24.322  0.00  0.00    -0.275 OA
ATOM      6  N   UNL     1      32.974  -6.579 -22.360  0.00  0.00    -0.273 N 
ATOM      7  C   UNL     1      32.758  -7.238 -21.074  0.00  0.00    +0.152 C 
ATOM      8  C   UNL     1      31.966  -6.224 -20.253  0.00  0.00    +0.031 C 
ATOM      9  C   UNL     1      31.182  -5.449 -21.310  0.00  0.00    +0.024 C 
ATOM     10  C   UNL     1      32.149  -5.384 -22.481  0.00  0.00    +0.094 C 
ATOM     11  C   UNL     1      33.922  -6.896 -23.318  0.00  0.00    +0.226 C 
BRANCH  11  12
ATOM     12  C   UNL     1      34.714  -8.156 -23.077  0.00  0.00    +0.090 C 
BRANCH  12  13
ATOM     13  C   UNL     1      35.697  -8.397 -24.214  0.00  0.00    +0.036 C 
BRANCH  13  14
ATOM     14  C   UNL     1      35.272  -9.506 -25.144  0.00  0.00    -0.022 C 
ATOM     15  C   UNL     1      34.167 -10.297 -24.829  0.00  0.00    -0.004 C 
ATOM     16  C   UNL     1      35.985  -9.742 -26.319  0.00  0.00    -0.004 C 
ATOM     17  C   UNL     1      33.774 -11.323 -25.688  0.00  0.00    -0.000 C 
ATOM     18  C   UNL     1      35.593 -10.768 -27.179  0.00  0.00    -0.000 C 
ATOM     19  C   UNL     1      34.487 -11.559 -26.863  0.00  0.00    -0.000 C 
ENDBRANCH  13  14
ENDBRANCH  12  13
ENDBRANCH  11  12
ENDBRANCH   3   7
BRANCH   2  20
ATOM     20  C   UNL     1      31.500 -10.726 -20.355  0.00  0.00    +0.116 C 
BRANCH  20  21
ATOM     21  C   UNL     1      32.431 -11.855 -20.694  0.00  0.00    -0.003 C 
ATOM     22  C   UNL     1      32.595 -12.914 -19.801  0.00  0.00    -0.003 C 
ATOM     23  C   UNL     1      33.134 -11.843 -21.899  0.00  0.00    -0.003 C 
ATOM     24  C   UNL     1      33.462 -13.961 -20.113  0.00  0.00    +0.002 C 
ATOM     25  C   UNL     1      34.000 -12.891 -22.211  0.00  0.00    +0.002 C 
ATOM     26  C   UNL     1      34.164 -13.950 -21.318  0.00  0.00    +0.031 C 
BRANCH  26  29
ATOM     27  N   UNL     1      35.276 -16.098 -20.759  0.00  0.00    -0.343 N 
ATOM     28  N   UNL     1      35.708 -15.045 -22.799  0.00  0.00    -0.285 NA
ATOM     29  C   UNL     1      35.066 -15.043 -21.644  0.00  0.00    +0.117 C 
ATOM     30  H   UNL     1      35.892 -16.828 -20.999  0.00  0.00    +0.144 HD
ATOM     31  H   UNL     1      34.810 -16.114 -19.892  0.00  0.00    +0.144 HD
ATOM     32  H   UNL     1      36.319 -15.784 -23.021  0.00  0.00    +0.188 HD
ENDBRANCH  26  29
ENDBRANCH  20  21
ENDBRANCH   2  20
TORSDOF 7
ENDMDL
MODEL 8
REMARK VINA RESULT:      -9.7     12.291     16.062
REMARK  Name = 25113615
REMARK  7 active torsions:
REMARK  status: ('A' for Active; 'I' for Inactive)
REMARK    1  A    between atoms: N_2  and  C_20
REMARK    2  A    between atoms: C_3  and  C_7
REMARK    3  A    between atoms: C_11  and  C_12
REMARK    4  A    between atoms: C_12  and  C_13
REMARK    5  A    between atoms: C_13  and  C_14
REMARK    6  A    between atoms: C_20  and  C_21
REMARK    7  A    between atoms: C_26  and  C_29
REMARK                            x       y       z     vdW  Elec       q    Type
REMARK                         _______ _______ _______ _____ _____    ______ ____
ROOT
ATOM      1  O   UNL     1      34.581  -6.993 -21.904  0.00  0.00    -0.273 OA
ATOM      2  N   UNL     1      33.298  -8.260 -23.376  0.00  0.00    -0.299 N 
ATOM      3  C   UNL     1      33.494  -7.379 -22.326  0.00  0.00    +0.241 C 
ATOM      4  H   UNL     1      32.374  -8.495 -23.624  0.00  0.00    +0.150 HD
ENDROOT
BRANCH   3   7
ATOM      5  O   UNL     1      32.959  -5.636 -18.373  0.00  0.00    -0.275 OA
ATOM      6  N   UNL     1      32.513  -6.031 -20.605  0.00  0.00    -0.273 N 
ATOM      7  C   UNL     1      32.201  -6.896 -21.741  0.00  0.00    +0.152 C 
ATOM      8  C   UNL     1      31.470  -5.986 -22.724  0.00  0.00    +0.031 C 
ATOM      9  C   UNL     1      32.063  -4.608 -22.439  0.00  0.00    +0.024 C 
ATOM     10  C   UNL     1      32.286  -4.631 -20.936  0.00  0.00    +0.094 C 
ATOM     11  C   UNL     1      32.839  -6.421 -19.317  0.00  0.00    +0.226 C 
BRANCH  11  12
ATOM     12  C   UNL     1      33.047  -7.899 -19.102  0.00  0.00    +0.090 C 
BRANCH  12  13
ATOM     13  C   UNL     1      31.709  -8.620 -19.019  0.00  0.00    +0.036 C 
BRANCH  13  14
ATOM     14  C   UNL     1      31.779 -10.058 -19.472  0.00  0.00    -0.022 C 
ATOM     15  C   UNL     1      31.979 -11.075 -18.539  0.00  0.00    -0.004 C 
ATOM     16  C   UNL     1      31.644 -10.371 -20.825  0.00  0.00    -0.004 C 
ATOM     17  C   UNL     1      32.043 -12.405 -18.956  0.00  0.00    -0.000 C 
ATOM     18  C   UNL     1      31.708 -11.700 -21.243  0.00  0.00    -0.000 C 
ATOM     19  C   UNL     1      31.908 -12.717 -20.309  0.00  0.00    -0.000 C 
ENDBRANCH  13  14
ENDBRANCH  12  13
ENDBRANCH  11  12
ENDBRANCH   3   7
BRANCH   2  20
ATOM     20  C   UNL     1      34.383  -8.851 -24.125  0.00  0.00    +0.116 C 
BRANCH  20  21
ATOM     21  C   UNL     1      34.238 -10.341 -24.241  0.00  0.00    -0.003 C 
ATOM     22  C   UNL     1      33.898 -10.914 -25.467  0.00  0.00    -0.003 C 
ATOM     23  C   UNL     1      34.440 -11.153 -23.124  0.00  0.00    -0.003 C 
ATOM     24  C   UNL     1      33.760 -12.298 -25.575  0.00  0.00    +0.002 C 
ATOM     25  C   UNL     1      34.303 -12.536 -23.233  0.00  0.00    +0.002 C 
ATOM     26  C   UNL     1      33.963 -13.109 -24.459  0.00  0.00    +0.031 C 
BRANCH  26  29
ATOM     27  N   UNL     1      34.570 -15.419 -23.780  0.00  0.00    -0.343 N 
ATOM     28  N   UNL     1      32.970 -15.062 -25.445  0.00  0.00    -0.285 NA
ATOM     29  C   UNL     1      33.821 -14.552 -24.573  0.00  0.00    +0.117 C 
ATOM     30  H   UNL     1      34.458 -16.392 -23.875  0.00  0.00    +0.144 HD
ATOM     31  H   UNL     1      35.211 -15.058 -23.127  0.00  0.00    +0.144 HD
ATOM     32  H   UNL     1      32.873 -16.038 -25.524  0.00  0.00    +0.188 HD
ENDBRANCH  26  29
ENDBRANCH  20  21
ENDBRANCH   2  20
TORSDOF 7
ENDMDL
MODEL 9
REMARK VINA RESULT:      -9.7      4.354      8.600
REMARK  Name = 25113615
REMARK  7 active torsions:
REMARK  status: ('A' for Active; 'I' for Inactive)
REMARK    1  A    between atoms: N_2  and  C_20
REMARK    2  A    between atoms: C_3  and  C_7
REMARK    3  A    between atoms: C_11  and  C_12
REMARK    4  A    between atoms: C_12  and  C_13
REMARK    5  A    between atoms: C_13  and  C_14
REMARK    6  A    between atoms: C_20  and  C_21
REMARK    7  A    between atoms: C_26  and  C_29
REMARK                            x       y       z     vdW  Elec       q    Type
REMARK                         _______ _______ _______ _____ _____    ______ ____
ROOT
ATOM      1  O   UNL     1      36.960 -20.226 -17.618  0.00  0.00    -0.273 OA
ATOM      2  N   UNL     1      35.836 -19.873 -19.627  0.00  0.00    -0.299 N 
ATOM      3  C   UNL     1      36.163 -20.582 -18.483  0.00  0.00    +0.241 C 
ATOM      4  H   UNL     1      35.181 -20.264 -20.249  0.00  0.00    +0.150 HD
ENDROOT
BRANCH   3   7
ATOM      5  O   UNL     1      34.507 -22.296 -14.840  0.00  0.00    -0.275 OA
ATOM      6  N   UNL     1      34.690 -21.873 -17.104  0.00  0.00    -0.273 N 
ATOM      7  C   UNL     1      35.406 -21.871 -18.378  0.00  0.00    +0.152 C 
ATOM      8  C   UNL     1      34.305 -21.938 -19.434  0.00  0.00    +0.031 C 
ATOM      9  C   UNL     1      33.126 -21.239 -18.761  0.00  0.00    +0.024 C 
ATOM     10  C   UNL     1      33.264 -21.653 -17.304  0.00  0.00    +0.094 C 
ATOM     11  C   UNL     1      35.199 -22.184 -15.854  0.00  0.00    +0.226 C 
BRANCH  11  12
ATOM     12  C   UNL     1      36.691 -22.391 -15.778  0.00  0.00    +0.090 C 
BRANCH  12  13
ATOM     13  C   UNL     1      37.209 -22.042 -14.390  0.00  0.00    +0.036 C 
BRANCH  13  14
ATOM     14  C   UNL     1      37.499 -23.255 -13.540  0.00  0.00    -0.022 C 
ATOM     15  C   UNL     1      37.502 -24.525 -14.115  0.00  0.00    -0.004 C 
ATOM     16  C   UNL     1      37.763 -23.105 -12.179  0.00  0.00    -0.004 C 
ATOM     17  C   UNL     1      37.771 -25.647 -13.330  0.00  0.00    -0.000 C 
ATOM     18  C   UNL     1      38.031 -24.226 -11.393  0.00  0.00    -0.000 C 
ATOM     19  C   UNL     1      38.035 -25.497 -11.969  0.00  0.00    -0.000 C 
ENDBRANCH  13  14
ENDBRANCH  12  13
ENDBRANCH  11  12
ENDBRANCH   3   7
BRANCH   2  20
ATOM     20  C   UNL     1      36.411 -18.588 -19.951  0.00  0.00    +0.116 C 
BRANCH  20  21
ATOM     21  C   UNL     1      35.816 -18.006 -21.200  0.00  0.00    -0.003 C 
ATOM     22  C   UNL     1      35.158 -18.835 -22.109  0.00  0.00    -0.003 C 
ATOM     23  C   UNL     1      35.923 -16.638 -21.455  0.00  0.00    -0.003 C 
ATOM     24  C   UNL     1      34.606 -18.296 -23.272  0.00  0.00    +0.002 C 
ATOM     25  C   UNL     1      35.371 -16.100 -22.617  0.00  0.00    +0.002 C 
ATOM     26  C   UNL     1      34.713 -16.929 -23.526  0.00  0.00    +0.031 C 
BRANCH  26  29
ATOM     27  N   UNL     1      32.868 -16.738 -25.176  0.00  0.00    -0.343 N 
ATOM     28  N   UNL     1      34.823 -15.489 -25.446  0.00  0.00    -0.285 NA
ATOM     29  C   UNL     1      34.137 -16.367 -24.737  0.00  0.00    +0.117 C 
ATOM     30  H   UNL     1      32.497 -16.346 -25.999  0.00  0.00    +0.144 HD
ATOM     31  H   UNL     1      32.342 -17.394 -24.664  0.00  0.00    +0.144 HD
ATOM     32  H   UNL     1      34.435 -15.108 -26.267  0.00  0.00    +0.188 HD
ENDBRANCH  26  29
ENDBRANCH  20  21
ENDBRANCH   2  20
TORSDOF 7
ENDMDL
