MODEL 1
REMARK VINA RESULT:     -12.3      0.000      0.000
REMARK  Name = 66645351
REMARK  11 active torsions:
REMARK  status: ('A' for Active; 'I' for Inactive)
REMARK    1  A    between atoms: C_2  and  C_4
REMARK    2  A    between atoms: C_2  and  C_18
REMARK    3  A    between atoms: C_3  and  C_5
REMARK    4  A    between atoms: C_6  and  O_11
REMARK    5  A    between atoms: C_8  and  O_13
REMARK    6  A    between atoms: O_13  and  S_14
REMARK    7  A    between atoms: C_18  and  C_20
REMARK    8  A    between atoms: C_20  and  C_22
REMARK    9  A    between atoms: C_21  and  C_23
REMARK   10  A    between atoms: C_25  and  O_29
REMARK   11  A    between atoms: C_27  and  O_31
REMARK                            x       y       z     vdW  Elec       q    Type
REMARK                         _______ _______ _______ _____ _____    ______ ____
ROOT
ATOM      1  O   UNL     1      32.760 -21.233 -19.604  0.00  0.00    -0.291 OA
ATOM      2  C   UNL     1      33.749 -21.540 -18.944  0.00  0.00    +0.181 C 
ENDROOT
BRANCH   2   4
ATOM      3  C   UNL     1      34.728 -22.187 -16.781  0.00  0.00    +0.003 C 
ATOM      4  C   UNL     1      33.633 -22.028 -17.538  0.00  0.00    +0.038 C 
BRANCH   3   5
ATOM      5  C   UNL     1      34.719 -22.653 -15.383  0.00  0.00    +0.003 C 
ATOM      6  C   UNL     1      33.502 -23.224 -13.375  0.00  0.00    +0.175 C 
ATOM      7  C   UNL     1      33.511 -22.783 -14.699  0.00  0.00    +0.040 C 
ATOM      8  C   UNL     1      34.703 -23.535 -12.736  0.00  0.00    +0.209 C 
ATOM      9  C   UNL     1      35.920 -22.964 -14.744  0.00  0.00    +0.003 C 
ATOM     10  C   UNL     1      35.912 -23.405 -13.421  0.00  0.00    +0.043 C 
BRANCH   6  11
ATOM     11  O   UNL     1      32.316 -23.348 -12.718  0.00  0.00    -0.468 OA
ATOM     12  C   UNL     1      31.384 -24.295 -13.236  0.00  0.00    +0.253 C 
ENDBRANCH   6  11
BRANCH   8  13
ATOM     13  O   UNL     1      34.708 -23.966 -11.444  0.00  0.00    -0.319 OA
BRANCH  13  14
ATOM     14  S   UNL     1      36.111 -23.902 -10.590  0.00  0.00    +0.282 S 
ATOM     15  O   UNL     1      35.623 -23.932  -9.033  0.00  0.00    -0.012 OA
ATOM     16  O   UNL     1      36.873 -25.112 -10.842  0.00  0.00    -0.105 OA
ATOM     17  O   UNL     1      36.714 -22.604 -10.830  0.00  0.00    -0.105 OA
ENDBRANCH  13  14
ENDBRANCH   8  13
ENDBRANCH   3   5
ENDBRANCH   2   4
BRANCH   2  18
ATOM     18  C   UNL     1      35.161 -21.408 -19.479  0.00  0.00    +0.138 C 
BRANCH  18  20
ATOM     19  O   UNL     1      36.570 -19.554 -18.857  0.00  0.00    -0.291 OA
ATOM     20  C   UNL     1      35.685 -19.989 -19.589  0.00  0.00    +0.181 C 
BRANCH  20  22
ATOM     21  C   UNL     1      35.712 -18.709 -21.689  0.00  0.00    +0.003 C 
ATOM     22  C   UNL     1      35.025 -19.133 -20.618  0.00  0.00    +0.038 C 
BRANCH  21  23
ATOM     23  C   UNL     1      35.158 -17.856 -22.755  0.00  0.00    +0.003 C 
ATOM     24  C   UNL     1      35.314 -16.471 -22.694  0.00  0.00    +0.040 C 
ATOM     25  C   UNL     1      34.790 -15.664 -23.702  0.00  0.00    +0.172 C 
ATOM     26  C   UNL     1      34.474 -18.433 -23.826  0.00  0.00    +0.003 C 
ATOM     27  C   UNL     1      34.107 -16.241 -24.773  0.00  0.00    +0.168 C 
ATOM     28  C   UNL     1      33.948 -17.626 -24.834  0.00  0.00    +0.040 C 
BRANCH  25  29
ATOM     29  O   UNL     1      34.950 -14.313 -23.632  0.00  0.00    -0.468 OA
ATOM     30  C   UNL     1      34.652 -13.690 -22.384  0.00  0.00    +0.253 C 
ENDBRANCH  25  29
BRANCH  27  31
ATOM     31  O   UNL     1      33.589 -15.464 -25.765  0.00  0.00    -0.503 OA
ATOM     32  H   UNL     1      32.805 -15.728 -26.206  0.00  0.00    +0.292 HD
ENDBRANCH  27  31
ENDBRANCH  21  23
ENDBRANCH  20  22
ENDBRANCH  18  20
ENDBRANCH   2  18
TORSDOF 11
ENDMDL
MODEL 2
REMARK VINA RESULT:     -12.0      1.068      2.097
REMARK  Name = 66645351
REMARK  11 active torsions:
REMARK  status: ('A' for Active; 'I' for Inactive)
REMARK    1  A    between atoms: C_2  and  C_4
REMARK    2  A    between atoms: C_2  and  C_18
REMARK    3  A    between atoms: C_3  and  C_5
REMARK    4  A    between atoms: C_6  and  O_11
REMARK    5  A    between atoms: C_8  and  O_13
REMARK    6  A    between atoms: O_13  and  S_14
REMARK    7  A    between atoms: C_18  and  C_20
REMARK    8  A    between atoms: C_20  and  C_22
REMARK    9  A    between atoms: C_21  and  C_23
REMARK   10  A    between atoms: C_25  and  O_29
REMARK   11  A    between atoms: C_27  and  O_31
REMARK                            x       y       z     vdW  Elec       q    Type
REMARK                         _______ _______ _______ _____ _____    ______ ____
ROOT
ATOM      1  O   UNL     1      32.689 -20.791 -18.987  0.00  0.00    -0.291 OA
ATOM      2  C   UNL     1      33.719 -21.355 -18.625  0.00  0.00    +0.181 C 
ENDROOT
BRANCH   2   4
ATOM      3  C   UNL     1      35.000 -22.079 -16.654  0.00  0.00    +0.003 C 
ATOM      4  C   UNL     1      33.823 -22.017 -17.291  0.00  0.00    +0.038 C 
BRANCH   3   5
ATOM      5  C   UNL     1      35.206 -22.701 -15.333  0.00  0.00    +0.003 C 
ATOM      6  C   UNL     1      36.651 -23.813 -13.747  0.00  0.00    +0.175 C 
ATOM      7  C   UNL     1      36.454 -23.223 -14.997  0.00  0.00    +0.040 C 
ATOM      8  C   UNL     1      35.597 -23.880 -12.835  0.00  0.00    +0.209 C 
ATOM      9  C   UNL     1      34.153 -22.768 -14.421  0.00  0.00    +0.003 C 
ATOM     10  C   UNL     1      34.348 -23.357 -13.172  0.00  0.00    +0.043 C 
BRANCH   6  11
ATOM     11  O   UNL     1      37.875 -24.319 -13.429  0.00  0.00    -0.468 OA
ATOM     12  C   UNL     1      38.367 -25.384 -14.240  0.00  0.00    +0.253 C 
ENDBRANCH   6  11
BRANCH   8  13
ATOM     13  O   UNL     1      35.776 -24.453 -11.612  0.00  0.00    -0.319 OA
BRANCH  13  14
ATOM     14  S   UNL     1      36.471 -23.568 -10.414  0.00  0.00    +0.282 S 
ATOM     15  O   UNL     1      37.965 -24.210 -10.271  0.00  0.00    -0.012 OA
ATOM     16  O   UNL     1      36.616 -22.196 -10.863  0.00  0.00    -0.105 OA
ATOM     17  O   UNL     1      35.757 -23.856  -9.183  0.00  0.00    -0.105 OA
ENDBRANCH  13  14
ENDBRANCH   8  13
ENDBRANCH   3   5
ENDBRANCH   2   4
BRANCH   2  18
ATOM     18  C   UNL     1      34.973 -21.388 -19.475  0.00  0.00    +0.138 C 
BRANCH  18  20
ATOM     19  O   UNL     1      36.467 -19.529 -19.121  0.00  0.00    -0.291 OA
ATOM     20  C   UNL     1      35.575 -20.034 -19.798  0.00  0.00    +0.181 C 
BRANCH  20  22
ATOM     21  C   UNL     1      35.592 -18.251 -21.492  0.00  0.00    +0.003 C 
ATOM     22  C   UNL     1      34.984 -19.326 -20.972  0.00  0.00    +0.038 C 
BRANCH  21  23
ATOM     23  C   UNL     1      35.089 -17.478 -22.641  0.00  0.00    +0.003 C 
ATOM     24  C   UNL     1      35.169 -16.086 -22.635  0.00  0.00    +0.040 C 
ATOM     25  C   UNL     1      34.693 -15.354 -23.723  0.00  0.00    +0.172 C 
ATOM     26  C   UNL     1      34.530 -18.139 -23.736  0.00  0.00    +0.003 C 
ATOM     27  C   UNL     1      34.134 -16.015 -24.817  0.00  0.00    +0.168 C 
ATOM     28  C   UNL     1      34.052 -17.408 -24.823  0.00  0.00    +0.040 C 
BRANCH  25  29
ATOM     29  O   UNL     1      34.777 -13.994 -23.705  0.00  0.00    -0.468 OA
ATOM     30  C   UNL     1      33.642 -13.281 -23.218  0.00  0.00    +0.253 C 
ENDBRANCH  25  29
BRANCH  27  31
ATOM     31  O   UNL     1      33.664 -15.312 -25.885  0.00  0.00    -0.503 OA
ATOM     32  H   UNL     1      33.778 -14.383 -25.921  0.00  0.00    +0.292 HD
ENDBRANCH  27  31
ENDBRANCH  21  23
ENDBRANCH  20  22
ENDBRANCH  18  20
ENDBRANCH   2  18
TORSDOF 11
ENDMDL
MODEL 3
REMARK VINA RESULT:     -11.6      4.247      6.809
REMARK  Name = 66645351
REMARK  11 active torsions:
REMARK  status: ('A' for Active; 'I' for Inactive)
REMARK    1  A    between atoms: C_2  and  C_4
REMARK    2  A    between atoms: C_2  and  C_18
REMARK    3  A    between atoms: C_3  and  C_5
REMARK    4  A    between atoms: C_6  and  O_11
REMARK    5  A    between atoms: C_8  and  O_13
REMARK    6  A    between atoms: O_13  and  S_14
REMARK    7  A    between atoms: C_18  and  C_20
REMARK    8  A    between atoms: C_20  and  C_22
REMARK    9  A    between atoms: C_21  and  C_23
REMARK   10  A    between atoms: C_25  and  O_29
REMARK   11  A    between atoms: C_27  and  O_31
REMARK                            x       y       z     vdW  Elec       q    Type
REMARK                         _______ _______ _______ _____ _____    ______ ____
ROOT
ATOM      1  O   UNL     1      30.847 -23.191 -12.130  0.00  0.00    -0.291 OA
ATOM      2  C   UNL     1      31.170 -23.797 -13.148  0.00  0.00    +0.181 C 
ENDROOT
BRANCH   2   4
ATOM      3  C   UNL     1      33.622 -23.645 -13.283  0.00  0.00    +0.003 C 
ATOM      4  C   UNL     1      32.523 -24.411 -13.301  0.00  0.00    +0.038 C 
BRANCH   3   5
ATOM      5  C   UNL     1      35.000 -24.153 -13.416  0.00  0.00    +0.003 C 
ATOM      6  C   UNL     1      37.233 -24.401 -12.528  0.00  0.00    +0.175 C 
ATOM      7  C   UNL     1      35.929 -23.922 -12.403  0.00  0.00    +0.040 C 
ATOM      8  C   UNL     1      37.607 -25.114 -13.668  0.00  0.00    +0.209 C 
ATOM      9  C   UNL     1      35.373 -24.866 -14.556  0.00  0.00    +0.003 C 
ATOM     10  C   UNL     1      36.677 -25.346 -14.682  0.00  0.00    +0.043 C 
BRANCH   6  11
ATOM     11  O   UNL     1      38.132 -24.170 -11.531  0.00  0.00    -0.468 OA
ATOM     12  C   UNL     1      38.425 -22.808 -11.227  0.00  0.00    +0.253 C 
ENDBRANCH   6  11
BRANCH   8  13
ATOM     13  O   UNL     1      38.877 -25.588 -13.803  0.00  0.00    -0.319 OA
BRANCH  13  14
ATOM     14  S   UNL     1      40.054 -24.567 -14.325  0.00  0.00    +0.282 S 
ATOM     15  O   UNL     1      40.882 -25.453 -15.419  0.00  0.00    -0.012 OA
ATOM     16  O   UNL     1      39.439 -23.455 -15.027  0.00  0.00    -0.105 OA
ATOM     17  O   UNL     1      40.946 -24.315 -13.208  0.00  0.00    -0.105 OA
ENDBRANCH  13  14
ENDBRANCH   8  13
ENDBRANCH   3   5
ENDBRANCH   2   4
BRANCH   2  18
ATOM     18  C   UNL     1      30.249 -23.930 -14.344  0.00  0.00    +0.138 C 
BRANCH  18  20
ATOM     19  O   UNL     1      28.822 -22.192 -15.210  0.00  0.00    -0.291 OA
ATOM     20  C   UNL     1      29.958 -22.642 -15.088  0.00  0.00    +0.181 C 
BRANCH  20  22
ATOM     21  C   UNL     1      31.968 -22.656 -16.507  0.00  0.00    +0.003 C 
ATOM     22  C   UNL     1      31.139 -21.970 -15.707  0.00  0.00    +0.038 C 
BRANCH  21  23
ATOM     23  C   UNL     1      33.162 -22.091 -17.159  0.00  0.00    +0.003 C 
ATOM     24  C   UNL     1      34.424 -22.294 -16.601  0.00  0.00    +0.040 C 
ATOM     25  C   UNL     1      35.555 -21.758 -17.217  0.00  0.00    +0.172 C 
ATOM     26  C   UNL     1      33.031 -21.350 -18.334  0.00  0.00    +0.003 C 
ATOM     27  C   UNL     1      35.423 -21.018 -18.392  0.00  0.00    +0.168 C 
ATOM     28  C   UNL     1      34.161 -20.814 -18.950  0.00  0.00    +0.040 C 
BRANCH  25  29
ATOM     29  O   UNL     1      36.782 -21.964 -16.663  0.00  0.00    -0.468 OA
ATOM     30  C   UNL     1      37.016 -21.390 -15.378  0.00  0.00    +0.253 C 
ENDBRANCH  25  29
BRANCH  27  31
ATOM     31  O   UNL     1      36.519 -20.489 -19.004  0.00  0.00    -0.503 OA
ATOM     32  H   UNL     1      36.451 -19.677 -19.467  0.00  0.00    +0.292 HD
ENDBRANCH  27  31
ENDBRANCH  21  23
ENDBRANCH  20  22
ENDBRANCH  18  20
ENDBRANCH   2  18
TORSDOF 11
ENDMDL
MODEL 4
REMARK VINA RESULT:     -11.5      1.559      2.993
REMARK  Name = 66645351
REMARK  11 active torsions:
REMARK  status: ('A' for Active; 'I' for Inactive)
REMARK    1  A    between atoms: C_2  and  C_4
REMARK    2  A    between atoms: C_2  and  C_18
REMARK    3  A    between atoms: C_3  and  C_5
REMARK    4  A    between atoms: C_6  and  O_11
REMARK    5  A    between atoms: C_8  and  O_13
REMARK    6  A    between atoms: O_13  and  S_14
REMARK    7  A    between atoms: C_18  and  C_20
REMARK    8  A    between atoms: C_20  and  C_22
REMARK    9  A    between atoms: C_21  and  C_23
REMARK   10  A    between atoms: C_25  and  O_29
REMARK   11  A    between atoms: C_27  and  O_31
REMARK                            x       y       z     vdW  Elec       q    Type
REMARK                         _______ _______ _______ _____ _____    ______ ____
ROOT
ATOM      1  O   UNL     1      33.224 -20.254 -19.264  0.00  0.00    -0.291 OA
ATOM      2  C   UNL     1      34.278 -20.858 -19.081  0.00  0.00    +0.181 C 
ENDROOT
BRANCH   2   4
ATOM      3  C   UNL     1      35.401 -21.503 -16.989  0.00  0.00    +0.003 C 
ATOM      4  C   UNL     1      34.467 -21.769 -17.913  0.00  0.00    +0.038 C 
BRANCH   3   5
ATOM      5  C   UNL     1      35.661 -22.332 -15.798  0.00  0.00    +0.003 C 
ATOM      6  C   UNL     1      37.210 -23.254 -14.190  0.00  0.00    +0.175 C 
ATOM      7  C   UNL     1      36.962 -22.470 -15.317  0.00  0.00    +0.040 C 
ATOM      8  C   UNL     1      36.154 -23.901 -13.545  0.00  0.00    +0.209 C 
ATOM      9  C   UNL     1      34.606 -22.978 -15.154  0.00  0.00    +0.003 C 
ATOM     10  C   UNL     1      34.853 -23.762 -14.027  0.00  0.00    +0.043 C 
BRANCH   6  11
ATOM     11  O   UNL     1      38.485 -23.381 -13.728  0.00  0.00    -0.468 OA
ATOM     12  C   UNL     1      39.245 -24.483 -14.218  0.00  0.00    +0.253 C 
ENDBRANCH   6  11
BRANCH   8  13
ATOM     13  O   UNL     1      36.383 -24.670 -12.444  0.00  0.00    -0.319 OA
BRANCH  13  14
ATOM     14  S   UNL     1      36.446 -23.947 -10.969  0.00  0.00    +0.282 S 
ATOM     15  O   UNL     1      37.967 -24.241 -10.454  0.00  0.00    -0.012 OA
ATOM     16  O   UNL     1      36.302 -22.513 -11.139  0.00  0.00    -0.105 OA
ATOM     17  O   UNL     1      35.544 -24.666 -10.088  0.00  0.00    -0.105 OA
ENDBRANCH  13  14
ENDBRANCH   8  13
ENDBRANCH   3   5
ENDBRANCH   2   4
BRANCH   2  18
ATOM     18  C   UNL     1      35.479 -20.697 -19.991  0.00  0.00    +0.138 C 
BRANCH  18  20
ATOM     19  O   UNL     1      37.127 -19.243 -19.002  0.00  0.00    -0.291 OA
ATOM     20  C   UNL     1      36.241 -19.395 -19.838  0.00  0.00    +0.181 C 
BRANCH  20  22
ATOM     21  C   UNL     1      35.673 -17.040 -20.269  0.00  0.00    +0.003 C 
ATOM     22  C   UNL     1      35.816 -18.286 -20.743  0.00  0.00    +0.038 C 
BRANCH  21  23
ATOM     23  C   UNL     1      35.252 -15.881 -21.074  0.00  0.00    +0.003 C 
ATOM     24  C   UNL     1      35.193 -15.981 -22.464  0.00  0.00    +0.040 C 
ATOM     25  C   UNL     1      34.796 -14.884 -23.228  0.00  0.00    +0.172 C 
ATOM     26  C   UNL     1      34.915 -14.681 -20.447  0.00  0.00    +0.003 C 
ATOM     27  C   UNL     1      34.458 -13.684 -22.600  0.00  0.00    +0.168 C 
ATOM     28  C   UNL     1      34.518 -13.582 -21.210  0.00  0.00    +0.040 C 
BRANCH  25  29
ATOM     29  O   UNL     1      34.741 -14.994 -24.584  0.00  0.00    -0.468 OA
ATOM     30  C   UNL     1      33.830 -15.952 -25.119  0.00  0.00    +0.253 C 
ENDBRANCH  25  29
BRANCH  27  31
ATOM     31  O   UNL     1      34.069 -12.604 -23.334  0.00  0.00    -0.503 OA
ATOM     32  H   UNL     1      33.809 -12.714 -24.228  0.00  0.00    +0.292 HD
ENDBRANCH  27  31
ENDBRANCH  21  23
ENDBRANCH  20  22
ENDBRANCH  18  20
ENDBRANCH   2  18
TORSDOF 11
ENDMDL
MODEL 5
REMARK VINA RESULT:     -11.3      1.562      2.589
REMARK  Name = 66645351
REMARK  11 active torsions:
REMARK  status: ('A' for Active; 'I' for Inactive)
REMARK    1  A    between atoms: C_2  and  C_4
REMARK    2  A    between atoms: C_2  and  C_18
REMARK    3  A    between atoms: C_3  and  C_5
REMARK    4  A    between atoms: C_6  and  O_11
REMARK    5  A    between atoms: C_8  and  O_13
REMARK    6  A    between atoms: O_13  and  S_14
REMARK    7  A    between atoms: C_18  and  C_20
REMARK    8  A    between atoms: C_20  and  C_22
REMARK    9  A    between atoms: C_21  and  C_23
REMARK   10  A    between atoms: C_25  and  O_29
REMARK   11  A    between atoms: C_27  and  O_31
REMARK                            x       y       z     vdW  Elec       q    Type
REMARK                         _______ _______ _______ _____ _____    ______ ____
ROOT
ATOM      1  O   UNL     1      33.523 -20.468 -19.368  0.00  0.00    -0.291 OA
ATOM      2  C   UNL     1      34.661 -20.862 -19.127  0.00  0.00    +0.181 C 
ENDROOT
BRANCH   2   4
ATOM      3  C   UNL     1      36.016 -21.247 -17.110  0.00  0.00    +0.003 C 
ATOM      4  C   UNL     1      34.983 -21.616 -17.879  0.00  0.00    +0.038 C 
BRANCH   3   5
ATOM      5  C   UNL     1      36.411 -21.917 -15.858  0.00  0.00    +0.003 C 
ATOM      6  C   UNL     1      35.815 -22.883 -13.725  0.00  0.00    +0.175 C 
ATOM      7  C   UNL     1      35.443 -22.249 -14.911  0.00  0.00    +0.040 C 
ATOM      8  C   UNL     1      37.156 -23.185 -13.487  0.00  0.00    +0.209 C 
ATOM      9  C   UNL     1      37.752 -22.219 -15.621  0.00  0.00    +0.003 C 
ATOM     10  C   UNL     1      38.124 -22.853 -14.435  0.00  0.00    +0.043 C 
BRANCH   6  11
ATOM     11  O   UNL     1      34.860 -23.203 -12.807  0.00  0.00    -0.468 OA
ATOM     12  C   UNL     1      33.604 -23.655 -13.310  0.00  0.00    +0.253 C 
ENDBRANCH   6  11
BRANCH   8  13
ATOM     13  O   UNL     1      37.532 -23.803 -12.333  0.00  0.00    -0.319 OA
BRANCH  13  14
ATOM     14  S   UNL     1      37.852 -25.415 -12.364  0.00  0.00    +0.282 S 
ATOM     15  O   UNL     1      36.891 -25.982 -13.556  0.00  0.00    -0.012 OA
ATOM     16  O   UNL     1      39.231 -25.616 -12.770  0.00  0.00    -0.105 OA
ATOM     17  O   UNL     1      37.375 -25.983 -11.116  0.00  0.00    -0.105 OA
ENDBRANCH  13  14
ENDBRANCH   8  13
ENDBRANCH   3   5
ENDBRANCH   2   4
BRANCH   2  18
ATOM     18  C   UNL     1      35.833 -20.581 -20.046  0.00  0.00    +0.138 C 
BRANCH  18  20
ATOM     19  O   UNL     1      37.155 -18.629 -19.546  0.00  0.00    -0.291 OA
ATOM     20  C   UNL     1      36.223 -19.122 -20.175  0.00  0.00    +0.181 C 
BRANCH  20  22
ATOM     21  C   UNL     1      35.929 -17.406 -21.913  0.00  0.00    +0.003 C 
ATOM     22  C   UNL     1      35.371 -18.302 -21.087  0.00  0.00    +0.038 C 
BRANCH  21  23
ATOM     23  C   UNL     1      35.179 -16.545 -22.844  0.00  0.00    +0.003 C 
ATOM     24  C   UNL     1      34.460 -17.114 -23.896  0.00  0.00    +0.040 C 
ATOM     25  C   UNL     1      33.750 -16.299 -24.778  0.00  0.00    +0.172 C 
ATOM     26  C   UNL     1      35.189 -15.160 -22.676  0.00  0.00    +0.003 C 
ATOM     27  C   UNL     1      33.761 -14.915 -24.609  0.00  0.00    +0.168 C 
ATOM     28  C   UNL     1      34.480 -14.345 -23.559  0.00  0.00    +0.040 C 
BRANCH  25  29
ATOM     29  O   UNL     1      33.052 -16.867 -25.800  0.00  0.00    -0.468 OA
ATOM     30  C   UNL     1      32.347 -18.073 -25.512  0.00  0.00    +0.253 C 
ENDBRANCH  25  29
BRANCH  27  31
ATOM     31  O   UNL     1      33.072 -14.107 -25.464  0.00  0.00    -0.503 OA
ATOM     32  H   UNL     1      33.237 -13.185 -25.472  0.00  0.00    +0.292 HD
ENDBRANCH  27  31
ENDBRANCH  21  23
ENDBRANCH  20  22
ENDBRANCH  18  20
ENDBRANCH   2  18
TORSDOF 11
ENDMDL
MODEL 6
REMARK VINA RESULT:     -11.1      3.523     11.827
REMARK  Name = 66645351
REMARK  11 active torsions:
REMARK  status: ('A' for Active; 'I' for Inactive)
REMARK    1  A    between atoms: C_2  and  C_4
REMARK    2  A    between atoms: C_2  and  C_18
REMARK    3  A    between atoms: C_3  and  C_5
REMARK    4  A    between atoms: C_6  and  O_11
REMARK    5  A    between atoms: C_8  and  O_13
REMARK    6  A    between atoms: O_13  and  S_14
REMARK    7  A    between atoms: C_18  and  C_20
REMARK    8  A    between atoms: C_20  and  C_22
REMARK    9  A    between atoms: C_21  and  C_23
REMARK   10  A    between atoms: C_25  and  O_29
REMARK   11  A    between atoms: C_27  and  O_31
REMARK                            x       y       z     vdW  Elec       q    Type
REMARK                         _______ _______ _______ _____ _____    ______ ____
ROOT
ATOM      1  O   UNL     1      32.960 -21.577 -18.945  0.00  0.00    -0.291 OA
ATOM      2  C   UNL     1      34.001 -20.977 -19.198  0.00  0.00    +0.181 C 
ENDROOT
BRANCH   2   4
ATOM      3  C   UNL     1      34.996 -19.184 -20.558  0.00  0.00    +0.003 C 
ATOM      4  C   UNL     1      33.993 -19.598 -19.771  0.00  0.00    +0.038 C 
BRANCH   3   5
ATOM      5  C   UNL     1      35.078 -17.849 -21.178  0.00  0.00    +0.003 C 
ATOM      6  C   UNL     1      35.088 -16.457 -23.153  0.00  0.00    +0.175 C 
ATOM      7  C   UNL     1      35.010 -17.720 -22.565  0.00  0.00    +0.040 C 
ATOM      8  C   UNL     1      35.234 -15.323 -22.352  0.00  0.00    +0.209 C 
ATOM      9  C   UNL     1      35.224 -16.716 -20.378  0.00  0.00    +0.003 C 
ATOM     10  C   UNL     1      35.302 -15.453 -20.965  0.00  0.00    +0.043 C 
BRANCH   6  11
ATOM     11  O   UNL     1      35.019 -16.343 -24.509  0.00  0.00    -0.468 OA
ATOM     12  C   UNL     1      33.728 -16.450 -25.103  0.00  0.00    +0.253 C 
ENDBRANCH   6  11
BRANCH   8  13
ATOM     13  O   UNL     1      35.312 -14.085 -22.914  0.00  0.00    -0.319 OA
BRANCH  13  14
ATOM     14  S   UNL     1      33.985 -13.115 -22.886  0.00  0.00    +0.282 S 
ATOM     15  O   UNL     1      33.263 -13.482 -21.468  0.00  0.00    -0.012 OA
ATOM     16  O   UNL     1      34.414 -11.730 -22.821  0.00  0.00    -0.105 OA
ATOM     17  O   UNL     1      33.098 -13.550 -23.949  0.00  0.00    -0.105 OA
ENDBRANCH  13  14
ENDBRANCH   8  13
ENDBRANCH   3   5
ENDBRANCH   2   4
BRANCH   2  18
ATOM     18  C   UNL     1      35.369 -21.597 -18.996  0.00  0.00    +0.138 C 
BRANCH  18  20
ATOM     19  O   UNL     1      36.848 -20.113 -17.806  0.00  0.00    -0.291 OA
ATOM     20  C   UNL     1      36.132 -21.110 -17.780  0.00  0.00    +0.181 C 
BRANCH  20  22
ATOM     21  C   UNL     1      37.001 -22.027 -15.669  0.00  0.00    +0.003 C 
ATOM     22  C   UNL     1      35.994 -21.946 -16.551  0.00  0.00    +0.038 C 
BRANCH  21  23
ATOM     23  C   UNL     1      36.969 -22.828 -14.433  0.00  0.00    +0.003 C 
ATOM     24  C   UNL     1      38.011 -23.709 -14.145  0.00  0.00    +0.040 C 
ATOM     25  C   UNL     1      37.981 -24.468 -12.976  0.00  0.00    +0.172 C 
ATOM     26  C   UNL     1      35.895 -22.706 -13.550  0.00  0.00    +0.003 C 
ATOM     27  C   UNL     1      36.907 -24.346 -12.093  0.00  0.00    +0.168 C 
ATOM     28  C   UNL     1      35.864 -23.466 -12.381  0.00  0.00    +0.040 C 
BRANCH  25  29
ATOM     29  O   UNL     1      39.005 -25.324 -12.705  0.00  0.00    -0.468 OA
ATOM     30  C   UNL     1      40.171 -25.217 -13.520  0.00  0.00    +0.253 C 
ENDBRANCH  25  29
BRANCH  27  31
ATOM     31  O   UNL     1      36.866 -25.082 -10.947  0.00  0.00    -0.503 OA
ATOM     32  H   UNL     1      37.607 -25.596 -10.694  0.00  0.00    +0.292 HD
ENDBRANCH  27  31
ENDBRANCH  21  23
ENDBRANCH  20  22
ENDBRANCH  18  20
ENDBRANCH   2  18
TORSDOF 11
ENDMDL
MODEL 7
REMARK VINA RESULT:     -11.1      4.157     10.198
REMARK  Name = 66645351
REMARK  11 active torsions:
REMARK  status: ('A' for Active; 'I' for Inactive)
REMARK    1  A    between atoms: C_2  and  C_4
REMARK    2  A    between atoms: C_2  and  C_18
REMARK    3  A    between atoms: C_3  and  C_5
REMARK    4  A    between atoms: C_6  and  O_11
REMARK    5  A    between atoms: C_8  and  O_13
REMARK    6  A    between atoms: O_13  and  S_14
REMARK    7  A    between atoms: C_18  and  C_20
REMARK    8  A    between atoms: C_20  and  C_22
REMARK    9  A    between atoms: C_21  and  C_23
REMARK   10  A    between atoms: C_25  and  O_29
REMARK   11  A    between atoms: C_27  and  O_31
REMARK                            x       y       z     vdW  Elec       q    Type
REMARK                         _______ _______ _______ _____ _____    ______ ____
ROOT
ATOM      1  O   UNL     1      29.452 -23.355 -15.996  0.00  0.00    -0.291 OA
ATOM      2  C   UNL     1      30.430 -22.740 -15.578  0.00  0.00    +0.181 C 
ENDROOT
BRANCH   2   4
ATOM      3  C   UNL     1      32.623 -22.390 -16.637  0.00  0.00    +0.003 C 
ATOM      4  C   UNL     1      31.347 -22.005 -16.499  0.00  0.00    +0.038 C 
BRANCH   3   5
ATOM      5  C   UNL     1      33.604 -21.739 -17.524  0.00  0.00    +0.003 C 
ATOM      6  C   UNL     1      35.884 -21.111 -18.018  0.00  0.00    +0.175 C 
ATOM      7  C   UNL     1      34.954 -21.727 -17.180  0.00  0.00    +0.040 C 
ATOM      8  C   UNL     1      35.460 -20.505 -19.202  0.00  0.00    +0.209 C 
ATOM      9  C   UNL     1      33.180 -21.134 -18.708  0.00  0.00    +0.003 C 
ATOM     10  C   UNL     1      34.108 -20.517 -19.547  0.00  0.00    +0.043 C 
BRANCH   6  11
ATOM     11  O   UNL     1      37.201 -21.107 -17.671  0.00  0.00    -0.468 OA
ATOM     12  C   UNL     1      37.506 -21.211 -16.282  0.00  0.00    +0.253 C 
ENDBRANCH   6  11
BRANCH   8  13
ATOM     13  O   UNL     1      36.357 -19.900 -20.029  0.00  0.00    -0.319 OA
BRANCH  13  14
ATOM     14  S   UNL     1      35.898 -18.551 -20.848  0.00  0.00    +0.282 S 
ATOM     15  O   UNL     1      37.298 -17.959 -21.443  0.00  0.00    -0.012 OA
ATOM     16  O   UNL     1      35.066 -18.940 -21.972  0.00  0.00    -0.105 OA
ATOM     17  O   UNL     1      35.401 -17.593 -19.877  0.00  0.00    -0.105 OA
ENDBRANCH  13  14
ENDBRANCH   8  13
ENDBRANCH   3   5
ENDBRANCH   2   4
BRANCH   2  18
ATOM     18  C   UNL     1      30.811 -22.713 -14.112  0.00  0.00    +0.138 C 
BRANCH  18  20
ATOM     19  O   UNL     1      31.377 -25.031 -13.772  0.00  0.00    -0.291 OA
ATOM     20  C   UNL     1      31.697 -23.852 -13.648  0.00  0.00    +0.181 C 
BRANCH  20  22
ATOM     21  C   UNL     1      34.144 -23.947 -13.413  0.00  0.00    +0.003 C 
ATOM     22  C   UNL     1      32.974 -23.451 -12.986  0.00  0.00    +0.038 C 
BRANCH  21  23
ATOM     23  C   UNL     1      35.456 -23.622 -12.826  0.00  0.00    +0.003 C 
ATOM     24  C   UNL     1      36.615 -23.753 -13.591  0.00  0.00    +0.040 C 
ATOM     25  C   UNL     1      37.857 -23.446 -13.035  0.00  0.00    +0.172 C 
ATOM     26  C   UNL     1      35.540 -23.186 -11.503  0.00  0.00    +0.003 C 
ATOM     27  C   UNL     1      37.940 -23.009 -11.713  0.00  0.00    +0.168 C 
ATOM     28  C   UNL     1      36.781 -22.880 -10.946  0.00  0.00    +0.040 C 
BRANCH  25  29
ATOM     29  O   UNL     1      38.981 -23.576 -13.793  0.00  0.00    -0.468 OA
ATOM     30  C   UNL     1      39.544 -24.883 -13.897  0.00  0.00    +0.253 C 
ENDBRANCH  25  29
BRANCH  27  31
ATOM     31  O   UNL     1      39.147 -22.707 -11.158  0.00  0.00    -0.503 OA
ATOM     32  H   UNL     1      39.185 -22.239 -10.347  0.00  0.00    +0.292 HD
ENDBRANCH  27  31
ENDBRANCH  21  23
ENDBRANCH  20  22
ENDBRANCH  18  20
ENDBRANCH   2  18
TORSDOF 11
ENDMDL
MODEL 8
REMARK VINA RESULT:     -11.0      3.515     11.939
REMARK  Name = 66645351
REMARK  11 active torsions:
REMARK  status: ('A' for Active; 'I' for Inactive)
REMARK    1  A    between atoms: C_2  and  C_4
REMARK    2  A    between atoms: C_2  and  C_18
REMARK    3  A    between atoms: C_3  and  C_5
REMARK    4  A    between atoms: C_6  and  O_11
REMARK    5  A    between atoms: C_8  and  O_13
REMARK    6  A    between atoms: O_13  and  S_14
REMARK    7  A    between atoms: C_18  and  C_20
REMARK    8  A    between atoms: C_20  and  C_22
REMARK    9  A    between atoms: C_21  and  C_23
REMARK   10  A    between atoms: C_25  and  O_29
REMARK   11  A    between atoms: C_27  and  O_31
REMARK                            x       y       z     vdW  Elec       q    Type
REMARK                         _______ _______ _______ _____ _____    ______ ____
ROOT
ATOM      1  O   UNL     1      36.581 -21.281 -17.678  0.00  0.00    -0.291 OA
ATOM      2  C   UNL     1      35.738 -21.143 -18.561  0.00  0.00    +0.181 C 
ENDROOT
BRANCH   2   4
ATOM      3  C   UNL     1      34.928 -19.396 -20.093  0.00  0.00    +0.003 C 
ATOM      4  C   UNL     1      35.933 -20.187 -19.691  0.00  0.00    +0.038 C 
BRANCH   3   5
ATOM      5  C   UNL     1      35.021 -18.415 -21.189  0.00  0.00    +0.003 C 
ATOM      6  C   UNL     1      35.333 -16.140 -21.939  0.00  0.00    +0.175 C 
ATOM      7  C   UNL     1      35.246 -17.070 -20.902  0.00  0.00    +0.040 C 
ATOM      8  C   UNL     1      35.196 -16.558 -23.264  0.00  0.00    +0.209 C 
ATOM      9  C   UNL     1      34.884 -18.833 -22.513  0.00  0.00    +0.003 C 
ATOM     10  C   UNL     1      34.972 -17.905 -23.550  0.00  0.00    +0.043 C 
BRANCH   6  11
ATOM     11  O   UNL     1      35.554 -14.828 -21.647  0.00  0.00    -0.468 OA
ATOM     12  C   UNL     1      34.722 -14.237 -20.651  0.00  0.00    +0.253 C 
ENDBRANCH   6  11
BRANCH   8  13
ATOM     13  O   UNL     1      35.280 -15.660 -24.285  0.00  0.00    -0.319 OA
BRANCH  13  14
ATOM     14  S   UNL     1      33.892 -15.063 -24.933  0.00  0.00    +0.282 S 
ATOM     15  O   UNL     1      34.411 -14.087 -26.134  0.00  0.00    -0.012 OA
ATOM     16  O   UNL     1      33.145 -16.152 -25.535  0.00  0.00    -0.105 OA
ATOM     17  O   UNL     1      33.265 -14.221 -23.931  0.00  0.00    -0.105 OA
ENDBRANCH  13  14
ENDBRANCH   8  13
ENDBRANCH   3   5
ENDBRANCH   2   4
BRANCH   2  18
ATOM     18  C   UNL     1      34.420 -21.892 -18.554  0.00  0.00    +0.138 C 
BRANCH  18  20
ATOM     19  O   UNL     1      32.618 -22.157 -16.977  0.00  0.00    -0.291 OA
ATOM     20  C   UNL     1      33.828 -22.154 -17.183  0.00  0.00    +0.181 C 
BRANCH  20  22
ATOM     21  C   UNL     1      34.481 -23.093 -15.005  0.00  0.00    +0.003 C 
ATOM     22  C   UNL     1      34.813 -22.367 -16.082  0.00  0.00    +0.038 C 
BRANCH  21  23
ATOM     23  C   UNL     1      35.374 -23.355 -13.863  0.00  0.00    +0.003 C 
ATOM     24  C   UNL     1      36.753 -23.432 -14.060  0.00  0.00    +0.040 C 
ATOM     25  C   UNL     1      37.600 -23.681 -12.980  0.00  0.00    +0.172 C 
ATOM     26  C   UNL     1      34.842 -23.529 -12.585  0.00  0.00    +0.003 C 
ATOM     27  C   UNL     1      37.066 -23.854 -11.702  0.00  0.00    +0.168 C 
ATOM     28  C   UNL     1      35.688 -23.779 -11.505  0.00  0.00    +0.040 C 
BRANCH  25  29
ATOM     29  O   UNL     1      38.945 -23.753 -13.184  0.00  0.00    -0.468 OA
ATOM     30  C   UNL     1      39.463 -24.997 -13.650  0.00  0.00    +0.253 C 
ENDBRANCH  25  29
BRANCH  27  31
ATOM     31  O   UNL     1      37.882 -24.099 -10.638  0.00  0.00    -0.503 OA
ATOM     32  H   UNL     1      37.721 -24.837 -10.085  0.00  0.00    +0.292 HD
ENDBRANCH  27  31
ENDBRANCH  21  23
ENDBRANCH  20  22
ENDBRANCH  18  20
ENDBRANCH   2  18
TORSDOF 11
ENDMDL
MODEL 9
REMARK VINA RESULT:     -10.9      3.435     11.550
REMARK  Name = 66645351
REMARK  11 active torsions:
REMARK  status: ('A' for Active; 'I' for Inactive)
REMARK    1  A    between atoms: C_2  and  C_4
REMARK    2  A    between atoms: C_2  and  C_18
REMARK    3  A    between atoms: C_3  and  C_5
REMARK    4  A    between atoms: C_6  and  O_11
REMARK    5  A    between atoms: C_8  and  O_13
REMARK    6  A    between atoms: O_13  and  S_14
REMARK    7  A    between atoms: C_18  and  C_20
REMARK    8  A    between atoms: C_20  and  C_22
REMARK    9  A    between atoms: C_21  and  C_23
REMARK   10  A    between atoms: C_25  and  O_29
REMARK   11  A    between atoms: C_27  and  O_31
REMARK                            x       y       z     vdW  Elec       q    Type
REMARK                         _______ _______ _______ _____ _____    ______ ____
ROOT
ATOM      1  O   UNL     1      36.880 -21.151 -17.969  0.00  0.00    -0.291 OA
ATOM      2  C   UNL     1      36.059 -20.788 -18.807  0.00  0.00    +0.181 C 
ENDROOT
BRANCH   2   4
ATOM      3  C   UNL     1      35.367 -19.124 -20.482  0.00  0.00    +0.003 C 
ATOM      4  C   UNL     1      36.090 -19.414 -19.392  0.00  0.00    +0.038 C 
BRANCH   3   5
ATOM      5  C   UNL     1      35.322 -17.800 -21.130  0.00  0.00    +0.003 C 
ATOM      6  C   UNL     1      35.072 -16.453 -23.120  0.00  0.00    +0.175 C 
ATOM      7  C   UNL     1      35.114 -17.705 -22.505  0.00  0.00    +0.040 C 
ATOM      8  C   UNL     1      35.238 -15.296 -22.357  0.00  0.00    +0.209 C 
ATOM      9  C   UNL     1      35.487 -16.644 -20.367  0.00  0.00    +0.003 C 
ATOM     10  C   UNL     1      35.445 -15.392 -20.981  0.00  0.00    +0.043 C 
BRANCH   6  11
ATOM     11  O   UNL     1      34.867 -16.372 -24.464  0.00  0.00    -0.468 OA
ATOM     12  C   UNL     1      33.938 -17.291 -25.034  0.00  0.00    +0.253 C 
ENDBRANCH   6  11
BRANCH   8  13
ATOM     13  O   UNL     1      35.199 -14.068 -22.945  0.00  0.00    -0.319 OA
BRANCH  13  14
ATOM     14  S   UNL     1      33.758 -13.285 -23.055  0.00  0.00    +0.282 S 
ATOM     15  O   UNL     1      34.177 -11.713 -23.191  0.00  0.00    -0.012 OA
ATOM     16  O   UNL     1      33.099 -13.678 -24.287  0.00  0.00    -0.105 OA
ATOM     17  O   UNL     1      33.073 -13.442 -21.785  0.00  0.00    -0.105 OA
ENDBRANCH  13  14
ENDBRANCH   8  13
ENDBRANCH   3   5
ENDBRANCH   2   4
BRANCH   2  18
ATOM     18  C   UNL     1      34.928 -21.678 -19.280  0.00  0.00    +0.138 C 
BRANCH  18  20
ATOM     19  O   UNL     1      32.746 -20.661 -19.177  0.00  0.00    -0.291 OA
ATOM     20  C   UNL     1      33.576 -21.400 -18.654  0.00  0.00    +0.181 C 
BRANCH  20  22
ATOM     21  C   UNL     1      32.092 -22.081 -16.814  0.00  0.00    +0.003 C 
ATOM     22  C   UNL     1      33.328 -22.048 -17.332  0.00  0.00    +0.038 C 
BRANCH  21  23
ATOM     23  C   UNL     1      31.744 -22.687 -15.517  0.00  0.00    +0.003 C 
ATOM     24  C   UNL     1      32.671 -22.686 -14.475  0.00  0.00    +0.040 C 
ATOM     25  C   UNL     1      32.343 -23.260 -13.247  0.00  0.00    +0.172 C 
ATOM     26  C   UNL     1      30.487 -23.263 -15.331  0.00  0.00    +0.003 C 
ATOM     27  C   UNL     1      31.086 -23.837 -13.062  0.00  0.00    +0.168 C 
ATOM     28  C   UNL     1      30.158 -23.839 -14.103  0.00  0.00    +0.040 C 
BRANCH  25  29
ATOM     29  O   UNL     1      33.257 -23.253 -12.237  0.00  0.00    -0.468 OA
ATOM     30  C   UNL     1      34.593 -23.621 -12.571  0.00  0.00    +0.253 C 
ENDBRANCH  25  29
BRANCH  27  31
ATOM     31  O   UNL     1      30.752 -24.401 -11.867  0.00  0.00    -0.503 OA
ATOM     32  H   UNL     1      31.413 -24.803 -11.338  0.00  0.00    +0.292 HD
ENDBRANCH  27  31
ENDBRANCH  21  23
ENDBRANCH  20  22
ENDBRANCH  18  20
ENDBRANCH   2  18
TORSDOF 11
ENDMDL
