MODEL 1
REMARK VINA RESULT:     -13.2      0.000      0.000
REMARK  Name = 23656870
REMARK  4 active torsions:
REMARK  status: ('A' for Active; 'I' for Inactive)
REMARK    1  A    between atoms: N_2  and  C_25
REMARK    2  A    between atoms: N_3  and  C_14
REMARK    3  A    between atoms: C_10  and  C_32
REMARK    4  A    between atoms: C_16  and  N_21
REMARK                            x       y       z     vdW  Elec       q    Type
REMARK                         _______ _______ _______ _____ _____    ______ ____
ROOT
ATOM      1  N   UNL     1      32.098 -22.865 -14.813  0.00  0.00    -0.123 N 
ATOM      2  N   UNL     1      34.352 -23.312 -14.275  0.00  0.00    -0.274 N 
ATOM      3  N   UNL     1      33.056 -21.552 -18.471  0.00  0.00    -0.238 N 
ATOM      4  N   UNL     1      33.709 -22.431 -16.379  0.00  0.00    -0.295 NA
ATOM      5  N   UNL     1      31.417 -21.992 -16.890  0.00  0.00    -0.314 NA
ATOM      6  N   UNL     1      31.661 -23.284 -13.611  0.00  0.00    -0.170 NA
ATOM      7  C   UNL     1      33.432 -22.864 -15.184  0.00  0.00    +0.279 C 
ATOM      8  C   UNL     1      31.108 -22.438 -15.651  0.00  0.00    +0.219 C 
ATOM      9  C   UNL     1      32.689 -21.997 -17.223  0.00  0.00    +0.207 C 
ATOM     10  C   UNL     1      29.937 -22.589 -14.944  0.00  0.00    +0.203 C 
ATOM     11  C   UNL     1      30.339 -23.112 -13.698  0.00  0.00    +0.116 C 
ATOM     12  H   UNL     1      33.992 -23.609 -13.408  0.00  0.00    +0.156 HD
ATOM     13  H   UNL     1      32.394 -21.681 -19.187  0.00  0.00    +0.166 HD
ENDROOT
BRANCH   3  14
ATOM     14  C   UNL     1      34.250 -20.941 -18.848  0.00  0.00    +0.060 C 
ATOM     15  C   UNL     1      34.244 -19.928 -19.807  0.00  0.00    +0.030 C 
ATOM     16  C   UNL     1      35.439 -19.315 -20.183  0.00  0.00    +0.052 C 
ATOM     17  C   UNL     1      35.453 -21.340 -18.264  0.00  0.00    +0.015 C 
ATOM     18  C   UNL     1      36.641 -19.715 -19.600  0.00  0.00    +0.015 C 
ATOM     19  C   UNL     1      36.648 -20.727 -18.639  0.00  0.00    +0.003 C 
BRANCH  16  21
ATOM     20  O   UNL     1      35.474 -16.321 -19.870  0.00  0.00    -0.275 OA
ATOM     21  N   UNL     1      35.433 -18.304 -21.144  0.00  0.00    -0.284 N 
ATOM     22  C   UNL     1      35.449 -16.917 -20.942  0.00  0.00    +0.227 C 
ATOM     23  C   UNL     1      35.435 -16.161 -22.247  0.00  0.00    +0.095 C 
ATOM     24  H   UNL     1      35.415 -18.602 -22.083  0.00  0.00    +0.155 HD
ENDBRANCH  16  21
ENDBRANCH   3  14
BRANCH   2  25
ATOM     25  C   UNL     1      35.739 -23.404 -14.422  0.00  0.00    +0.051 C 
ATOM     26  C   UNL     1      36.472 -22.292 -14.834  0.00  0.00    +0.015 C 
ATOM     27  C   UNL     1      36.391 -24.608 -14.154  0.00  0.00    +0.015 C 
ATOM     28  C   UNL     1      37.857 -22.383 -14.980  0.00  0.00    +0.001 C 
ATOM     29  C   UNL     1      37.775 -24.699 -14.299  0.00  0.00    +0.001 C 
ATOM     30  C   UNL     1      38.508 -23.587 -14.712  0.00  0.00    +0.000 C 
ENDBRANCH   2  25
BRANCH  10  32
ATOM     31  N   UNL     1      27.554 -22.025 -15.759  0.00  0.00    -0.195 NA
ATOM     32  C   UNL     1      28.626 -22.278 -15.393  0.00  0.00    +0.087 C 
ENDBRANCH  10  32
TORSDOF 4
ENDMDL
MODEL 2
REMARK VINA RESULT:     -12.7      2.198      5.730
REMARK  Name = 23656870
REMARK  4 active torsions:
REMARK  status: ('A' for Active; 'I' for Inactive)
REMARK    1  A    between atoms: N_2  and  C_25
REMARK    2  A    between atoms: N_3  and  C_14
REMARK    3  A    between atoms: C_10  and  C_32
REMARK    4  A    between atoms: C_16  and  N_21
REMARK                            x       y       z     vdW  Elec       q    Type
REMARK                         _______ _______ _______ _____ _____    ______ ____
ROOT
ATOM      1  N   UNL     1      36.395 -24.271 -13.435  0.00  0.00    -0.123 N 
ATOM      2  N   UNL     1      34.042 -24.119 -13.332  0.00  0.00    -0.274 N 
ATOM      3  N   UNL     1      36.605 -21.602 -16.411  0.00  0.00    -0.238 N 
ATOM      4  N   UNL     1      35.320 -22.855 -14.876  0.00  0.00    -0.295 NA
ATOM      5  N   UNL     1      37.701 -23.033 -14.952  0.00  0.00    -0.314 NA
ATOM      6  N   UNL     1      36.444 -25.175 -12.440  0.00  0.00    -0.170 NA
ATOM      7  C   UNL     1      35.216 -23.719 -13.909  0.00  0.00    +0.279 C 
ATOM      8  C   UNL     1      37.616 -23.933 -13.946  0.00  0.00    +0.219 C 
ATOM      9  C   UNL     1      36.572 -22.521 -15.389  0.00  0.00    +0.207 C 
ATOM     10  C   UNL     1      38.530 -24.673 -13.231  0.00  0.00    +0.203 C 
ATOM     11  C   UNL     1      37.753 -25.417 -12.321  0.00  0.00    +0.116 C 
ATOM     12  H   UNL     1      34.121 -24.782 -12.608  0.00  0.00    +0.156 HD
ATOM     13  H   UNL     1      37.412 -21.042 -16.462  0.00  0.00    +0.166 HD
ENDROOT
BRANCH   3  14
ATOM     14  C   UNL     1      35.636 -21.365 -17.384  0.00  0.00    +0.060 C 
ATOM     15  C   UNL     1      35.964 -20.651 -18.537  0.00  0.00    +0.030 C 
ATOM     16  C   UNL     1      34.995 -20.416 -19.511  0.00  0.00    +0.052 C 
ATOM     17  C   UNL     1      34.337 -21.843 -17.206  0.00  0.00    +0.015 C 
ATOM     18  C   UNL     1      33.696 -20.893 -19.333  0.00  0.00    +0.015 C 
ATOM     19  C   UNL     1      33.367 -21.607 -18.181  0.00  0.00    +0.003 C 
BRANCH  16  21
ATOM     20  O   UNL     1      35.736 -17.519 -19.868  0.00  0.00    -0.275 OA
ATOM     21  N   UNL     1      35.322 -19.700 -20.663  0.00  0.00    -0.284 N 
ATOM     22  C   UNL     1      35.660 -18.344 -20.773  0.00  0.00    +0.227 C 
ATOM     23  C   UNL     1      35.948 -17.953 -22.201  0.00  0.00    +0.095 C 
ATOM     24  H   UNL     1      35.316 -20.211 -21.505  0.00  0.00    +0.155 HD
ENDBRANCH  16  21
ENDBRANCH   3  14
BRANCH   2  25
ATOM     25  C   UNL     1      32.743 -23.705 -13.638  0.00  0.00    +0.051 C 
ATOM     26  C   UNL     1      31.683 -24.607 -13.547  0.00  0.00    +0.015 C 
ATOM     27  C   UNL     1      32.505 -22.389 -14.035  0.00  0.00    +0.015 C 
ATOM     28  C   UNL     1      30.386 -24.194 -13.852  0.00  0.00    +0.001 C 
ATOM     29  C   UNL     1      31.208 -21.975 -14.340  0.00  0.00    +0.001 C 
ATOM     30  C   UNL     1      30.148 -22.878 -14.249  0.00  0.00    +0.000 C 
ENDBRANCH   2  25
BRANCH  10  32
ATOM     31  N   UNL     1      41.094 -24.666 -13.530  0.00  0.00    -0.195 NA
ATOM     32  C   UNL     1      39.941 -24.669 -13.396  0.00  0.00    +0.087 C 
ENDBRANCH  10  32
TORSDOF 4
ENDMDL
