MODEL 1
REMARK VINA RESULT:     -12.6      0.000      0.000
REMARK  Name = 11634458
REMARK  5 active torsions:
REMARK  status: ('A' for Active; 'I' for Inactive)
REMARK    1  A    between atoms: N_3  and  C_11
REMARK    2  A    between atoms: C_4  and  C_19
REMARK    3  A    between atoms: C_5  and  O_35
REMARK    4  A    between atoms: N_18  and  C_22
REMARK    5  A    between atoms: C_25  and  N_29
REMARK                            x       y       z     vdW  Elec       q    Type
REMARK                         _______ _______ _______ _____ _____    ______ ____
ROOT
ATOM      1  O   UNL     1      32.218 -23.037 -12.518  0.00  0.00    -0.252 OA
ATOM      2  N   UNL     1      34.080 -23.453 -13.797  0.00  0.00    -0.255 N 
ATOM      3  N   UNL     1      32.031 -22.991 -14.841  0.00  0.00    -0.268 N 
ATOM      4  C   UNL     1      34.789 -23.776 -15.034  0.00  0.00    +0.156 C 
ATOM      5  C   UNL     1      36.339 -23.853 -13.193  0.00  0.00    +0.137 C 
ATOM      6  C   UNL     1      36.090 -24.439 -14.581  0.00  0.00    +0.061 C 
ATOM      7  C   UNL     1      34.941 -23.644 -12.632  0.00  0.00    +0.125 C 
ATOM      8  C   UNL     1      32.719 -23.150 -13.639  0.00  0.00    +0.308 C 
ATOM      9  H   UNL     1      32.561 -23.110 -15.662  0.00  0.00    +0.156 HD
ENDROOT
BRANCH   3  11
ATOM     10 CL   UNL     1      26.305 -21.679 -15.606  0.00  0.00    -0.082 Cl
ATOM     11  C   UNL     1      30.661 -22.677 -15.025  0.00  0.00    +0.052 C 
ATOM     12  C   UNL     1      30.072 -21.675 -14.259  0.00  0.00    +0.016 C 
ATOM     13  C   UNL     1      29.911 -23.373 -15.969  0.00  0.00    +0.016 C 
ATOM     14  C   UNL     1      28.723 -21.366 -14.438  0.00  0.00    +0.013 C 
ATOM     15  C   UNL     1      28.563 -23.064 -16.149  0.00  0.00    +0.013 C 
ATOM     16  C   UNL     1      27.969 -22.060 -15.384  0.00  0.00    +0.058 C 
ENDBRANCH   3  11
BRANCH   4  19
ATOM     17  O   UNL     1      35.587 -21.546 -15.208  0.00  0.00    -0.273 OA
ATOM     18  N   UNL     1      34.647 -22.588 -17.096  0.00  0.00    -0.281 N 
ATOM     19  C   UNL     1      35.063 -22.500 -15.774  0.00  0.00    +0.244 C 
ATOM     20  H   UNL     1      34.242 -23.443 -17.369  0.00  0.00    +0.155 HD
BRANCH  18  22
ATOM     21  F   UNL     1      32.382 -21.298 -18.053  0.00  0.00    -0.203 F 
ATOM     22  C   UNL     1      34.738 -21.592 -18.097  0.00  0.00    +0.078 C 
ATOM     23  C   UNL     1      33.585 -20.972 -18.547  0.00  0.00    +0.155 C 
ATOM     24  C   UNL     1      35.983 -21.259 -18.605  0.00  0.00    +0.018 C 
ATOM     25  C   UNL     1      34.925 -19.645 -20.057  0.00  0.00    +0.061 C 
ATOM     26  C   UNL     1      33.679 -19.992 -19.534  0.00  0.00    +0.046 C 
ATOM     27  C   UNL     1      36.077 -20.278 -19.593  0.00  0.00    +0.017 C 
BRANCH  25  29
ATOM     28  O   UNL     1      35.823 -16.927 -19.636  0.00  0.00    -0.269 OA
ATOM     29  N   UNL     1      35.021 -18.625 -21.084  0.00  0.00    -0.233 N 
ATOM     30  C   UNL     1      35.516 -17.336 -20.756  0.00  0.00    +0.257 C 
ATOM     31  C   UNL     1      34.609 -18.894 -22.391  0.00  0.00    +0.072 C 
ATOM     32  C   UNL     1      35.628 -16.360 -21.883  0.00  0.00    +0.059 C 
ATOM     33  C   UNL     1      34.688 -17.992 -23.374  0.00  0.00    +0.017 C 
ATOM     34  C   UNL     1      35.221 -16.689 -23.111  0.00  0.00    +0.006 C 
ENDBRANCH  25  29
ENDBRANCH  18  22
ENDBRANCH   4  19
BRANCH   5  35
ATOM     35  O   UNL     1      37.015 -22.606 -13.313  0.00  0.00    -0.352 OA
ATOM     36  C   UNL     1      37.656 -22.243 -12.098  0.00  0.00    +0.174 C 
ENDBRANCH   5  35
TORSDOF 5
ENDMDL
MODEL 2
REMARK VINA RESULT:     -11.7      2.129      2.996
REMARK  Name = 11634458
REMARK  5 active torsions:
REMARK  status: ('A' for Active; 'I' for Inactive)
REMARK    1  A    between atoms: N_3  and  C_11
REMARK    2  A    between atoms: C_4  and  C_19
REMARK    3  A    between atoms: C_5  and  O_35
REMARK    4  A    between atoms: N_18  and  C_22
REMARK    5  A    between atoms: C_25  and  N_29
REMARK                            x       y       z     vdW  Elec       q    Type
REMARK                         _______ _______ _______ _____ _____    ______ ____
ROOT
ATOM      1  O   UNL     1      33.922 -22.821 -11.525  0.00  0.00    -0.252 OA
ATOM      2  N   UNL     1      35.679 -24.051 -12.346  0.00  0.00    -0.255 N 
ATOM      3  N   UNL     1      33.645 -24.005 -13.514  0.00  0.00    -0.268 N 
ATOM      4  C   UNL     1      36.302 -25.058 -13.204  0.00  0.00    +0.156 C 
ATOM      5  C   UNL     1      37.910 -24.302 -11.580  0.00  0.00    +0.137 C 
ATOM      6  C   UNL     1      37.548 -25.509 -12.442  0.00  0.00    +0.061 C 
ATOM      7  C   UNL     1      36.564 -23.678 -11.244  0.00  0.00    +0.125 C 
ATOM      8  C   UNL     1      34.363 -23.568 -12.401  0.00  0.00    +0.308 C 
ATOM      9  H   UNL     1      34.127 -24.600 -14.133  0.00  0.00    +0.156 HD
ENDROOT
BRANCH   3  11
ATOM     10 CL   UNL     1      28.052 -22.711 -14.972  0.00  0.00    -0.082 Cl
ATOM     11  C   UNL     1      32.307 -23.695 -13.863  0.00  0.00    +0.052 C 
ATOM     12  C   UNL     1      31.286 -24.589 -13.552  0.00  0.00    +0.016 C 
ATOM     13  C   UNL     1      32.021 -22.499 -14.516  0.00  0.00    +0.016 C 
ATOM     14  C   UNL     1      29.968 -24.285 -13.895  0.00  0.00    +0.013 C 
ATOM     15  C   UNL     1      30.704 -22.195 -14.859  0.00  0.00    +0.013 C 
ATOM     16  C   UNL     1      29.677 -23.088 -14.549  0.00  0.00    +0.058 C 
ENDBRANCH   3  11
BRANCH   4  19
ATOM     17  O   UNL     1      37.599 -24.846 -15.181  0.00  0.00    -0.273 OA
ATOM     18  N   UNL     1      35.844 -23.331 -14.782  0.00  0.00    -0.281 N 
ATOM     19  C   UNL     1      36.670 -24.413 -14.507  0.00  0.00    +0.244 C 
ATOM     20  H   UNL     1      35.149 -23.133 -14.113  0.00  0.00    +0.155 HD
BRANCH  18  22
ATOM     21  F   UNL     1      38.028 -21.686 -15.266  0.00  0.00    -0.203 F 
ATOM     22  C   UNL     1      35.885 -22.480 -15.912  0.00  0.00    +0.078 C 
ATOM     23  C   UNL     1      36.993 -21.676 -16.118  0.00  0.00    +0.155 C 
ATOM     24  C   UNL     1      34.813 -22.471 -16.789  0.00  0.00    +0.018 C 
ATOM     25  C   UNL     1      35.958 -20.816 -18.124  0.00  0.00    +0.061 C 
ATOM     26  C   UNL     1      37.030 -20.837 -17.232  0.00  0.00    +0.046 C 
ATOM     27  C   UNL     1      34.850 -21.633 -17.903  0.00  0.00    +0.017 C 
BRANCH  25  29
ATOM     28  O   UNL     1      33.709 -20.218 -19.843  0.00  0.00    -0.269 OA
ATOM     29  N   UNL     1      35.996 -19.943 -19.283  0.00  0.00    -0.233 N 
ATOM     30  C   UNL     1      34.811 -19.699 -20.023  0.00  0.00    +0.257 C 
ATOM     31  C   UNL     1      37.197 -19.359 -19.690  0.00  0.00    +0.072 C 
ATOM     32  C   UNL     1      34.929 -18.750 -21.173  0.00  0.00    +0.059 C 
ATOM     33  C   UNL     1      37.283 -18.540 -20.743  0.00  0.00    +0.017 C 
ATOM     34  C   UNL     1      36.110 -18.222 -21.501  0.00  0.00    +0.006 C 
ENDBRANCH  25  29
ENDBRANCH  18  22
ENDBRANCH   4  19
BRANCH   5  35
ATOM     35  O   UNL     1      38.701 -23.392 -12.336  0.00  0.00    -0.352 OA
ATOM     36  C   UNL     1      39.864 -24.021 -12.856  0.00  0.00    +0.174 C 
ENDBRANCH   5  35
TORSDOF 5
ENDMDL
