MODEL 1
REMARK VINA RESULT:     -13.0      0.000      0.000
REMARK  Name = 10157080
REMARK  5 active torsions:
REMARK  status: ('A' for Active; 'I' for Inactive)
REMARK    1  A    between atoms: C_3  and  O_8
REMARK    2  A    between atoms: C_6  and  O_18
REMARK    3  A    between atoms: O_8  and  C_13
REMARK    4  A    between atoms: O_18  and  C_20
REMARK    5  A    between atoms: C_19  and  N_25
REMARK                            x       y       z     vdW  Elec       q    Type
REMARK                         _______ _______ _______ _____ _____    ______ ____
ROOT
ATOM      1  N   UNL     1      34.900 -22.620 -16.065  0.00  0.00    -0.277 NA
ATOM      2  N   UNL     1      32.527 -22.764 -16.465  0.00  0.00    -0.319 NA
ATOM      3  C   UNL     1      34.623 -22.512 -14.756  0.00  0.00    +0.278 C 
ATOM      4  C   UNL     1      33.358 -22.518 -14.219  0.00  0.00    +0.156 C 
ATOM      5  C   UNL     1      32.334 -22.649 -15.135  0.00  0.00    +0.113 C 
ATOM      6  C   UNL     1      33.816 -22.742 -16.856  0.00  0.00    +0.317 C 
ATOM      7  C   UNL     1      30.920 -22.667 -14.658  0.00  0.00    +0.063 C 
ENDROOT
BRANCH   3   8
ATOM      8  O   UNL     1      35.706 -22.387 -13.904  0.00  0.00    -0.429 OA
BRANCH   8  13
ATOM      9  O   UNL     1      40.199 -24.025 -14.524  0.00  0.00    -0.435 OA
ATOM     10  O   UNL     1      39.541 -26.282 -13.992  0.00  0.00    -0.435 OA
ATOM     11  C   UNL     1      38.872 -24.123 -14.238  0.00  0.00    +0.179 C 
ATOM     12  C   UNL     1      38.497 -25.411 -13.934  0.00  0.00    +0.177 C 
ATOM     13  C   UNL     1      36.638 -23.381 -13.918  0.00  0.00    +0.151 C 
ATOM     14  C   UNL     1      37.965 -23.084 -14.238  0.00  0.00    +0.078 C 
ATOM     15  C   UNL     1      37.193 -25.732 -13.614  0.00  0.00    +0.043 C 
ATOM     16  C   UNL     1      36.255 -24.698 -13.607  0.00  0.00    +0.041 C 
ATOM     17  C   UNL     1      40.617 -25.396 -14.366  0.00  0.00    +0.429 C 
ENDBRANCH   8  13
ENDBRANCH   3   8
BRANCH   6  18
ATOM     18  O   UNL     1      34.051 -22.853 -18.206  0.00  0.00    -0.375 OA
BRANCH  18  20
ATOM     19  C   UNL     1      34.855 -19.352 -20.285  0.00  0.00    +0.057 C 
ATOM     20  C   UNL     1      34.318 -21.690 -18.896  0.00  0.00    +0.161 C 
ATOM     21  C   UNL     1      33.535 -19.718 -20.021  0.00  0.00    +0.018 C 
ATOM     22  C   UNL     1      35.904 -20.161 -19.849  0.00  0.00    +0.018 C 
ATOM     23  C   UNL     1      33.265 -20.895 -19.322  0.00  0.00    +0.040 C 
ATOM     24  C   UNL     1      35.635 -21.337 -19.151  0.00  0.00    +0.040 C 
BRANCH  19  25
ATOM     25  N   UNL     1      35.123 -18.185 -20.978  0.00  0.00    -0.246 N 
ATOM     26  N   UNL     1      35.576 -16.035 -21.355  0.00  0.00    -0.224 NA
ATOM     27  C   UNL     1      35.216 -18.045 -22.340  0.00  0.00    +0.092 C 
ATOM     28  C   UNL     1      35.348 -16.945 -20.434  0.00  0.00    +0.172 C 
ATOM     29  C   UNL     1      35.494 -16.714 -22.544  0.00  0.00    +0.117 C 
ENDBRANCH  19  25
ENDBRANCH  18  20
ENDBRANCH   6  18
TORSDOF 5
ENDMDL
MODEL 2
REMARK VINA RESULT:     -11.9      0.690      1.588
REMARK  Name = 10157080
REMARK  5 active torsions:
REMARK  status: ('A' for Active; 'I' for Inactive)
REMARK    1  A    between atoms: C_3  and  O_8
REMARK    2  A    between atoms: C_6  and  O_18
REMARK    3  A    between atoms: O_8  and  C_13
REMARK    4  A    between atoms: O_18  and  C_20
REMARK    5  A    between atoms: C_19  and  N_25
REMARK                            x       y       z     vdW  Elec       q    Type
REMARK                         _______ _______ _______ _____ _____    ______ ____
ROOT
ATOM      1  N   UNL     1      34.328 -23.086 -16.036  0.00  0.00    -0.277 NA
ATOM      2  N   UNL     1      32.210 -22.487 -17.018  0.00  0.00    -0.319 NA
ATOM      3  C   UNL     1      33.736 -23.009 -14.833  0.00  0.00    +0.278 C 
ATOM      4  C   UNL     1      32.417 -22.685 -14.628  0.00  0.00    +0.156 C 
ATOM      5  C   UNL     1      31.691 -22.430 -15.774  0.00  0.00    +0.113 C 
ATOM      6  C   UNL     1      33.516 -22.816 -17.075  0.00  0.00    +0.317 C 
ATOM      7  C   UNL     1      30.248 -22.069 -15.665  0.00  0.00    +0.063 C 
ENDROOT
BRANCH   3   8
ATOM      8  O   UNL     1      34.532 -23.282 -13.734  0.00  0.00    -0.429 OA
BRANCH   8  13
ATOM      9  O   UNL     1      38.646 -25.772 -13.377  0.00  0.00    -0.435 OA
ATOM     10  O   UNL     1      39.886 -24.053 -14.524  0.00  0.00    -0.435 OA
ATOM     11  C   UNL     1      37.860 -24.721 -13.738  0.00  0.00    +0.179 C 
ATOM     12  C   UNL     1      38.568 -23.740 -14.393  0.00  0.00    +0.177 C 
ATOM     13  C   UNL     1      35.868 -23.444 -13.946  0.00  0.00    +0.151 C 
ATOM     14  C   UNL     1      36.506 -24.603 -13.499  0.00  0.00    +0.078 C 
ATOM     15  C   UNL     1      37.961 -22.585 -14.845  0.00  0.00    +0.043 C 
ATOM     16  C   UNL     1      36.591 -22.441 -14.616  0.00  0.00    +0.041 C 
ATOM     17  C   UNL     1      39.928 -25.342 -13.880  0.00  0.00    +0.429 C 
ENDBRANCH   8  13
ENDBRANCH   3   8
BRANCH   6  18
ATOM     18  O   UNL     1      34.079 -22.879 -18.328  0.00  0.00    -0.375 OA
BRANCH  18  20
ATOM     19  C   UNL     1      34.874 -19.278 -20.231  0.00  0.00    +0.057 C 
ATOM     20  C   UNL     1      34.343 -21.683 -18.960  0.00  0.00    +0.161 C 
ATOM     21  C   UNL     1      35.924 -20.049 -19.733  0.00  0.00    +0.018 C 
ATOM     22  C   UNL     1      33.558 -19.716 -20.090  0.00  0.00    +0.018 C 
ATOM     23  C   UNL     1      35.657 -21.261 -19.093  0.00  0.00    +0.040 C 
ATOM     24  C   UNL     1      33.290 -20.927 -19.451  0.00  0.00    +0.040 C 
BRANCH  19  25
ATOM     25  N   UNL     1      35.140 -18.077 -20.864  0.00  0.00    -0.246 N 
ATOM     26  N   UNL     1      35.549 -15.902 -21.135  0.00  0.00    -0.224 NA
ATOM     27  C   UNL     1      35.288 -17.878 -22.214  0.00  0.00    +0.092 C 
ATOM     28  C   UNL     1      35.306 -16.855 -20.262  0.00  0.00    +0.172 C 
ATOM     29  C   UNL     1      35.538 -16.534 -22.353  0.00  0.00    +0.117 C 
ENDBRANCH  19  25
ENDBRANCH  18  20
ENDBRANCH   6  18
TORSDOF 5
ENDMDL
MODEL 3
REMARK VINA RESULT:     -11.9      2.519      5.653
REMARK  Name = 10157080
REMARK  5 active torsions:
REMARK  status: ('A' for Active; 'I' for Inactive)
REMARK    1  A    between atoms: C_3  and  O_8
REMARK    2  A    between atoms: C_6  and  O_18
REMARK    3  A    between atoms: O_8  and  C_13
REMARK    4  A    between atoms: O_18  and  C_20
REMARK    5  A    between atoms: C_19  and  N_25
REMARK                            x       y       z     vdW  Elec       q    Type
REMARK                         _______ _______ _______ _____ _____    ______ ____
ROOT
ATOM      1  N   UNL     1      33.518 -22.794 -15.954  0.00  0.00    -0.277 NA
ATOM      2  N   UNL     1      35.869 -22.416 -16.329  0.00  0.00    -0.319 NA
ATOM      3  C   UNL     1      33.768 -22.724 -14.637  0.00  0.00    +0.278 C 
ATOM      4  C   UNL     1      35.007 -22.509 -14.084  0.00  0.00    +0.156 C 
ATOM      5  C   UNL     1      36.036 -22.360 -14.991  0.00  0.00    +0.113 C 
ATOM      6  C   UNL     1      34.603 -22.633 -16.735  0.00  0.00    +0.317 C 
ATOM      7  C   UNL     1      37.423 -22.121 -14.497  0.00  0.00    +0.063 C 
ENDROOT
BRANCH   3   8
ATOM      8  O   UNL     1      32.682 -22.881 -13.793  0.00  0.00    -0.429 OA
BRANCH   8  13
ATOM      9  O   UNL     1      28.938 -21.634 -16.565  0.00  0.00    -0.435 OA
ATOM     10  O   UNL     1      27.819 -23.727 -16.143  0.00  0.00    -0.435 OA
ATOM     11  C   UNL     1      29.655 -22.447 -15.743  0.00  0.00    +0.179 C 
ATOM     12  C   UNL     1      29.017 -23.642 -15.502  0.00  0.00    +0.177 C 
ATOM     13  C   UNL     1      31.468 -23.121 -14.364  0.00  0.00    +0.151 C 
ATOM     14  C   UNL     1      30.884 -22.157 -15.188  0.00  0.00    +0.078 C 
ATOM     15  C   UNL     1      29.571 -24.612 -14.692  0.00  0.00    +0.043 C 
ATOM     16  C   UNL     1      30.816 -24.343 -14.118  0.00  0.00    +0.041 C 
ATOM     17  C   UNL     1      27.776 -22.452 -16.816  0.00  0.00    +0.429 C 
ENDBRANCH   8  13
ENDBRANCH   3   8
BRANCH   6  18
ATOM     18  O   UNL     1      34.397 -22.700 -18.094  0.00  0.00    -0.375 OA
BRANCH  18  20
ATOM     19  C   UNL     1      34.961 -19.211 -20.269  0.00  0.00    +0.057 C 
ATOM     20  C   UNL     1      34.584 -21.542 -18.816  0.00  0.00    +0.161 C 
ATOM     21  C   UNL     1      36.063 -19.958 -19.851  0.00  0.00    +0.018 C 
ATOM     22  C   UNL     1      33.671 -19.637 -19.956  0.00  0.00    +0.018 C 
ATOM     23  C   UNL     1      35.874 -21.131 -19.120  0.00  0.00    +0.040 C 
ATOM     24  C   UNL     1      33.480 -20.810 -19.226  0.00  0.00    +0.040 C 
BRANCH  19  25
ATOM     25  N   UNL     1      35.150 -18.048 -20.993  0.00  0.00    -0.246 N 
ATOM     26  N   UNL     1      35.488 -15.887 -21.427  0.00  0.00    -0.224 NA
ATOM     27  C   UNL     1      35.189 -17.931 -22.360  0.00  0.00    +0.092 C 
ATOM     28  C   UNL     1      35.335 -16.787 -20.481  0.00  0.00    +0.172 C 
ATOM     29  C   UNL     1      35.397 -16.594 -22.599  0.00  0.00    +0.117 C 
ENDBRANCH  19  25
ENDBRANCH  18  20
ENDBRANCH   6  18
TORSDOF 5
ENDMDL
MODEL 4
REMARK VINA RESULT:     -11.8      4.300      8.372
REMARK  Name = 10157080
REMARK  5 active torsions:
REMARK  status: ('A' for Active; 'I' for Inactive)
REMARK    1  A    between atoms: C_3  and  O_8
REMARK    2  A    between atoms: C_6  and  O_18
REMARK    3  A    between atoms: O_8  and  C_13
REMARK    4  A    between atoms: O_18  and  C_20
REMARK    5  A    between atoms: C_19  and  N_25
REMARK                            x       y       z     vdW  Elec       q    Type
REMARK                         _______ _______ _______ _____ _____    ______ ____
ROOT
ATOM      1  N   UNL     1      35.925 -16.834 -21.805  0.00  0.00    -0.277 NA
ATOM      2  N   UNL     1      34.648 -16.481 -23.819  0.00  0.00    -0.319 NA
ATOM      3  C   UNL     1      35.631 -18.140 -21.907  0.00  0.00    +0.278 C 
ATOM      4  C   UNL     1      34.869 -18.696 -22.905  0.00  0.00    +0.156 C 
ATOM      5  C   UNL     1      34.398 -17.806 -23.848  0.00  0.00    +0.113 C 
ATOM      6  C   UNL     1      35.407 -16.069 -22.785  0.00  0.00    +0.317 C 
ATOM      7  C   UNL     1      33.560 -18.306 -24.977  0.00  0.00    +0.063 C 
ENDROOT
BRANCH   3   8
ATOM      8  O   UNL     1      36.144 -18.967 -20.923  0.00  0.00    -0.429 OA
BRANCH   8  13
ATOM      9  O   UNL     1      35.053 -22.209 -17.525  0.00  0.00    -0.435 OA
ATOM     10  O   UNL     1      32.691 -21.787 -17.759  0.00  0.00    -0.435 OA
ATOM     11  C   UNL     1      34.788 -21.264 -18.467  0.00  0.00    +0.179 C 
ATOM     12  C   UNL     1      33.440 -21.022 -18.601  0.00  0.00    +0.177 C 
ATOM     13  C   UNL     1      35.258 -19.654 -20.150  0.00  0.00    +0.151 C 
ATOM     14  C   UNL     1      35.723 -20.594 -19.228  0.00  0.00    +0.078 C 
ATOM     15  C   UNL     1      32.953 -20.099 -19.503  0.00  0.00    +0.043 C 
ATOM     16  C   UNL     1      33.880 -19.407 -20.286  0.00  0.00    +0.041 C 
ATOM     17  C   UNL     1      33.720 -22.535 -17.080  0.00  0.00    +0.429 C 
ENDBRANCH   8  13
ENDBRANCH   3   8
BRANCH   6  18
ATOM     18  O   UNL     1      35.680 -14.722 -22.721  0.00  0.00    -0.375 OA
BRANCH  18  20
ATOM     19  C   UNL     1      32.931 -12.326 -20.740  0.00  0.00    +0.057 C 
ATOM     20  C   UNL     1      34.767 -13.926 -22.064  0.00  0.00    +0.161 C 
ATOM     21  C   UNL     1      33.532 -13.394 -20.074  0.00  0.00    +0.018 C 
ATOM     22  C   UNL     1      33.254 -12.062 -22.071  0.00  0.00    +0.018 C 
ATOM     23  C   UNL     1      34.457 -14.199 -20.740  0.00  0.00    +0.040 C 
ATOM     24  C   UNL     1      34.178 -12.867 -22.737  0.00  0.00    +0.040 C 
BRANCH  19  25
ATOM     25  N   UNL     1      32.014 -11.528 -20.080  0.00  0.00    -0.246 N 
ATOM     26  N   UNL     1      30.915 -10.558 -18.400  0.00  0.00    -0.224 NA
ATOM     27  C   UNL     1      31.068 -10.718 -20.656  0.00  0.00    +0.092 C 
ATOM     28  C   UNL     1      31.877 -11.393 -18.720  0.00  0.00    +0.172 C 
ATOM     29  C   UNL     1      30.406 -10.134 -19.602  0.00  0.00    +0.117 C 
ENDBRANCH  19  25
ENDBRANCH  18  20
ENDBRANCH   6  18
TORSDOF 5
ENDMDL
MODEL 5
REMARK VINA RESULT:     -11.7      3.622      7.358
REMARK  Name = 10157080
REMARK  5 active torsions:
REMARK  status: ('A' for Active; 'I' for Inactive)
REMARK    1  A    between atoms: C_3  and  O_8
REMARK    2  A    between atoms: C_6  and  O_18
REMARK    3  A    between atoms: O_8  and  C_13
REMARK    4  A    between atoms: O_18  and  C_20
REMARK    5  A    between atoms: C_19  and  N_25
REMARK                            x       y       z     vdW  Elec       q    Type
REMARK                         _______ _______ _______ _____ _____    ______ ____
ROOT
ATOM      1  N   UNL     1      34.600 -23.570 -14.067  0.00  0.00    -0.277 NA
ATOM      2  N   UNL     1      35.162 -23.260 -11.744  0.00  0.00    -0.319 NA
ATOM      3  C   UNL     1      35.818 -23.095 -14.374  0.00  0.00    +0.278 C 
ATOM      4  C   UNL     1      36.754 -22.685 -13.456  0.00  0.00    +0.156 C 
ATOM      5  C   UNL     1      36.366 -22.793 -12.136  0.00  0.00    +0.113 C 
ATOM      6  C   UNL     1      34.341 -23.626 -12.747  0.00  0.00    +0.317 C 
ATOM      7  C   UNL     1      37.308 -22.376 -11.057  0.00  0.00    +0.063 C 
ENDROOT
BRANCH   3   8
ATOM      8  O   UNL     1      36.131 -23.022 -15.720  0.00  0.00    -0.429 OA
BRANCH   8  13
ATOM      9  O   UNL     1      34.978 -20.134 -19.406  0.00  0.00    -0.435 OA
ATOM     10  O   UNL     1      32.622 -20.545 -19.103  0.00  0.00    -0.435 OA
ATOM     11  C   UNL     1      34.730 -20.984 -18.373  0.00  0.00    +0.179 C 
ATOM     12  C   UNL     1      33.386 -21.220 -18.200  0.00  0.00    +0.177 C 
ATOM     13  C   UNL     1      35.231 -22.419 -16.547  0.00  0.00    +0.151 C 
ATOM     14  C   UNL     1      35.679 -21.570 -17.561  0.00  0.00    +0.078 C 
ATOM     15  C   UNL     1      32.916 -22.053 -17.206  0.00  0.00    +0.043 C 
ATOM     16  C   UNL     1      33.856 -22.660 -16.370  0.00  0.00    +0.041 C 
ATOM     17  C   UNL     1      33.638 -19.861 -19.864  0.00  0.00    +0.429 C 
ENDBRANCH   8  13
ENDBRANCH   3   8
BRANCH   6  18
ATOM     18  O   UNL     1      33.103 -24.104 -12.384  0.00  0.00    -0.375 OA
BRANCH  18  20
ATOM     19  C   UNL     1      29.878 -23.005 -14.754  0.00  0.00    +0.057 C 
ATOM     20  C   UNL     1      32.032 -23.739 -13.170  0.00  0.00    +0.161 C 
ATOM     21  C   UNL     1      30.164 -24.355 -14.548  0.00  0.00    +0.018 C 
ATOM     22  C   UNL     1      30.675 -22.025 -14.163  0.00  0.00    +0.018 C 
ATOM     23  C   UNL     1      31.248 -24.724 -13.751  0.00  0.00    +0.040 C 
ATOM     24  C   UNL     1      31.759 -22.394 -13.366  0.00  0.00    +0.040 C 
BRANCH  19  25
ATOM     25  N   UNL     1      28.804 -22.639 -15.545  0.00  0.00    -0.246 N 
ATOM     26  N   UNL     1      27.357 -22.651 -17.240  0.00  0.00    -0.224 NA
ATOM     27  C   UNL     1      27.915 -21.623 -15.299  0.00  0.00    +0.092 C 
ATOM     28  C   UNL     1      28.421 -23.225 -16.726  0.00  0.00    +0.172 C 
ATOM     29  C   UNL     1      27.037 -21.652 -16.357  0.00  0.00    +0.117 C 
ENDBRANCH  19  25
ENDBRANCH  18  20
ENDBRANCH   6  18
TORSDOF 5
ENDMDL
MODEL 6
REMARK VINA RESULT:     -10.9      4.669     10.685
REMARK  Name = 10157080
REMARK  5 active torsions:
REMARK  status: ('A' for Active; 'I' for Inactive)
REMARK    1  A    between atoms: C_3  and  O_8
REMARK    2  A    between atoms: C_6  and  O_18
REMARK    3  A    between atoms: O_8  and  C_13
REMARK    4  A    between atoms: O_18  and  C_20
REMARK    5  A    between atoms: C_19  and  N_25
REMARK                            x       y       z     vdW  Elec       q    Type
REMARK                         _______ _______ _______ _____ _____    ______ ____
ROOT
ATOM      1  N   UNL     1      36.100 -16.437 -21.839  0.00  0.00    -0.277 NA
ATOM      2  N   UNL     1      35.190 -18.346 -22.994  0.00  0.00    -0.319 NA
ATOM      3  C   UNL     1      35.353 -15.659 -22.638  0.00  0.00    +0.278 C 
ATOM      4  C   UNL     1      34.515 -16.122 -23.623  0.00  0.00    +0.156 C 
ATOM      5  C   UNL     1      34.472 -17.495 -23.757  0.00  0.00    +0.113 C 
ATOM      6  C   UNL     1      35.972 -17.757 -22.068  0.00  0.00    +0.317 C 
ATOM      7  C   UNL     1      33.593 -18.105 -24.796  0.00  0.00    +0.063 C 
ENDROOT
BRANCH   3   8
ATOM      8  O   UNL     1      35.450 -14.293 -22.437  0.00  0.00    -0.429 OA
BRANCH   8  13
ATOM      9  O   UNL     1      32.178 -10.795 -21.883  0.00  0.00    -0.435 OA
ATOM     10  O   UNL     1      31.390 -11.743 -19.811  0.00  0.00    -0.435 OA
ATOM     11  C   UNL     1      32.849 -11.930 -21.545  0.00  0.00    +0.179 C 
ATOM     12  C   UNL     1      32.399 -12.471 -20.363  0.00  0.00    +0.177 C 
ATOM     13  C   UNL     1      34.440 -13.681 -21.759  0.00  0.00    +0.151 C 
ATOM     14  C   UNL     1      33.869 -12.512 -22.268  0.00  0.00    +0.078 C 
ATOM     15  C   UNL     1      32.945 -13.624 -19.837  0.00  0.00    +0.043 C 
ATOM     16  C   UNL     1      33.980 -14.234 -20.550  0.00  0.00    +0.041 C 
ATOM     17  C   UNL     1      31.254 -10.684 -20.780  0.00  0.00    +0.429 C 
ENDBRANCH   8  13
ENDBRANCH   3   8
BRANCH   6  18
ATOM     18  O   UNL     1      36.721 -18.594 -21.275  0.00  0.00    -0.375 OA
BRANCH  18  20
ATOM     19  C   UNL     1      34.676 -20.893 -18.489  0.00  0.00    +0.057 C 
ATOM     20  C   UNL     1      36.042 -19.358 -20.350  0.00  0.00    +0.161 C 
ATOM     21  C   UNL     1      33.968 -20.108 -19.399  0.00  0.00    +0.018 C 
ATOM     22  C   UNL     1      36.071 -20.906 -18.516  0.00  0.00    +0.018 C 
ATOM     23  C   UNL     1      34.655 -19.335 -20.336  0.00  0.00    +0.040 C 
ATOM     24  C   UNL     1      36.758 -20.135 -19.452  0.00  0.00    +0.040 C 
BRANCH  19  25
ATOM     25  N   UNL     1      33.995 -21.659 -17.560  0.00  0.00    -0.246 N 
ATOM     26  N   UNL     1      33.639 -23.033 -15.841  0.00  0.00    -0.224 NA
ATOM     27  C   UNL     1      32.634 -21.801 -17.457  0.00  0.00    +0.092 C 
ATOM     28  C   UNL     1      34.551 -22.421 -16.564  0.00  0.00    +0.172 C 
ATOM     29  C   UNL     1      32.443 -22.650 -16.393  0.00  0.00    +0.117 C 
ENDBRANCH  19  25
ENDBRANCH  18  20
ENDBRANCH   6  18
TORSDOF 5
ENDMDL
MODEL 7
REMARK VINA RESULT:     -10.6      4.792      8.883
REMARK  Name = 10157080
REMARK  5 active torsions:
REMARK  status: ('A' for Active; 'I' for Inactive)
REMARK    1  A    between atoms: C_3  and  O_8
REMARK    2  A    between atoms: C_6  and  O_18
REMARK    3  A    between atoms: O_8  and  C_13
REMARK    4  A    between atoms: O_18  and  C_20
REMARK    5  A    between atoms: C_19  and  N_25
REMARK                            x       y       z     vdW  Elec       q    Type
REMARK                         _______ _______ _______ _____ _____    ______ ____
ROOT
ATOM      1  N   UNL     1      35.314 -16.526 -20.609  0.00  0.00    -0.277 NA
ATOM      2  N   UNL     1      34.672 -15.130 -22.466  0.00  0.00    -0.319 NA
ATOM      3  C   UNL     1      35.651 -17.472 -21.501  0.00  0.00    +0.278 C 
ATOM      4  C   UNL     1      35.534 -17.342 -22.863  0.00  0.00    +0.156 C 
ATOM      5  C   UNL     1      35.032 -16.131 -23.296  0.00  0.00    +0.113 C 
ATOM      6  C   UNL     1      34.837 -15.392 -21.155  0.00  0.00    +0.317 C 
ATOM      7  C   UNL     1      34.865 -15.884 -24.757  0.00  0.00    +0.063 C 
ENDROOT
BRANCH   3   8
ATOM      8  O   UNL     1      36.150 -18.656 -20.987  0.00  0.00    -0.429 OA
BRANCH   8  13
ATOM      9  O   UNL     1      35.230 -21.962 -17.598  0.00  0.00    -0.435 OA
ATOM     10  O   UNL     1      32.856 -21.832 -17.995  0.00  0.00    -0.435 OA
ATOM     11  C   UNL     1      34.917 -21.068 -18.576  0.00  0.00    +0.179 C 
ATOM     12  C   UNL     1      33.562 -20.993 -18.802  0.00  0.00    +0.177 C 
ATOM     13  C   UNL     1      35.302 -19.435 -20.258  0.00  0.00    +0.151 C 
ATOM     14  C   UNL     1      35.815 -20.300 -19.289  0.00  0.00    +0.078 C 
ATOM     15  C   UNL     1      33.029 -20.148 -19.753  0.00  0.00    +0.043 C 
ATOM     16  C   UNL     1      33.917 -19.359 -20.489  0.00  0.00    +0.041 C 
ATOM     17  C   UNL     1      33.919 -22.441 -17.234  0.00  0.00    +0.429 C 
ENDBRANCH   8  13
ENDBRANCH   3   8
BRANCH   6  18
ATOM     18  O   UNL     1      34.476 -14.394 -20.279  0.00  0.00    -0.375 OA
BRANCH  18  20
ATOM     19  C   UNL     1      33.067 -10.852 -21.920  0.00  0.00    +0.057 C 
ATOM     20  C   UNL     1      34.008 -13.218 -20.824  0.00  0.00    +0.161 C 
ATOM     21  C   UNL     1      34.171 -11.491 -22.484  0.00  0.00    +0.018 C 
ATOM     22  C   UNL     1      32.436 -11.403 -20.805  0.00  0.00    +0.018 C 
ATOM     23  C   UNL     1      34.644 -12.682 -21.933  0.00  0.00    +0.040 C 
ATOM     24  C   UNL     1      32.909 -12.594 -20.254  0.00  0.00    +0.040 C 
BRANCH  19  25
ATOM     25  N   UNL     1      32.598  -9.671 -22.466  0.00  0.00    -0.246 N 
ATOM     26  N   UNL     1      31.347  -7.846 -22.739  0.00  0.00    -0.224 NA
ATOM     27  C   UNL     1      33.093  -9.027 -23.573  0.00  0.00    +0.092 C 
ATOM     28  C   UNL     1      31.548  -8.917 -22.004  0.00  0.00    +0.172 C 
ATOM     29  C   UNL     1      32.306  -7.909 -23.718  0.00  0.00    +0.117 C 
ENDBRANCH  19  25
ENDBRANCH  18  20
ENDBRANCH   6  18
TORSDOF 5
ENDMDL
MODEL 8
REMARK VINA RESULT:     -10.6      1.760      2.656
REMARK  Name = 10157080
REMARK  5 active torsions:
REMARK  status: ('A' for Active; 'I' for Inactive)
REMARK    1  A    between atoms: C_3  and  O_8
REMARK    2  A    between atoms: C_6  and  O_18
REMARK    3  A    between atoms: O_8  and  C_13
REMARK    4  A    between atoms: O_18  and  C_20
REMARK    5  A    between atoms: C_19  and  N_25
REMARK                            x       y       z     vdW  Elec       q    Type
REMARK                         _______ _______ _______ _____ _____    ______ ____
ROOT
ATOM      1  N   UNL     1      36.614 -21.328 -17.521  0.00  0.00    -0.277 NA
ATOM      2  N   UNL     1      34.369 -21.943 -18.148  0.00  0.00    -0.319 NA
ATOM      3  C   UNL     1      36.296 -21.649 -16.257  0.00  0.00    +0.278 C 
ATOM      4  C   UNL     1      35.069 -22.113 -15.851  0.00  0.00    +0.156 C 
ATOM      5  C   UNL     1      34.130 -22.243 -16.854  0.00  0.00    +0.113 C 
ATOM      6  C   UNL     1      35.614 -21.498 -18.407  0.00  0.00    +0.317 C 
ATOM      7  C   UNL     1      32.763 -22.739 -16.522  0.00  0.00    +0.063 C 
ENDROOT
BRANCH   3   8
ATOM      8  O   UNL     1      37.294 -21.494 -15.311  0.00  0.00    -0.429 OA
BRANCH   8  13
ATOM      9  O   UNL     1      36.707 -24.663 -11.724  0.00  0.00    -0.435 OA
ATOM     10  O   UNL     1      38.677 -25.891 -12.372  0.00  0.00    -0.435 OA
ATOM     11  C   UNL     1      37.319 -24.121 -12.812  0.00  0.00    +0.179 C 
ATOM     12  C   UNL     1      38.444 -24.823 -13.182  0.00  0.00    +0.177 C 
ATOM     13  C   UNL     1      37.665 -22.594 -14.598  0.00  0.00    +0.151 C 
ATOM     14  C   UNL     1      36.903 -23.001 -13.501  0.00  0.00    +0.078 C 
ATOM     15  C   UNL     1      39.215 -24.442 -14.261  0.00  0.00    +0.043 C 
ATOM     16  C   UNL     1      38.815 -23.311 -14.976  0.00  0.00    +0.041 C 
ATOM     17  C   UNL     1      37.572 -25.784 -11.451  0.00  0.00    +0.429 C 
ENDBRANCH   8  13
ENDBRANCH   3   8
BRANCH   6  18
ATOM     18  O   UNL     1      35.893 -21.179 -19.716  0.00  0.00    -0.375 OA
BRANCH  18  20
ATOM     19  C   UNL     1      35.386 -17.219 -20.851  0.00  0.00    +0.057 C 
ATOM     20  C   UNL     1      35.725 -19.864 -20.092  0.00  0.00    +0.161 C 
ATOM     21  C   UNL     1      34.281 -18.066 -20.763  0.00  0.00    +0.018 C 
ATOM     22  C   UNL     1      36.661 -17.703 -20.557  0.00  0.00    +0.018 C 
ATOM     23  C   UNL     1      34.451 -19.397 -20.381  0.00  0.00    +0.040 C 
ATOM     24  C   UNL     1      36.831 -19.033 -20.175  0.00  0.00    +0.040 C 
BRANCH  19  25
ATOM     25  N   UNL     1      35.217 -15.900 -21.230  0.00  0.00    -0.246 N 
ATOM     26  N   UNL     1      35.137 -14.094 -22.535  0.00  0.00    -0.224 NA
ATOM     27  C   UNL     1      34.866 -14.853 -20.416  0.00  0.00    +0.092 C 
ATOM     28  C   UNL     1      35.368 -15.388 -22.495  0.00  0.00    +0.172 C 
ATOM     29  C   UNL     1      34.824 -13.755 -21.243  0.00  0.00    +0.117 C 
ENDBRANCH  19  25
ENDBRANCH  18  20
ENDBRANCH   6  18
TORSDOF 5
ENDMDL
MODEL 9
REMARK VINA RESULT:     -10.6      4.747      8.524
REMARK  Name = 10157080
REMARK  5 active torsions:
REMARK  status: ('A' for Active; 'I' for Inactive)
REMARK    1  A    between atoms: C_3  and  O_8
REMARK    2  A    between atoms: C_6  and  O_18
REMARK    3  A    between atoms: O_8  and  C_13
REMARK    4  A    between atoms: O_18  and  C_20
REMARK    5  A    between atoms: C_19  and  N_25
REMARK                            x       y       z     vdW  Elec       q    Type
REMARK                         _______ _______ _______ _____ _____    ______ ____
ROOT
ATOM      1  N   UNL     1      36.159 -16.568 -22.071  0.00  0.00    -0.277 NA
ATOM      2  N   UNL     1      34.553 -16.446 -23.865  0.00  0.00    -0.319 NA
ATOM      3  C   UNL     1      35.981 -17.899 -22.069  0.00  0.00    +0.278 C 
ATOM      4  C   UNL     1      35.130 -18.577 -22.906  0.00  0.00    +0.156 C 
ATOM      5  C   UNL     1      34.431 -17.788 -23.797  0.00  0.00    +0.113 C 
ATOM      6  C   UNL     1      35.421 -15.909 -22.985  0.00  0.00    +0.317 C 
ATOM      7  C   UNL     1      33.479 -18.424 -24.753  0.00  0.00    +0.063 C 
ENDROOT
BRANCH   3   8
ATOM      8  O   UNL     1      36.721 -18.619 -21.148  0.00  0.00    -0.429 OA
BRANCH   8  13
ATOM      9  O   UNL     1      32.662 -20.256 -19.124  0.00  0.00    -0.435 OA
ATOM     10  O   UNL     1      33.881 -21.777 -17.706  0.00  0.00    -0.435 OA
ATOM     11  C   UNL     1      34.006 -20.183 -19.322  0.00  0.00    +0.179 C 
ATOM     12  C   UNL     1      34.702 -21.051 -18.513  0.00  0.00    +0.177 C 
ATOM     13  C   UNL     1      36.042 -19.419 -20.279  0.00  0.00    +0.151 C 
ATOM     14  C   UNL     1      34.648 -19.353 -20.217  0.00  0.00    +0.078 C 
ATOM     15  C   UNL     1      36.079 -21.136 -18.553  0.00  0.00    +0.043 C 
ATOM     16  C   UNL     1      36.754 -20.306 -19.451  0.00  0.00    +0.041 C 
ATOM     17  C   UNL     1      32.590 -21.269 -18.099  0.00  0.00    +0.429 C 
ENDBRANCH   8  13
ENDBRANCH   3   8
BRANCH   6  18
ATOM     18  O   UNL     1      35.568 -14.542 -23.023  0.00  0.00    -0.375 OA
BRANCH  18  20
ATOM     19  C   UNL     1      32.884 -12.286 -20.803  0.00  0.00    +0.057 C 
ATOM     20  C   UNL     1      34.676 -13.793 -22.286  0.00  0.00    +0.161 C 
ATOM     21  C   UNL     1      33.163 -11.936 -22.124  0.00  0.00    +0.018 C 
ATOM     22  C   UNL     1      33.506 -13.394 -20.228  0.00  0.00    +0.018 C 
ATOM     23  C   UNL     1      34.065 -12.694 -22.871  0.00  0.00    +0.040 C 
ATOM     24  C   UNL     1      34.407 -14.153 -20.974  0.00  0.00    +0.040 C 
BRANCH  19  25
ATOM     25  N   UNL     1      31.990 -11.533 -20.063  0.00  0.00    -0.246 N 
ATOM     26  N   UNL     1      31.017 -10.587 -18.294  0.00  0.00    -0.224 NA
ATOM     27  C   UNL     1      30.926 -10.815 -20.548  0.00  0.00    +0.092 C 
ATOM     28  C   UNL     1      31.998 -11.361 -18.700  0.00  0.00    +0.172 C 
ATOM     29  C   UNL     1      30.345 -10.244 -19.440  0.00  0.00    +0.117 C 
ENDBRANCH  19  25
ENDBRANCH  18  20
ENDBRANCH   6  18
TORSDOF 5
ENDMDL
