MODEL 1
REMARK VINA RESULT:     -12.1      0.000      0.000
REMARK  Name = 447735
REMARK  4 active torsions:
REMARK  status: ('A' for Active; 'I' for Inactive)
REMARK    1  A    between atoms: N_2  and  C_13
REMARK    2  A    between atoms: C_3  and  C_18
REMARK    3  A    between atoms: C_7  and  C_15
REMARK    4  A    between atoms: C_26  and  C_30
REMARK                            x       y       z     vdW  Elec       q    Type
REMARK                         _______ _______ _______ _____ _____    ______ ____
ROOT
ATOM      1  O   UNL     1      33.967 -23.309 -17.393  0.00  0.00    -0.270 OA
ATOM      2  N   UNL     1      35.095 -21.737 -16.056  0.00  0.00    -0.280 N 
ATOM      3  C   UNL     1      34.454 -22.198 -17.214  0.00  0.00    +0.249 C 
ATOM      4  H   UNL     1      35.428 -20.811 -16.087  0.00  0.00    +0.155 HD
ENDROOT
BRANCH   2  13
ATOM      5  N   UNL     1      38.418 -24.603 -11.837  0.00  0.00    -0.274 NA
ATOM      6  C   UNL     1      36.793 -23.640 -13.393  0.00  0.00    +0.010 C 
ATOM      7  C   UNL     1      38.102 -24.245 -13.037  0.00  0.00    +0.053 C 
ATOM      8  C   UNL     1      35.751 -23.803 -12.471  0.00  0.00    -0.019 C 
ATOM      9  C   UNL     1      36.016 -24.577 -11.214  0.00  0.00    +0.053 C 
ATOM     10  C   UNL     1      37.451 -24.334 -10.766  0.00  0.00    +0.130 C 
ATOM     11  C   UNL     1      36.580 -22.949 -14.588  0.00  0.00    +0.016 C 
ATOM     12  C   UNL     1      34.484 -23.292 -12.765  0.00  0.00    -0.003 C 
ATOM     13  C   UNL     1      35.315 -22.428 -14.865  0.00  0.00    +0.051 C 
ATOM     14  C   UNL     1      34.270 -22.602 -13.958  0.00  0.00    +0.014 C 
BRANCH   7  15
ATOM     15  C   UNL     1      39.122 -24.464 -14.128  0.00  0.00    +0.040 C 
ATOM     16  C   UNL     1      40.503 -24.510 -13.499  0.00  0.00    +0.006 C 
ATOM     17  C   UNL     1      38.792 -25.747 -14.870  0.00  0.00    +0.006 C 
ENDBRANCH   7  15
ENDBRANCH   2  13
BRANCH   3  18
ATOM     18  C   UNL     1      34.397 -21.228 -18.340  0.00  0.00    +0.054 C 
ATOM     19  C   UNL     1      35.514 -19.655 -19.775  0.00  0.00    +0.000 C 
ATOM     20  C   UNL     1      34.289 -19.419 -20.442  0.00  0.00    +0.000 C 
ATOM     21  C   UNL     1      35.552 -20.574 -18.714  0.00  0.00    +0.005 C 
ATOM     22  C   UNL     1      33.193 -21.017 -18.971  0.00  0.00    +0.005 C 
ATOM     23  C   UNL     1      33.136 -20.108 -20.028  0.00  0.00    +0.000 C 
ATOM     24  C   UNL     1      34.250 -18.499 -21.503  0.00  0.00    +0.003 C 
ATOM     25  C   UNL     1      36.665 -18.966 -20.190  0.00  0.00    +0.000 C 
ATOM     26  C   UNL     1      35.404 -17.823 -21.902  0.00  0.00    +0.031 C 
ATOM     27  C   UNL     1      36.609 -18.056 -21.246  0.00  0.00    +0.003 C 
BRANCH  26  30
ATOM     28  N   UNL     1      34.687 -17.182 -24.190  0.00  0.00    -0.343 N 
ATOM     29  N   UNL     1      35.938 -15.698 -22.888  0.00  0.00    -0.285 NA
ATOM     30  C   UNL     1      35.349 -16.876 -23.003  0.00  0.00    +0.117 C 
ATOM     31  H   UNL     1      34.662 -16.524 -24.923  0.00  0.00    +0.144 HD
ATOM     32  H   UNL     1      34.245 -18.055 -24.297  0.00  0.00    +0.144 HD
ATOM     33  H   UNL     1      35.902 -15.054 -23.633  0.00  0.00    +0.188 HD
ENDBRANCH  26  30
ENDBRANCH   3  18
TORSDOF 4
ENDMDL
MODEL 2
REMARK VINA RESULT:     -11.7      2.096     10.366
REMARK  Name = 447735
REMARK  4 active torsions:
REMARK  status: ('A' for Active; 'I' for Inactive)
REMARK    1  A    between atoms: N_2  and  C_13
REMARK    2  A    between atoms: C_3  and  C_18
REMARK    3  A    between atoms: C_7  and  C_15
REMARK    4  A    between atoms: C_26  and  C_30
REMARK                            x       y       z     vdW  Elec       q    Type
REMARK                         _______ _______ _______ _____ _____    ______ ____
ROOT
ATOM      1  O   UNL     1      34.017 -21.050 -19.336  0.00  0.00    -0.270 OA
ATOM      2  N   UNL     1      35.822 -19.547 -19.437  0.00  0.00    -0.280 N 
ATOM      3  C   UNL     1      35.072 -20.602 -18.901  0.00  0.00    +0.249 C 
ATOM      4  H   UNL     1      36.650 -19.319 -18.956  0.00  0.00    +0.155 HD
ENDROOT
BRANCH   2  13
ATOM      5  N   UNL     1      35.094 -14.413 -22.627  0.00  0.00    -0.274 NA
ATOM      6  C   UNL     1      35.172 -16.635 -21.604  0.00  0.00    +0.010 C 
ATOM      7  C   UNL     1      35.038 -15.156 -21.571  0.00  0.00    +0.053 C 
ATOM      8  C   UNL     1      34.987 -17.258 -22.846  0.00  0.00    -0.019 C 
ATOM      9  C   UNL     1      34.657 -16.409 -24.036  0.00  0.00    +0.053 C 
ATOM     10  C   UNL     1      35.369 -15.068 -23.911  0.00  0.00    +0.130 C 
ATOM     11  C   UNL     1      35.454 -17.394 -20.466  0.00  0.00    +0.016 C 
ATOM     12  C   UNL     1      35.060 -18.652 -22.936  0.00  0.00    -0.003 C 
ATOM     13  C   UNL     1      35.541 -18.783 -20.570  0.00  0.00    +0.051 C 
ATOM     14  C   UNL     1      35.341 -19.410 -21.800  0.00  0.00    +0.014 C 
BRANCH   7  15
ATOM     15  C   UNL     1      34.818 -14.476 -20.242  0.00  0.00    +0.040 C 
ATOM     16  C   UNL     1      35.287 -13.036 -20.351  0.00  0.00    +0.006 C 
ATOM     17  C   UNL     1      33.349 -14.569 -19.871  0.00  0.00    +0.006 C 
ENDBRANCH   7  15
ENDBRANCH   2  13
BRANCH   3  18
ATOM     18  C   UNL     1      35.621 -21.209 -17.660  0.00  0.00    +0.054 C 
ATOM     19  C   UNL     1      35.301 -22.577 -15.709  0.00  0.00    +0.000 C 
ATOM     20  C   UNL     1      36.648 -22.341 -15.343  0.00  0.00    +0.000 C 
ATOM     21  C   UNL     1      34.797 -21.998 -16.884  0.00  0.00    +0.005 C 
ATOM     22  C   UNL     1      36.933 -20.963 -17.327  0.00  0.00    +0.005 C 
ATOM     23  C   UNL     1      37.452 -21.531 -16.163  0.00  0.00    +0.000 C 
ATOM     24  C   UNL     1      37.152 -22.921 -14.167  0.00  0.00    +0.003 C 
ATOM     25  C   UNL     1      34.500 -23.387 -14.888  0.00  0.00    +0.000 C 
ATOM     26  C   UNL     1      36.340 -23.723 -13.364  0.00  0.00    +0.031 C 
ATOM     27  C   UNL     1      35.016 -23.955 -13.724  0.00  0.00    +0.003 C 
BRANCH  26  30
ATOM     28  N   UNL     1      38.241 -24.564 -12.006  0.00  0.00    -0.343 N 
ATOM     29  N   UNL     1      36.064 -24.635 -11.158  0.00  0.00    -0.285 NA
ATOM     30  C   UNL     1      36.878 -24.316 -12.150  0.00  0.00    +0.117 C 
ATOM     31  H   UNL     1      38.583 -24.967 -11.175  0.00  0.00    +0.144 HD
ATOM     32  H   UNL     1      38.863 -24.337 -12.735  0.00  0.00    +0.144 HD
ATOM     33  H   UNL     1      36.426 -25.038 -10.335  0.00  0.00    +0.188 HD
ENDBRANCH  26  30
ENDBRANCH   3  18
TORSDOF 4
ENDMDL
MODEL 3
REMARK VINA RESULT:     -11.0      3.735     11.878
REMARK  Name = 447735
REMARK  4 active torsions:
REMARK  status: ('A' for Active; 'I' for Inactive)
REMARK    1  A    between atoms: N_2  and  C_13
REMARK    2  A    between atoms: C_3  and  C_18
REMARK    3  A    between atoms: C_7  and  C_15
REMARK    4  A    between atoms: C_26  and  C_30
REMARK                            x       y       z     vdW  Elec       q    Type
REMARK                         _______ _______ _______ _____ _____    ______ ____
ROOT
ATOM      1  O   UNL     1      34.687 -18.312 -23.498  0.00  0.00    -0.270 OA
ATOM      2  N   UNL     1      34.987 -16.342 -22.248  0.00  0.00    -0.280 N 
ATOM      3  C   UNL     1      34.981 -17.727 -22.461  0.00  0.00    +0.249 C 
ATOM      4  H   UNL     1      35.252 -16.045 -21.348  0.00  0.00    +0.155 HD
ENDROOT
BRANCH   2  13
ATOM      5  N   UNL     1      33.668 -10.663 -23.999  0.00  0.00    -0.274 NA
ATOM      6  C   UNL     1      34.031 -13.051 -23.611  0.00  0.00    +0.010 C 
ATOM      7  C   UNL     1      33.657 -11.675 -23.196  0.00  0.00    +0.053 C 
ATOM      8  C   UNL     1      34.040 -13.316 -24.987  0.00  0.00    -0.019 C 
ATOM      9  C   UNL     1      33.664 -12.217 -25.934  0.00  0.00    +0.053 C 
ATOM     10  C   UNL     1      34.137 -10.883 -25.371  0.00  0.00    +0.130 C 
ATOM     11  C   UNL     1      34.350 -14.056 -22.694  0.00  0.00    +0.016 C 
ATOM     12  C   UNL     1      34.345 -14.603 -25.440  0.00  0.00    -0.003 C 
ATOM     13  C   UNL     1      34.668 -15.334 -23.157  0.00  0.00    +0.051 C 
ATOM     14  C   UNL     1      34.663 -15.607 -24.525  0.00  0.00    +0.014 C 
BRANCH   7  15
ATOM     15  C   UNL     1      33.233 -11.437 -21.767  0.00  0.00    +0.040 C 
ATOM     16  C   UNL     1      32.634 -10.045 -21.665  0.00  0.00    +0.006 C 
ATOM     17  C   UNL     1      32.246 -12.513 -21.352  0.00  0.00    +0.006 C 
ENDBRANCH   7  15
ENDBRANCH   2  13
BRANCH   3  18
ATOM     18  C   UNL     1      35.346 -18.555 -21.280  0.00  0.00    +0.054 C 
ATOM     19  C   UNL     1      34.696 -20.094 -19.551  0.00  0.00    +0.000 C 
ATOM     20  C   UNL     1      36.029 -20.100 -19.078  0.00  0.00    +0.000 C 
ATOM     21  C   UNL     1      34.366 -19.308 -20.667  0.00  0.00    +0.005 C 
ATOM     22  C   UNL     1      36.649 -18.542 -20.841  0.00  0.00    +0.005 C 
ATOM     23  C   UNL     1      36.995 -19.318 -19.733  0.00  0.00    +0.000 C 
ATOM     24  C   UNL     1      36.359 -20.886 -17.962  0.00  0.00    +0.003 C 
ATOM     25  C   UNL     1      33.732 -20.875 -18.894  0.00  0.00    +0.000 C 
ATOM     26  C   UNL     1      35.387 -21.657 -17.322  0.00  0.00    +0.031 C 
ATOM     27  C   UNL     1      34.076 -21.651 -17.787  0.00  0.00    +0.003 C 
BRANCH  26  30
ATOM     28  N   UNL     1      36.952 -22.282 -15.499  0.00  0.00    -0.343 N 
ATOM     29  N   UNL     1      34.915 -23.403 -15.739  0.00  0.00    -0.285 NA
ATOM     30  C   UNL     1      35.744 -22.466 -16.168  0.00  0.00    +0.117 C 
ATOM     31  H   UNL     1      37.173 -22.842 -14.719  0.00  0.00    +0.144 HD
ATOM     32  H   UNL     1      37.584 -21.592 -15.804  0.00  0.00    +0.144 HD
ATOM     33  H   UNL     1      35.155 -23.953 -14.958  0.00  0.00    +0.188 HD
ENDBRANCH  26  30
ENDBRANCH   3  18
TORSDOF 4
ENDMDL
MODEL 4
REMARK VINA RESULT:     -11.0      1.104      2.644
REMARK  Name = 447735
REMARK  4 active torsions:
REMARK  status: ('A' for Active; 'I' for Inactive)
REMARK    1  A    between atoms: N_2  and  C_13
REMARK    2  A    between atoms: C_3  and  C_18
REMARK    3  A    between atoms: C_7  and  C_15
REMARK    4  A    between atoms: C_26  and  C_30
REMARK                            x       y       z     vdW  Elec       q    Type
REMARK                         _______ _______ _______ _____ _____    ______ ____
ROOT
ATOM      1  O   UNL     1      34.732 -22.635 -17.052  0.00  0.00    -0.270 OA
ATOM      2  N   UNL     1      36.833 -21.636 -16.713  0.00  0.00    -0.280 N 
ATOM      3  C   UNL     1      35.583 -21.796 -17.326  0.00  0.00    +0.249 C 
ATOM      4  H   UNL     1      37.393 -20.905 -17.061  0.00  0.00    +0.155 HD
ENDROOT
BRANCH   2  13
ATOM      5  N   UNL     1      36.729 -24.877 -11.561  0.00  0.00    -0.274 NA
ATOM      6  C   UNL     1      37.130 -23.515 -13.555  0.00  0.00    +0.010 C 
ATOM      7  C   UNL     1      36.348 -23.940 -12.366  0.00  0.00    +0.053 C 
ATOM      8  C   UNL     1      38.480 -23.891 -13.589  0.00  0.00    -0.019 C 
ATOM      9  C   UNL     1      39.041 -24.669 -12.437  0.00  0.00    +0.053 C 
ATOM     10  C   UNL     1      37.966 -25.595 -11.885  0.00  0.00    +0.130 C 
ATOM     11  C   UNL     1      36.576 -22.767 -14.595  0.00  0.00    +0.016 C 
ATOM     12  C   UNL     1      39.280 -23.487 -14.663  0.00  0.00    -0.003 C 
ATOM     13  C   UNL     1      37.380 -22.383 -15.670  0.00  0.00    +0.051 C 
ATOM     14  C   UNL     1      38.728 -22.739 -15.702  0.00  0.00    +0.014 C 
BRANCH   7  15
ATOM     15  C   UNL     1      35.043 -23.243 -12.067  0.00  0.00    +0.040 C 
ATOM     16  C   UNL     1      33.928 -23.966 -12.801  0.00  0.00    +0.006 C 
ATOM     17  C   UNL     1      34.818 -23.225 -10.566  0.00  0.00    +0.006 C 
ENDBRANCH   7  15
ENDBRANCH   2  13
BRANCH   3  18
ATOM     18  C   UNL     1      35.293 -20.854 -18.439  0.00  0.00    +0.054 C 
ATOM     19  C   UNL     1      36.080 -19.263 -20.061  0.00  0.00    +0.000 C 
ATOM     20  C   UNL     1      34.751 -19.096 -20.517  0.00  0.00    +0.000 C 
ATOM     21  C   UNL     1      36.338 -20.157 -19.009  0.00  0.00    +0.005 C 
ATOM     22  C   UNL     1      33.992 -20.710 -18.862  0.00  0.00    +0.005 C 
ATOM     23  C   UNL     1      33.717 -19.827 -19.907  0.00  0.00    +0.000 C 
ATOM     24  C   UNL     1      34.493 -18.202 -21.569  0.00  0.00    +0.003 C 
ATOM     25  C   UNL     1      37.111 -18.532 -20.672  0.00  0.00    +0.000 C 
ATOM     26  C   UNL     1      35.531 -17.484 -22.164  0.00  0.00    +0.031 C 
ATOM     27  C   UNL     1      36.838 -17.648 -21.716  0.00  0.00    +0.003 C 
BRANCH  26  30
ATOM     28  N   UNL     1      34.458 -16.942 -24.337  0.00  0.00    -0.343 N 
ATOM     29  N   UNL     1      35.747 -15.339 -23.227  0.00  0.00    -0.285 NA
ATOM     30  C   UNL     1      35.247 -16.563 -23.253  0.00  0.00    +0.117 C 
ATOM     31  H   UNL     1      34.279 -16.302 -25.063  0.00  0.00    +0.144 HD
ATOM     32  H   UNL     1      34.079 -17.850 -24.376  0.00  0.00    +0.144 HD
ATOM     33  H   UNL     1      35.557 -14.714 -23.964  0.00  0.00    +0.188 HD
ENDBRANCH  26  30
ENDBRANCH   3  18
TORSDOF 4
ENDMDL
MODEL 5
REMARK VINA RESULT:     -10.6      7.940     12.609
REMARK  Name = 447735
REMARK  4 active torsions:
REMARK  status: ('A' for Active; 'I' for Inactive)
REMARK    1  A    between atoms: N_2  and  C_13
REMARK    2  A    between atoms: C_3  and  C_18
REMARK    3  A    between atoms: C_7  and  C_15
REMARK    4  A    between atoms: C_26  and  C_30
REMARK                            x       y       z     vdW  Elec       q    Type
REMARK                         _______ _______ _______ _____ _____    ______ ____
ROOT
ATOM      1  O   UNL     1      34.196 -11.295 -25.234  0.00  0.00    -0.270 OA
ATOM      2  N   UNL     1      33.857 -12.545 -23.271  0.00  0.00    -0.280 N 
ATOM      3  C   UNL     1      33.976 -11.373 -24.030  0.00  0.00    +0.249 C 
ATOM      4  H   UNL     1      33.678 -12.421 -22.312  0.00  0.00    +0.155 HD
ENDROOT
BRANCH   2  13
ATOM      5  N   UNL     1      35.168 -18.470 -22.781  0.00  0.00    -0.274 NA
ATOM      6  C   UNL     1      34.673 -16.141 -23.345  0.00  0.00    +0.010 C 
ATOM      7  C   UNL     1      35.334 -17.209 -22.553  0.00  0.00    +0.053 C 
ATOM      8  C   UNL     1      34.152 -16.511 -24.592  0.00  0.00    -0.019 C 
ATOM      9  C   UNL     1      34.306 -17.931 -25.045  0.00  0.00    +0.053 C 
ATOM     10  C   UNL     1      34.226 -18.856 -23.837  0.00  0.00    +0.130 C 
ATOM     11  C   UNL     1      34.574 -14.821 -22.899  0.00  0.00    +0.016 C 
ATOM     12  C   UNL     1      33.554 -15.542 -25.404  0.00  0.00    -0.003 C 
ATOM     13  C   UNL     1      33.960 -13.865 -23.710  0.00  0.00    +0.051 C 
ATOM     14  C   UNL     1      33.455 -14.224 -24.960  0.00  0.00    +0.014 C 
BRANCH   7  15
ATOM     15  C   UNL     1      36.256 -16.813 -21.425  0.00  0.00    +0.040 C 
ATOM     16  C   UNL     1      35.422 -16.573 -20.179  0.00  0.00    +0.006 C 
ATOM     17  C   UNL     1      37.288 -17.906 -21.217  0.00  0.00    +0.006 C 
ENDBRANCH   7  15
ENDBRANCH   2  13
BRANCH   3  18
ATOM     18  C   UNL     1      33.843 -10.104 -23.267  0.00  0.00    +0.054 C 
ATOM     19  C   UNL     1      32.883  -8.884 -21.431  0.00  0.00    +0.000 C 
ATOM     20  C   UNL     1      33.597  -7.734 -21.843  0.00  0.00    +0.000 C 
ATOM     21  C   UNL     1      33.019 -10.076 -22.162  0.00  0.00    +0.005 C 
ATOM     22  C   UNL     1      34.548  -9.001 -23.690  0.00  0.00    +0.005 C 
ATOM     23  C   UNL     1      34.426  -7.808 -22.975  0.00  0.00    +0.000 C 
ATOM     24  C   UNL     1      33.461  -6.543 -21.112  0.00  0.00    +0.003 C 
ATOM     25  C   UNL     1      32.055  -8.809 -20.300  0.00  0.00    +0.000 C 
ATOM     26  C   UNL     1      32.633  -6.486 -19.990  0.00  0.00    +0.031 C 
ATOM     27  C   UNL     1      31.931  -7.617 -19.585  0.00  0.00    +0.003 C 
BRANCH  26  30
ATOM     28  N   UNL     1      32.214  -4.042 -19.882  0.00  0.00    -0.343 N 
ATOM     29  N   UNL     1      32.667  -5.247 -17.931  0.00  0.00    -0.285 NA
ATOM     30  C   UNL     1      32.504  -5.245 -19.243  0.00  0.00    +0.117 C 
ATOM     31  H   UNL     1      32.131  -3.213 -19.356  0.00  0.00    +0.144 HD
ATOM     32  H   UNL     1      32.092  -4.019 -20.859  0.00  0.00    +0.144 HD
ATOM     33  H   UNL     1      32.580  -4.407 -17.424  0.00  0.00    +0.188 HD
ENDBRANCH  26  30
ENDBRANCH   3  18
TORSDOF 4
ENDMDL
MODEL 6
REMARK VINA RESULT:     -10.6      2.045      3.918
REMARK  Name = 447735
REMARK  4 active torsions:
REMARK  status: ('A' for Active; 'I' for Inactive)
REMARK    1  A    between atoms: N_2  and  C_13
REMARK    2  A    between atoms: C_3  and  C_18
REMARK    3  A    between atoms: C_7  and  C_15
REMARK    4  A    between atoms: C_26  and  C_30
REMARK                            x       y       z     vdW  Elec       q    Type
REMARK                         _______ _______ _______ _____ _____    ______ ____
ROOT
ATOM      1  O   UNL     1      35.681 -21.712 -19.753  0.00  0.00    -0.270 OA
ATOM      2  N   UNL     1      36.306 -20.236 -18.033  0.00  0.00    -0.280 N 
ATOM      3  C   UNL     1      35.885 -20.582 -19.324  0.00  0.00    +0.249 C 
ATOM      4  H   UNL     1      36.419 -19.274 -17.860  0.00  0.00    +0.155 HD
ENDROOT
BRANCH   2  13
ATOM      5  N   UNL     1      34.969 -24.197 -13.607  0.00  0.00    -0.274 NA
ATOM      6  C   UNL     1      35.815 -22.533 -15.190  0.00  0.00    +0.010 C 
ATOM      7  C   UNL     1      34.755 -23.181 -14.377  0.00  0.00    +0.053 C 
ATOM      8  C   UNL     1      37.142 -22.803 -14.828  0.00  0.00    -0.019 C 
ATOM      9  C   UNL     1      37.401 -23.700 -13.655  0.00  0.00    +0.053 C 
ATOM     10  C   UNL     1      36.320 -24.771 -13.593  0.00  0.00    +0.130 C 
ATOM     11  C   UNL     1      35.532 -21.681 -16.260  0.00  0.00    +0.016 C 
ATOM     12  C   UNL     1      38.185 -22.191 -15.529  0.00  0.00    -0.003 C 
ATOM     13  C   UNL     1      36.581 -21.088 -16.963  0.00  0.00    +0.051 C 
ATOM     14  C   UNL     1      37.903 -21.339 -16.597  0.00  0.00    +0.014 C 
BRANCH   7  15
ATOM     15  C   UNL     1      33.351 -22.630 -14.439  0.00  0.00    +0.040 C 
ATOM     16  C   UNL     1      32.695 -23.116 -15.719  0.00  0.00    +0.006 C 
ATOM     17  C   UNL     1      32.586 -23.070 -13.204  0.00  0.00    +0.006 C 
ENDBRANCH   7  15
ENDBRANCH   2  13
BRANCH   3  18
ATOM     18  C   UNL     1      35.698 -19.442 -20.260  0.00  0.00    +0.054 C 
ATOM     19  C   UNL     1      34.845 -18.591 -22.341  0.00  0.00    +0.000 C 
ATOM     20  C   UNL     1      35.350 -17.313 -22.006  0.00  0.00    +0.000 C 
ATOM     21  C   UNL     1      35.029 -19.658 -21.446  0.00  0.00    +0.005 C 
ATOM     22  C   UNL     1      36.199 -18.209 -19.910  0.00  0.00    +0.005 C 
ATOM     23  C   UNL     1      36.025 -17.137 -20.787  0.00  0.00    +0.000 C 
ATOM     24  C   UNL     1      35.166 -16.246 -22.901  0.00  0.00    +0.003 C 
ATOM     25  C   UNL     1      34.170 -18.765 -23.560  0.00  0.00    +0.000 C 
ATOM     26  C   UNL     1      34.493 -16.437 -24.109  0.00  0.00    +0.031 C 
ATOM     27  C   UNL     1      33.996 -17.695 -24.437  0.00  0.00    +0.003 C 
BRANCH  26  30
ATOM     28  N   UNL     1      33.062 -14.729 -25.203  0.00  0.00    -0.343 N 
ATOM     29  N   UNL     1      35.340 -14.857 -25.708  0.00  0.00    -0.285 NA
ATOM     30  C   UNL     1      34.310 -15.322 -25.024  0.00  0.00    +0.117 C 
ATOM     31  H   UNL     1      32.961 -13.974 -25.828  0.00  0.00    +0.144 HD
ATOM     32  H   UNL     1      32.281 -15.063 -24.705  0.00  0.00    +0.144 HD
ATOM     33  H   UNL     1      35.218 -14.102 -26.330  0.00  0.00    +0.188 HD
ENDBRANCH  26  30
ENDBRANCH   3  18
TORSDOF 4
ENDMDL
MODEL 7
REMARK VINA RESULT:     -10.5      8.557     14.942
REMARK  Name = 447735
REMARK  4 active torsions:
REMARK  status: ('A' for Active; 'I' for Inactive)
REMARK    1  A    between atoms: N_2  and  C_13
REMARK    2  A    between atoms: C_3  and  C_18
REMARK    3  A    between atoms: C_7  and  C_15
REMARK    4  A    between atoms: C_26  and  C_30
REMARK                            x       y       z     vdW  Elec       q    Type
REMARK                         _______ _______ _______ _____ _____    ______ ____
ROOT
ATOM      1  O   UNL     1      31.652 -10.859 -21.373  0.00  0.00    -0.270 OA
ATOM      2  N   UNL     1      33.293  -9.822 -22.700  0.00  0.00    -0.280 N 
ATOM      3  C   UNL     1      32.684 -10.894 -22.034  0.00  0.00    +0.249 C 
ATOM      4  H   UNL     1      34.123 -10.032 -23.186  0.00  0.00    +0.155 HD
ENDROOT
BRANCH   2  13
ATOM      5  N   UNL     1      32.536  -4.138 -20.656  0.00  0.00    -0.274 NA
ATOM      6  C   UNL     1      32.554  -6.349 -21.705  0.00  0.00    +0.010 C 
ATOM      7  C   UNL     1      32.622  -5.422 -20.546  0.00  0.00    +0.053 C 
ATOM      8  C   UNL     1      32.018  -5.836 -22.893  0.00  0.00    -0.019 C 
ATOM      9  C   UNL     1      31.542  -4.414 -22.914  0.00  0.00    +0.053 C 
ATOM     10  C   UNL     1      32.430  -3.573 -22.006  0.00  0.00    +0.130 C 
ATOM     11  C   UNL     1      32.984  -7.676 -21.637  0.00  0.00    +0.016 C 
ATOM     12  C   UNL     1      31.889  -6.669 -24.008  0.00  0.00    -0.003 C 
ATOM     13  C   UNL     1      32.866  -8.496 -22.760  0.00  0.00    +0.051 C 
ATOM     14  C   UNL     1      32.317  -7.995 -23.941  0.00  0.00    +0.014 C 
BRANCH   7  15
ATOM     15  C   UNL     1      32.794  -6.000 -19.162  0.00  0.00    +0.040 C 
ATOM     16  C   UNL     1      32.560  -4.898 -18.144  0.00  0.00    +0.006 C 
ATOM     17  C   UNL     1      31.827  -7.157 -18.981  0.00  0.00    +0.006 C 
ENDBRANCH   7  15
ENDBRANCH   2  13
BRANCH   3  18
ATOM     18  C   UNL     1      33.398 -12.195 -22.132  0.00  0.00    +0.054 C 
ATOM     19  C   UNL     1      34.343 -14.124 -21.051  0.00  0.00    +0.000 C 
ATOM     20  C   UNL     1      34.731 -14.623 -22.318  0.00  0.00    +0.000 C 
ATOM     21  C   UNL     1      33.668 -12.894 -20.975  0.00  0.00    +0.005 C 
ATOM     22  C   UNL     1      33.764 -12.656 -23.375  0.00  0.00    +0.005 C 
ATOM     23  C   UNL     1      34.434 -13.877 -23.471  0.00  0.00    +0.000 C 
ATOM     24  C   UNL     1      35.405 -15.852 -22.394  0.00  0.00    +0.003 C 
ATOM     25  C   UNL     1      34.640 -14.870 -19.900  0.00  0.00    +0.000 C 
ATOM     26  C   UNL     1      35.692 -16.580 -21.239  0.00  0.00    +0.031 C 
ATOM     27  C   UNL     1      35.310 -16.090 -19.994  0.00  0.00    +0.003 C 
BRANCH  26  30
ATOM     28  N   UNL     1      35.772 -19.047 -20.973  0.00  0.00    -0.343 N 
ATOM     29  N   UNL     1      37.637 -17.887 -21.770  0.00  0.00    -0.285 NA
ATOM     30  C   UNL     1      36.389 -17.852 -21.335  0.00  0.00    +0.117 C 
ATOM     31  H   UNL     1      36.264 -19.898 -21.047  0.00  0.00    +0.144 HD
ATOM     32  H   UNL     1      34.844 -19.043 -20.644  0.00  0.00    +0.144 HD
ATOM     33  H   UNL     1      38.113 -18.747 -21.835  0.00  0.00    +0.188 HD
ENDBRANCH  26  30
ENDBRANCH   3  18
TORSDOF 4
ENDMDL
MODEL 8
REMARK VINA RESULT:     -10.4      8.850     15.202
REMARK  Name = 447735
REMARK  4 active torsions:
REMARK  status: ('A' for Active; 'I' for Inactive)
REMARK    1  A    between atoms: N_2  and  C_13
REMARK    2  A    between atoms: C_3  and  C_18
REMARK    3  A    between atoms: C_7  and  C_15
REMARK    4  A    between atoms: C_26  and  C_30
REMARK                            x       y       z     vdW  Elec       q    Type
REMARK                         _______ _______ _______ _____ _____    ______ ____
ROOT
ATOM      1  O   UNL     1      31.170 -10.815 -20.971  0.00  0.00    -0.270 OA
ATOM      2  N   UNL     1      33.168  -9.592 -21.181  0.00  0.00    -0.280 N 
ATOM      3  C   UNL     1      32.366 -10.741 -21.229  0.00  0.00    +0.249 C 
ATOM      4  H   UNL     1      34.114  -9.717 -21.423  0.00  0.00    +0.155 HD
ENDROOT
BRANCH   2  13
ATOM      5  N   UNL     1      31.333  -3.883 -22.231  0.00  0.00    -0.274 NA
ATOM      6  C   UNL     1      32.196  -6.048 -21.484  0.00  0.00    +0.010 C 
ATOM      7  C   UNL     1      31.977  -4.974 -22.487  0.00  0.00    +0.053 C 
ATOM      8  C   UNL     1      32.017  -5.701 -20.138  0.00  0.00    -0.019 C 
ATOM      9  C   UNL     1      31.637  -4.290 -19.802  0.00  0.00    +0.053 C 
ATOM     10  C   UNL     1      30.737  -3.737 -20.899  0.00  0.00    +0.130 C 
ATOM     11  C   UNL     1      32.576  -7.345 -21.837  0.00  0.00    +0.016 C 
ATOM     12  C   UNL     1      32.248  -6.656 -19.143  0.00  0.00    -0.003 C 
ATOM     13  C   UNL     1      32.788  -8.295 -20.837  0.00  0.00    +0.051 C 
ATOM     14  C   UNL     1      32.628  -7.951 -19.495  0.00  0.00    +0.014 C 
BRANCH   7  15
ATOM     15  C   UNL     1      32.537  -5.153 -23.877  0.00  0.00    +0.040 C 
ATOM     16  C   UNL     1      31.571  -6.003 -24.683  0.00  0.00    +0.006 C 
ATOM     17  C   UNL     1      32.755  -3.788 -24.506  0.00  0.00    +0.006 C 
ENDBRANCH   7  15
ENDBRANCH   2  13
BRANCH   3  18
ATOM     18  C   UNL     1      33.071 -11.994 -21.609  0.00  0.00    +0.054 C 
ATOM     19  C   UNL     1      34.170 -14.030 -20.955  0.00  0.00    +0.000 C 
ATOM     20  C   UNL     1      34.384 -14.334 -22.320  0.00  0.00    +0.000 C 
ATOM     21  C   UNL     1      33.503 -12.843 -20.611  0.00  0.00    +0.005 C 
ATOM     22  C   UNL     1      33.266 -12.265 -22.944  0.00  0.00    +0.005 C 
ATOM     23  C   UNL     1      33.926 -13.441 -23.304  0.00  0.00    +0.000 C 
ATOM     24  C   UNL     1      35.051 -15.521 -22.664  0.00  0.00    +0.003 C 
ATOM     25  C   UNL     1      34.629 -14.923 -19.974  0.00  0.00    +0.000 C 
ATOM     26  C   UNL     1      35.500 -16.397 -21.674  0.00  0.00    +0.031 C 
ATOM     27  C   UNL     1      35.289 -16.098 -20.332  0.00  0.00    +0.003 C 
BRANCH  26  30
ATOM     28  N   UNL     1      37.549 -17.793 -21.803  0.00  0.00    -0.343 N 
ATOM     29  N   UNL     1      35.519 -18.602 -22.631  0.00  0.00    -0.285 NA
ATOM     30  C   UNL     1      36.188 -17.623 -22.046  0.00  0.00    +0.117 C 
ATOM     31  H   UNL     1      37.995 -18.632 -22.064  0.00  0.00    +0.144 HD
ATOM     32  H   UNL     1      38.066 -17.074 -21.372  0.00  0.00    +0.144 HD
ATOM     33  H   UNL     1      35.983 -19.433 -22.884  0.00  0.00    +0.188 HD
ENDBRANCH  26  30
ENDBRANCH   3  18
TORSDOF 4
ENDMDL
MODEL 9
REMARK VINA RESULT:     -10.3      3.395     10.940
REMARK  Name = 447735
REMARK  4 active torsions:
REMARK  status: ('A' for Active; 'I' for Inactive)
REMARK    1  A    between atoms: N_2  and  C_13
REMARK    2  A    between atoms: C_3  and  C_18
REMARK    3  A    between atoms: C_7  and  C_15
REMARK    4  A    between atoms: C_26  and  C_30
REMARK                            x       y       z     vdW  Elec       q    Type
REMARK                         _______ _______ _______ _____ _____    ______ ____
ROOT
ATOM      1  O   UNL     1      34.945 -19.095 -21.991  0.00  0.00    -0.270 OA
ATOM      2  N   UNL     1      35.106 -17.273 -20.513  0.00  0.00    -0.280 N 
ATOM      3  C   UNL     1      35.103 -18.628 -20.868  0.00  0.00    +0.249 C 
ATOM      4  H   UNL     1      35.249 -17.077 -19.559  0.00  0.00    +0.155 HD
ENDROOT
BRANCH   2  13
ATOM      5  N   UNL     1      33.229 -11.671 -21.984  0.00  0.00    -0.274 NA
ATOM      6  C   UNL     1      33.986 -13.988 -21.760  0.00  0.00    +0.010 C 
ATOM      7  C   UNL     1      33.153 -12.816 -21.389  0.00  0.00    +0.053 C 
ATOM      8  C   UNL     1      34.601 -13.952 -23.018  0.00  0.00    -0.019 C 
ATOM      9  C   UNL     1      34.371 -12.762 -23.899  0.00  0.00    +0.053 C 
ATOM     10  C   UNL     1      34.240 -11.514 -23.036  0.00  0.00    +0.130 C 
ATOM     11  C   UNL     1      34.154 -15.091 -20.920  0.00  0.00    +0.016 C 
ATOM     12  C   UNL     1      35.366 -15.043 -23.443  0.00  0.00    -0.003 C 
ATOM     13  C   UNL     1      34.933 -16.167 -21.346  0.00  0.00    +0.051 C 
ATOM     14  C   UNL     1      35.534 -16.145 -22.605  0.00  0.00    +0.014 C 
BRANCH   7  15
ATOM     15  C   UNL     1      32.156 -12.959 -20.265  0.00  0.00    +0.040 C 
ATOM     16  C   UNL     1      32.699 -13.959 -19.259  0.00  0.00    +0.006 C 
ATOM     17  C   UNL     1      31.910 -11.598 -19.638  0.00  0.00    +0.006 C 
ENDBRANCH   7  15
ENDBRANCH   2  13
BRANCH   3  18
ATOM     18  C   UNL     1      35.288 -19.582 -19.743  0.00  0.00    +0.054 C 
ATOM     19  C   UNL     1      34.342 -21.146 -18.179  0.00  0.00    +0.000 C 
ATOM     20  C   UNL     1      35.633 -21.364 -17.643  0.00  0.00    +0.000 C 
ATOM     21  C   UNL     1      34.184 -20.242 -19.243  0.00  0.00    +0.005 C 
ATOM     22  C   UNL     1      36.553 -19.776 -19.239  0.00  0.00    +0.005 C 
ATOM     23  C   UNL     1      36.729 -20.671 -18.183  0.00  0.00    +0.000 C 
ATOM     24  C   UNL     1      35.791 -22.268 -16.579  0.00  0.00    +0.003 C 
ATOM     25  C   UNL     1      33.248 -21.839 -17.638  0.00  0.00    +0.000 C 
ATOM     26  C   UNL     1      34.691 -22.948 -16.053  0.00  0.00    +0.031 C 
ATOM     27  C   UNL     1      33.422 -22.733 -16.582  0.00  0.00    +0.003 C 
BRANCH  26  30
ATOM     28  N   UNL     1      33.961 -23.945 -13.900  0.00  0.00    -0.343 N 
ATOM     29  N   UNL     1      35.918 -24.688 -14.940  0.00  0.00    -0.285 NA
ATOM     30  C   UNL     1      34.871 -23.881 -14.953  0.00  0.00    +0.117 C 
ATOM     31  H   UNL     1      34.103 -24.585 -13.165  0.00  0.00    +0.144 HD
ATOM     32  H   UNL     1      33.177 -23.351 -13.891  0.00  0.00    +0.144 HD
ATOM     33  H   UNL     1      36.043 -25.321 -14.195  0.00  0.00    +0.188 HD
ENDBRANCH  26  30
ENDBRANCH   3  18
TORSDOF 4
ENDMDL
