MODEL 1
REMARK VINA RESULT:     -12.4      0.000      0.000
REMARK  Name = 5288607
REMARK  4 active torsions:
REMARK  status: ('A' for Active; 'I' for Inactive)
REMARK    1  A    between atoms: N_2  and  C_19
REMARK    2  A    between atoms: C_3  and  C_6
REMARK    3  A    between atoms: C_5  and  C_16
REMARK    4  A    between atoms: C_19  and  C_21
REMARK                            x       y       z     vdW  Elec       q    Type
REMARK                         _______ _______ _______ _____ _____    ______ ____
ROOT
ATOM      1  O   UNL     1      34.081 -17.325 -24.939  0.00  0.00    -0.270 OA
ATOM      2  N   UNL     1      34.679 -15.319 -23.931  0.00  0.00    -0.270 N 
ATOM      3  C   UNL     1      34.589 -16.711 -24.000  0.00  0.00    +0.249 C 
ATOM      4  C   UNL     1      34.146 -14.513 -25.022  0.00  0.00    +0.116 C 
ENDROOT
BRANCH   3   6
ATOM      5  C   UNL     1      34.339 -18.332 -22.153  0.00  0.00    +0.006 C 
ATOM      6  C   UNL     1      35.129 -17.463 -22.828  0.00  0.00    +0.058 C 
BRANCH   5  16
ATOM      7  O   UNL     1      35.608 -22.644 -15.897  0.00  0.00    -0.275 OA
ATOM      8  N   UNL     1      36.010 -21.217 -17.651  0.00  0.00    -0.270 N 
ATOM      9  N   UNL     1      36.497 -19.811 -19.490  0.00  0.00    -0.229 NA
ATOM     10  C   UNL     1      33.235 -21.228 -18.230  0.00  0.00    +0.039 C 
ATOM     11  C   UNL     1      34.220 -20.530 -19.119  0.00  0.00    +0.010 C 
ATOM     12  C   UNL     1      33.879 -22.422 -17.543  0.00  0.00    +0.090 C 
ATOM     13  C   UNL     1      35.574 -20.509 -18.787  0.00  0.00    +0.130 C 
ATOM     14  C   UNL     1      33.807 -19.801 -20.235  0.00  0.00    +0.000 C 
ATOM     15  C   UNL     1      35.222 -22.090 -16.927  0.00  0.00    +0.227 C 
ATOM     16  C   UNL     1      34.740 -19.095 -20.984  0.00  0.00    +0.019 C 
ATOM     17  C   UNL     1      36.060 -19.129 -20.571  0.00  0.00    +0.100 C 
ATOM     18  H   UNL     1      36.938 -21.081 -17.353  0.00  0.00    +0.156 HD
ENDBRANCH   5  16
ENDBRANCH   3   6
BRANCH   2  19
ATOM     19  C   UNL     1      35.246 -14.567 -22.813  0.00  0.00    +0.122 C 
BRANCH  19  21
ATOM     20  N   UNL     1      33.609 -11.304 -22.852  0.00  0.00    -0.284 N 
ATOM     21  C   UNL     1      34.452 -13.327 -22.589  0.00  0.00    +0.014 C 
ATOM     22  C   UNL     1      33.565 -13.087 -21.512  0.00  0.00    +0.013 C 
ATOM     23  C   UNL     1      33.045 -11.805 -21.700  0.00  0.00    +0.051 C 
ATOM     24  C   UNL     1      34.466 -12.222 -23.397  0.00  0.00    +0.063 C 
ATOM     25  C   UNL     1      33.146 -13.831 -20.392  0.00  0.00    +0.001 C 
ATOM     26  C   UNL     1      32.123 -11.227 -20.820  0.00  0.00    +0.015 C 
ATOM     27  C   UNL     1      33.345  -9.997 -23.417  0.00  0.00    +0.117 C 
ATOM     28  C   UNL     1      32.226 -13.267 -19.502  0.00  0.00    +0.000 C 
ATOM     29  C   UNL     1      31.723 -11.985 -19.715  0.00  0.00    +0.001 C 
ENDBRANCH  19  21
ENDBRANCH   2  19
TORSDOF 4
ENDMDL
MODEL 2
REMARK VINA RESULT:     -12.3      1.249      1.632
REMARK  Name = 5288607
REMARK  4 active torsions:
REMARK  status: ('A' for Active; 'I' for Inactive)
REMARK    1  A    between atoms: N_2  and  C_19
REMARK    2  A    between atoms: C_3  and  C_6
REMARK    3  A    between atoms: C_5  and  C_16
REMARK    4  A    between atoms: C_19  and  C_21
REMARK                            x       y       z     vdW  Elec       q    Type
REMARK                         _______ _______ _______ _____ _____    ______ ____
ROOT
ATOM      1  O   UNL     1      35.055 -15.807 -25.303  0.00  0.00    -0.270 OA
ATOM      2  N   UNL     1      33.995 -14.235 -23.960  0.00  0.00    -0.270 N 
ATOM      3  C   UNL     1      34.773 -15.373 -24.186  0.00  0.00    +0.249 C 
ATOM      4  C   UNL     1      33.466 -13.493 -25.098  0.00  0.00    +0.116 C 
ENDROOT
BRANCH   3   6
ATOM      5  C   UNL     1      34.976 -17.410 -22.804  0.00  0.00    +0.006 C 
ATOM      6  C   UNL     1      35.250 -16.094 -22.968  0.00  0.00    +0.058 C 
BRANCH   5  16
ATOM      7  O   UNL     1      36.159 -21.967 -16.707  0.00  0.00    -0.275 OA
ATOM      8  N   UNL     1      36.570 -20.429 -18.362  0.00  0.00    -0.270 N 
ATOM      9  N   UNL     1      37.071 -18.902 -20.099  0.00  0.00    -0.229 NA
ATOM     10  C   UNL     1      33.835 -20.567 -19.099  0.00  0.00    +0.039 C 
ATOM     11  C   UNL     1      34.824 -19.769 -19.894  0.00  0.00    +0.010 C 
ATOM     12  C   UNL     1      34.512 -21.758 -18.436  0.00  0.00    +0.090 C 
ATOM     13  C   UNL     1      36.154 -19.688 -19.485  0.00  0.00    +0.130 C 
ATOM     14  C   UNL     1      34.429 -19.006 -20.995  0.00  0.00    +0.000 C 
ATOM     15  C   UNL     1      35.798 -21.382 -17.729  0.00  0.00    +0.227 C 
ATOM     16  C   UNL     1      35.357 -18.210 -21.654  0.00  0.00    +0.019 C 
ATOM     17  C   UNL     1      36.653 -18.190 -21.168  0.00  0.00    +0.100 C 
ATOM     18  H   UNL     1      37.471 -20.256 -18.006  0.00  0.00    +0.156 HD
ENDBRANCH   5  16
ENDBRANCH   3   6
BRANCH   2  19
ATOM     19  C   UNL     1      33.619 -13.721 -22.645  0.00  0.00    +0.122 C 
BRANCH  19  21
ATOM     20  N   UNL     1      33.914 -10.139 -23.287  0.00  0.00    -0.284 N 
ATOM     21  C   UNL     1      33.559 -12.233 -22.687  0.00  0.00    +0.014 C 
ATOM     22  C   UNL     1      32.809 -11.404 -21.820  0.00  0.00    +0.013 C 
ATOM     23  C   UNL     1      33.048 -10.087 -22.218  0.00  0.00    +0.051 C 
ATOM     24  C   UNL     1      34.229 -11.439 -23.578  0.00  0.00    +0.063 C 
ATOM     25  C   UNL     1      31.944 -11.636 -20.731  0.00  0.00    +0.001 C 
ATOM     26  C   UNL     1      32.464  -8.987 -21.580  0.00  0.00    +0.015 C 
ATOM     27  C   UNL     1      34.425  -8.993 -24.010  0.00  0.00    +0.117 C 
ATOM     28  C   UNL     1      31.354 -10.546 -20.083  0.00  0.00    +0.000 C 
ATOM     29  C   UNL     1      31.611  -9.243 -20.502  0.00  0.00    +0.001 C 
ENDBRANCH  19  21
ENDBRANCH   2  19
TORSDOF 4
ENDMDL
MODEL 3
REMARK VINA RESULT:     -12.2      4.605     11.190
REMARK  Name = 5288607
REMARK  4 active torsions:
REMARK  status: ('A' for Active; 'I' for Inactive)
REMARK    1  A    between atoms: N_2  and  C_19
REMARK    2  A    between atoms: C_3  and  C_6
REMARK    3  A    between atoms: C_5  and  C_16
REMARK    4  A    between atoms: C_19  and  C_21
REMARK                            x       y       z     vdW  Elec       q    Type
REMARK                         _______ _______ _______ _____ _____    ______ ____
ROOT
ATOM      1  O   UNL     1      31.077 -23.823 -15.781  0.00  0.00    -0.270 OA
ATOM      2  N   UNL     1      32.504 -23.414 -13.993  0.00  0.00    -0.270 N 
ATOM      3  C   UNL     1      32.021 -23.205 -15.287  0.00  0.00    +0.249 C 
ATOM      4  C   UNL     1      31.873 -24.420 -13.148  0.00  0.00    +0.116 C 
ENDROOT
BRANCH   3   6
ATOM      5  C   UNL     1      33.719 -22.554 -16.959  0.00  0.00    +0.006 C 
ATOM      6  C   UNL     1      32.742 -22.179 -16.099  0.00  0.00    +0.058 C 
BRANCH   5  16
ATOM      7  O   UNL     1      37.148 -17.576 -21.733  0.00  0.00    -0.275 OA
ATOM      8  N   UNL     1      36.881 -19.114 -20.049  0.00  0.00    -0.270 N 
ATOM      9  N   UNL     1      36.647 -20.631 -18.250  0.00  0.00    -0.229 NA
ATOM     10  C   UNL     1      34.174 -19.426 -20.832  0.00  0.00    +0.039 C 
ATOM     11  C   UNL     1      34.722 -20.104 -19.613  0.00  0.00    +0.010 C 
ATOM     12  C   UNL     1      34.901 -18.115 -21.094  0.00  0.00    +0.090 C 
ATOM     13  C   UNL     1      36.067 -19.964 -19.275  0.00  0.00    +0.130 C 
ATOM     14  C   UNL     1      33.941 -20.971 -18.847  0.00  0.00    +0.000 C 
ATOM     15  C   UNL     1      36.408 -18.258 -21.024  0.00  0.00    +0.227 C 
ATOM     16  C   UNL     1      34.508 -21.650 -17.776  0.00  0.00    +0.019 C 
ATOM     17  C   UNL     1      35.854 -21.450 -17.523  0.00  0.00    +0.100 C 
ATOM     18  H   UNL     1      37.851 -19.131 -19.884  0.00  0.00    +0.156 HD
ENDBRANCH   5  16
ENDBRANCH   3   6
BRANCH   2  19
ATOM     19  C   UNL     1      33.643 -22.718 -13.398  0.00  0.00    +0.122 C 
BRANCH  19  21
ATOM     20  N   UNL     1      36.296 -25.079 -14.240  0.00  0.00    -0.284 N 
ATOM     21  C   UNL     1      34.866 -23.558 -13.526  0.00  0.00    +0.014 C 
ATOM     22  C   UNL     1      36.024 -23.473 -12.717  0.00  0.00    +0.013 C 
ATOM     23  C   UNL     1      36.913 -24.442 -13.187  0.00  0.00    +0.051 C 
ATOM     24  C   UNL     1      35.053 -24.548 -14.451  0.00  0.00    +0.063 C 
ATOM     25  C   UNL     1      36.414 -22.667 -11.628  0.00  0.00    +0.001 C 
ATOM     26  C   UNL     1      38.176 -24.647 -12.621  0.00  0.00    +0.015 C 
ATOM     27  C   UNL     1      36.868 -26.156 -15.021  0.00  0.00    +0.117 C 
ATOM     28  C   UNL     1      37.673 -22.861 -11.051  0.00  0.00    +0.000 C 
ATOM     29  C   UNL     1      38.539 -23.836 -11.541  0.00  0.00    +0.001 C 
ENDBRANCH  19  21
ENDBRANCH   2  19
TORSDOF 4
ENDMDL
MODEL 4
REMARK VINA RESULT:     -11.9      0.798      1.957
REMARK  Name = 5288607
REMARK  4 active torsions:
REMARK  status: ('A' for Active; 'I' for Inactive)
REMARK    1  A    between atoms: N_2  and  C_19
REMARK    2  A    between atoms: C_3  and  C_6
REMARK    3  A    between atoms: C_5  and  C_16
REMARK    4  A    between atoms: C_19  and  C_21
REMARK                            x       y       z     vdW  Elec       q    Type
REMARK                         _______ _______ _______ _____ _____    ______ ____
ROOT
ATOM      1  O   UNL     1      33.896 -17.633 -24.729  0.00  0.00    -0.270 OA
ATOM      2  N   UNL     1      34.757 -15.612 -23.970  0.00  0.00    -0.270 N 
ATOM      3  C   UNL     1      34.528 -16.988 -23.891  0.00  0.00    +0.249 C 
ATOM      4  C   UNL     1      34.227 -14.863 -25.102  0.00  0.00    +0.116 C 
ENDROOT
BRANCH   3   6
ATOM      5  C   UNL     1      34.336 -18.605 -22.034  0.00  0.00    +0.006 C 
ATOM      6  C   UNL     1      35.076 -17.677 -22.684  0.00  0.00    +0.058 C 
BRANCH   5  16
ATOM      7  O   UNL     1      35.669 -22.677 -15.633  0.00  0.00    -0.275 OA
ATOM      8  N   UNL     1      36.045 -21.291 -17.424  0.00  0.00    -0.270 N 
ATOM      9  N   UNL     1      36.508 -19.924 -19.298  0.00  0.00    -0.229 NA
ATOM     10  C   UNL     1      33.280 -21.419 -18.038  0.00  0.00    +0.039 C 
ATOM     11  C   UNL     1      34.252 -20.714 -18.936  0.00  0.00    +0.010 C 
ATOM     12  C   UNL     1      33.957 -22.569 -17.307  0.00  0.00    +0.090 C 
ATOM     13  C   UNL     1      35.600 -20.633 -18.587  0.00  0.00    +0.130 C 
ATOM     14  C   UNL     1      33.829 -20.034 -20.079  0.00  0.00    +0.000 C 
ATOM     15  C   UNL     1      35.278 -22.169 -16.684  0.00  0.00    +0.227 C 
ATOM     16  C   UNL     1      34.747 -19.318 -20.837  0.00  0.00    +0.019 C 
ATOM     17  C   UNL     1      36.062 -19.291 -20.406  0.00  0.00    +0.100 C 
ATOM     18  H   UNL     1      36.963 -21.112 -17.118  0.00  0.00    +0.156 HD
ENDBRANCH   5  16
ENDBRANCH   3   6
BRANCH   2  19
ATOM     19  C   UNL     1      35.473 -14.821 -22.972  0.00  0.00    +0.122 C 
BRANCH  19  21
ATOM     20  N   UNL     1      33.054 -13.397 -20.637  0.00  0.00    -0.284 N 
ATOM     21  C   UNL     1      34.504 -14.008 -22.186  0.00  0.00    +0.014 C 
ATOM     22  C   UNL     1      34.098 -12.684 -22.475  0.00  0.00    +0.013 C 
ATOM     23  C   UNL     1      33.184 -12.320 -21.484  0.00  0.00    +0.051 C 
ATOM     24  C   UNL     1      33.852 -14.427 -21.058  0.00  0.00    +0.063 C 
ATOM     25  C   UNL     1      34.415 -11.749 -23.481  0.00  0.00    +0.001 C 
ATOM     26  C   UNL     1      32.569 -11.063 -21.448  0.00  0.00    +0.015 C 
ATOM     27  C   UNL     1      32.202 -13.449 -19.468  0.00  0.00    +0.117 C 
ATOM     28  C   UNL     1      33.807 -10.489 -23.459  0.00  0.00    +0.000 C 
ATOM     29  C   UNL     1      32.899 -10.153 -22.458  0.00  0.00    +0.001 C 
ENDBRANCH  19  21
ENDBRANCH   2  19
TORSDOF 4
ENDMDL
MODEL 5
REMARK VINA RESULT:     -11.7      1.478      2.897
REMARK  Name = 5288607
REMARK  4 active torsions:
REMARK  status: ('A' for Active; 'I' for Inactive)
REMARK    1  A    between atoms: N_2  and  C_19
REMARK    2  A    between atoms: C_3  and  C_6
REMARK    3  A    between atoms: C_5  and  C_16
REMARK    4  A    between atoms: C_19  and  C_21
REMARK                            x       y       z     vdW  Elec       q    Type
REMARK                         _______ _______ _______ _____ _____    ______ ____
ROOT
ATOM      1  O   UNL     1      33.511 -15.345 -25.213  0.00  0.00    -0.270 OA
ATOM      2  N   UNL     1      34.123 -13.342 -24.205  0.00  0.00    -0.270 N 
ATOM      3  C   UNL     1      34.007 -14.733 -24.266  0.00  0.00    +0.249 C 
ATOM      4  C   UNL     1      33.635 -12.535 -25.316  0.00  0.00    +0.116 C 
ENDROOT
BRANCH   3   6
ATOM      5  C   UNL     1      34.877 -16.781 -23.194  0.00  0.00    +0.006 C 
ATOM      6  C   UNL     1      34.501 -15.486 -23.074  0.00  0.00    +0.058 C 
BRANCH   5  16
ATOM      7  O   UNL     1      36.523 -21.587 -17.403  0.00  0.00    -0.275 OA
ATOM      8  N   UNL     1      36.798 -19.961 -19.000  0.00  0.00    -0.270 N 
ATOM      9  N   UNL     1      37.160 -18.339 -20.685  0.00  0.00    -0.229 NA
ATOM     10  C   UNL     1      34.031 -20.142 -19.590  0.00  0.00    +0.039 C 
ATOM     11  C   UNL     1      34.952 -19.279 -20.399  0.00  0.00    +0.010 C 
ATOM     12  C   UNL     1      34.775 -21.343 -19.025  0.00  0.00    +0.090 C 
ATOM     13  C   UNL     1      36.300 -19.179 -20.061  0.00  0.00    +0.130 C 
ATOM     14  C   UNL     1      34.475 -18.477 -21.438  0.00  0.00    +0.000 C 
ATOM     15  C   UNL     1      36.088 -20.965 -18.373  0.00  0.00    +0.227 C 
ATOM     16  C   UNL     1      35.344 -17.623 -22.107  0.00  0.00    +0.019 C 
ATOM     17  C   UNL     1      36.664 -17.590 -21.693  0.00  0.00    +0.100 C 
ATOM     18  H   UNL     1      37.713 -19.779 -18.686  0.00  0.00    +0.156 HD
ENDBRANCH   5  16
ENDBRANCH   3   6
BRANCH   2  19
ATOM     19  C   UNL     1      34.675 -12.594 -23.078  0.00  0.00    +0.122 C 
BRANCH  19  21
ATOM     20  N   UNL     1      31.900 -10.932 -21.384  0.00  0.00    -0.284 N 
ATOM     21  C   UNL     1      33.635 -11.682 -22.523  0.00  0.00    +0.014 C 
ATOM     22  C   UNL     1      33.499 -10.303 -22.807  0.00  0.00    +0.013 C 
ATOM     23  C   UNL     1      32.398  -9.851 -22.076  0.00  0.00    +0.051 C 
ATOM     24  C   UNL     1      32.646 -12.048 -21.651  0.00  0.00    +0.063 C 
ATOM     25  C   UNL     1      34.201  -9.384 -23.612  0.00  0.00    +0.001 C 
ATOM     26  C   UNL     1      31.962  -8.522 -22.110  0.00  0.00    +0.015 C 
ATOM     27  C   UNL     1      30.755 -10.908 -20.498  0.00  0.00    +0.117 C 
ATOM     28  C   UNL     1      33.776  -8.051 -23.657  0.00  0.00    +0.000 C 
ATOM     29  C   UNL     1      32.674  -7.629 -22.917  0.00  0.00    +0.001 C 
ENDBRANCH  19  21
ENDBRANCH   2  19
TORSDOF 4
ENDMDL
MODEL 6
REMARK VINA RESULT:     -11.3      1.388      2.157
REMARK  Name = 5288607
REMARK  4 active torsions:
REMARK  status: ('A' for Active; 'I' for Inactive)
REMARK    1  A    between atoms: N_2  and  C_19
REMARK    2  A    between atoms: C_3  and  C_6
REMARK    3  A    between atoms: C_5  and  C_16
REMARK    4  A    between atoms: C_19  and  C_21
REMARK                            x       y       z     vdW  Elec       q    Type
REMARK                         _______ _______ _______ _____ _____    ______ ____
ROOT
ATOM      1  O   UNL     1      35.002 -18.515 -23.406  0.00  0.00    -0.270 OA
ATOM      2  N   UNL     1      35.143 -16.378 -22.504  0.00  0.00    -0.270 N 
ATOM      3  C   UNL     1      35.073 -17.772 -22.427  0.00  0.00    +0.249 C 
ATOM      4  C   UNL     1      35.134 -15.733 -23.810  0.00  0.00    +0.116 C 
ENDROOT
BRANCH   3   6
ATOM      5  C   UNL     1      35.122 -19.694 -20.877  0.00  0.00    +0.006 C 
ATOM      6  C   UNL     1      35.055 -18.353 -21.051  0.00  0.00    +0.058 C 
BRANCH   5  16
ATOM      7  O   UNL     1      35.778 -23.091 -13.995  0.00  0.00    -0.275 OA
ATOM      8  N   UNL     1      34.843 -22.373 -15.965  0.00  0.00    -0.270 N 
ATOM      9  N   UNL     1      33.805 -21.586 -17.940  0.00  0.00    -0.229 NA
ATOM     10  C   UNL     1      37.388 -21.415 -16.766  0.00  0.00    +0.039 C 
ATOM     11  C   UNL     1      36.160 -21.167 -17.590  0.00  0.00    +0.010 C 
ATOM     12  C   UNL     1      37.036 -21.513 -15.289  0.00  0.00    +0.090 C 
ATOM     13  C   UNL     1      34.929 -21.684 -17.190  0.00  0.00    +0.130 C 
ATOM     14  C   UNL     1      36.227 -20.510 -18.820  0.00  0.00    +0.000 C 
ATOM     15  C   UNL     1      35.855 -22.425 -15.028  0.00  0.00    +0.227 C 
ATOM     16  C   UNL     1      35.083 -20.377 -19.596  0.00  0.00    +0.019 C 
ATOM     17  C   UNL     1      33.908 -20.931 -19.118  0.00  0.00    +0.100 C 
ATOM     18  H   UNL     1      34.004 -22.847 -15.763  0.00  0.00    +0.156 HD
ENDBRANCH   5  16
ENDBRANCH   3   6
BRANCH   2  19
ATOM     19  C   UNL     1      35.193 -15.475 -21.356  0.00  0.00    +0.122 C 
BRANCH  19  21
ATOM     20  N   UNL     1      34.089 -12.307 -22.797  0.00  0.00    -0.284 N 
ATOM     21  C   UNL     1      34.569 -14.171 -21.717  0.00  0.00    +0.014 C 
ATOM     22  C   UNL     1      33.572 -13.491 -20.978  0.00  0.00    +0.013 C 
ATOM     23  C   UNL     1      33.285 -12.318 -21.679  0.00  0.00    +0.051 C 
ATOM     24  C   UNL     1      34.872 -13.429 -22.826  0.00  0.00    +0.063 C 
ATOM     25  C   UNL     1      32.878 -13.752 -19.779  0.00  0.00    +0.001 C 
ATOM     26  C   UNL     1      32.335 -11.389 -21.240  0.00  0.00    +0.015 C 
ATOM     27  C   UNL     1      34.113 -11.267 -23.803  0.00  0.00    +0.117 C 
ATOM     28  C   UNL     1      31.927 -12.831 -19.327  0.00  0.00    +0.000 C 
ATOM     29  C   UNL     1      31.660 -11.669 -20.047  0.00  0.00    +0.001 C 
ENDBRANCH  19  21
ENDBRANCH   2  19
TORSDOF 4
ENDMDL
MODEL 7
REMARK VINA RESULT:     -10.9      4.283      7.291
REMARK  Name = 5288607
REMARK  4 active torsions:
REMARK  status: ('A' for Active; 'I' for Inactive)
REMARK    1  A    between atoms: N_2  and  C_19
REMARK    2  A    between atoms: C_3  and  C_6
REMARK    3  A    between atoms: C_5  and  C_16
REMARK    4  A    between atoms: C_19  and  C_21
REMARK                            x       y       z     vdW  Elec       q    Type
REMARK                         _______ _______ _______ _____ _____    ______ ____
ROOT
ATOM      1  O   UNL     1      34.951  -7.092 -24.475  0.00  0.00    -0.270 OA
ATOM      2  N   UNL     1      32.787  -7.320 -23.660  0.00  0.00    -0.270 N 
ATOM      3  C   UNL     1      34.091  -7.760 -23.900  0.00  0.00    +0.249 C 
ATOM      4  C   UNL     1      32.387  -5.992 -24.106  0.00  0.00    +0.116 C 
ENDROOT
BRANCH   3   6
ATOM      5  C   UNL     1      33.896 -10.215 -24.089  0.00  0.00    +0.006 C 
ATOM      6  C   UNL     1      34.412  -9.144 -23.440  0.00  0.00    +0.058 C 
BRANCH   5  16
ATOM      7  O   UNL     1      34.812 -17.782 -22.975  0.00  0.00    -0.275 OA
ATOM      8  N   UNL     1      34.738 -15.530 -22.532  0.00  0.00    -0.270 N 
ATOM      9  N   UNL     1      34.758 -13.216 -22.042  0.00  0.00    -0.229 NA
ATOM     10  C   UNL     1      33.744 -15.098 -25.151  0.00  0.00    +0.039 C 
ATOM     11  C   UNL     1      34.084 -13.956 -24.242  0.00  0.00    +0.010 C 
ATOM     12  C   UNL     1      34.621 -16.305 -24.853  0.00  0.00    +0.090 C 
ATOM     13  C   UNL     1      34.533 -14.199 -22.945  0.00  0.00    +0.130 C 
ATOM     14  C   UNL     1      33.865 -12.631 -24.622  0.00  0.00    +0.000 C 
ATOM     15  C   UNL     1      34.698 -16.623 -23.374  0.00  0.00    +0.227 C 
ATOM     16  C   UNL     1      34.110 -11.603 -23.720  0.00  0.00    +0.019 C 
ATOM     17  C   UNL     1      34.548 -11.945 -22.452  0.00  0.00    +0.100 C 
ATOM     18  H   UNL     1      34.921 -15.691 -21.578  0.00  0.00    +0.156 HD
ENDBRANCH   5  16
ENDBRANCH   3   6
BRANCH   2  19
ATOM     19  C   UNL     1      31.740  -8.107 -23.011  0.00  0.00    +0.122 C 
BRANCH  19  21
ATOM     20  N   UNL     1      32.276  -7.279 -19.495  0.00  0.00    -0.284 N 
ATOM     21  C   UNL     1      31.913  -8.048 -21.532  0.00  0.00    +0.014 C 
ATOM     22  C   UNL     1      31.818  -9.140 -20.637  0.00  0.00    +0.013 C 
ATOM     23  C   UNL     1      32.050  -8.631 -19.358  0.00  0.00    +0.051 C 
ATOM     24  C   UNL     1      32.195  -6.918 -20.813  0.00  0.00    +0.063 C 
ATOM     25  C   UNL     1      31.556 -10.517 -20.781  0.00  0.00    +0.001 C 
ATOM     26  C   UNL     1      32.033  -9.432 -18.211  0.00  0.00    +0.015 C 
ATOM     27  C   UNL     1      32.559  -6.361 -18.412  0.00  0.00    +0.117 C 
ATOM     28  C   UNL     1      31.537 -11.331 -19.643  0.00  0.00    +0.000 C 
ATOM     29  C   UNL     1      31.772 -10.795 -18.379  0.00  0.00    +0.001 C 
ENDBRANCH  19  21
ENDBRANCH   2  19
TORSDOF 4
ENDMDL
MODEL 8
REMARK VINA RESULT:     -10.8      4.745     11.477
REMARK  Name = 5288607
REMARK  4 active torsions:
REMARK  status: ('A' for Active; 'I' for Inactive)
REMARK    1  A    between atoms: N_2  and  C_19
REMARK    2  A    between atoms: C_3  and  C_6
REMARK    3  A    between atoms: C_5  and  C_16
REMARK    4  A    between atoms: C_19  and  C_21
REMARK                            x       y       z     vdW  Elec       q    Type
REMARK                         _______ _______ _______ _____ _____    ______ ____
ROOT
ATOM      1  O   UNL     1      30.790 -23.650 -15.301  0.00  0.00    -0.270 OA
ATOM      2  N   UNL     1      32.960 -23.469 -14.488  0.00  0.00    -0.270 N 
ATOM      3  C   UNL     1      31.907 -23.132 -15.342  0.00  0.00    +0.249 C 
ATOM      4  C   UNL     1      32.757 -24.496 -13.474  0.00  0.00    +0.116 C 
ENDROOT
BRANCH   3   6
ATOM      5  C   UNL     1      33.195 -22.295 -17.276  0.00  0.00    +0.006 C 
ATOM      6  C   UNL     1      32.205 -22.094 -16.374  0.00  0.00    +0.058 C 
BRANCH   5  16
ATOM      7  O   UNL     1      36.167 -17.397 -22.425  0.00  0.00    -0.275 OA
ATOM      8  N   UNL     1      34.613 -18.630 -21.269  0.00  0.00    -0.270 N 
ATOM      9  N   UNL     1      32.982 -19.941 -20.166  0.00  0.00    -0.229 NA
ATOM     10  C   UNL     1      36.668 -19.475 -19.508  0.00  0.00    +0.039 C 
ATOM     11  C   UNL     1      35.277 -20.026 -19.414  0.00  0.00    +0.010 C 
ATOM     12  C   UNL     1      36.999 -19.086 -20.941  0.00  0.00    +0.090 C 
ATOM     13  C   UNL     1      34.278 -19.562 -20.268  0.00  0.00    +0.130 C 
ATOM     14  C   UNL     1      34.917 -20.930 -18.413  0.00  0.00    +0.000 C 
ATOM     15  C   UNL     1      35.905 -18.266 -21.593  0.00  0.00    +0.227 C 
ATOM     16  C   UNL     1      33.597 -21.351 -18.303  0.00  0.00    +0.019 C 
ATOM     17  C   UNL     1      32.676 -20.829 -19.194  0.00  0.00    +0.100 C 
ATOM     18  H   UNL     1      33.878 -18.212 -21.772  0.00  0.00    +0.156 HD
ENDBRANCH   5  16
ENDBRANCH   3   6
BRANCH   2  19
ATOM     19  C   UNL     1      34.302 -22.893 -14.540  0.00  0.00    +0.122 C 
BRANCH  19  21
ATOM     20  N   UNL     1      35.849 -23.785 -11.356  0.00  0.00    -0.284 N 
ATOM     21  C   UNL     1      35.114 -23.409 -13.403  0.00  0.00    +0.014 C 
ATOM     22  C   UNL     1      36.237 -24.264 -13.500  0.00  0.00    +0.013 C 
ATOM     23  C   UNL     1      36.684 -24.488 -12.196  0.00  0.00    +0.051 C 
ATOM     24  C   UNL     1      34.894 -23.127 -12.082  0.00  0.00    +0.063 C 
ATOM     25  C   UNL     1      36.925 -24.876 -14.567  0.00  0.00    +0.001 C 
ATOM     26  C   UNL     1      37.787 -25.297 -11.904  0.00  0.00    +0.015 C 
ATOM     27  C   UNL     1      35.954 -23.740  -9.913  0.00  0.00    +0.117 C 
ATOM     28  C   UNL     1      38.031 -25.687 -14.290  0.00  0.00    +0.000 C 
ATOM     29  C   UNL     1      38.454 -25.893 -12.979  0.00  0.00    +0.001 C 
ENDBRANCH  19  21
ENDBRANCH   2  19
TORSDOF 4
ENDMDL
MODEL 9
REMARK VINA RESULT:     -10.8      2.686      4.907
REMARK  Name = 5288607
REMARK  4 active torsions:
REMARK  status: ('A' for Active; 'I' for Inactive)
REMARK    1  A    between atoms: N_2  and  C_19
REMARK    2  A    between atoms: C_3  and  C_6
REMARK    3  A    between atoms: C_5  and  C_16
REMARK    4  A    between atoms: C_19  and  C_21
REMARK                            x       y       z     vdW  Elec       q    Type
REMARK                         _______ _______ _______ _____ _____    ______ ____
ROOT
ATOM      1  O   UNL     1      37.524 -20.640 -20.209  0.00  0.00    -0.270 OA
ATOM      2  N   UNL     1      36.696 -18.483 -20.467  0.00  0.00    -0.270 N 
ATOM      3  C   UNL     1      36.667 -19.788 -19.969  0.00  0.00    +0.249 C 
ATOM      4  C   UNL     1      37.796 -18.072 -21.330  0.00  0.00    +0.116 C 
ENDROOT
BRANCH   3   6
ATOM      5  C   UNL     1      35.495 -21.278 -18.385  0.00  0.00    +0.006 C 
ATOM      6  C   UNL     1      35.490 -20.140 -19.119  0.00  0.00    +0.058 C 
BRANCH   5  16
ATOM      7  O   UNL     1      30.330 -23.980 -13.350  0.00  0.00    -0.275 OA
ATOM      8  N   UNL     1      31.193 -23.035 -15.256  0.00  0.00    -0.270 N 
ATOM      9  N   UNL     1      32.024 -21.980 -17.204  0.00  0.00    -0.229 NA
ATOM     10  C   UNL     1      33.800 -23.600 -14.295  0.00  0.00    +0.039 C 
ATOM     11  C   UNL     1      33.579 -22.816 -15.554  0.00  0.00    +0.010 C 
ATOM     12  C   UNL     1      32.652 -23.387 -13.319  0.00  0.00    +0.090 C 
ATOM     13  C   UNL     1      32.287 -22.588 -16.023  0.00  0.00    +0.130 C 
ATOM     14  C   UNL     1      34.648 -22.386 -16.342  0.00  0.00    +0.000 C 
ATOM     15  C   UNL     1      31.293 -23.532 -13.972  0.00  0.00    +0.227 C 
ATOM     16  C   UNL     1      34.403 -21.740 -17.547  0.00  0.00    +0.019 C 
ATOM     17  C   UNL     1      33.085 -21.566 -17.931  0.00  0.00    +0.100 C 
ATOM     18  H   UNL     1      30.298 -22.990 -15.663  0.00  0.00    +0.156 HD
ENDBRANCH   5  16
ENDBRANCH   3   6
BRANCH   2  19
ATOM     19  C   UNL     1      35.674 -17.467 -20.224  0.00  0.00    +0.122 C 
BRANCH  19  21
ATOM     20  N   UNL     1      34.721 -16.606 -23.641  0.00  0.00    -0.284 N 
ATOM     21  C   UNL     1      35.263 -16.850 -21.516  0.00  0.00    +0.014 C 
ATOM     22  C   UNL     1      34.981 -15.480 -21.733  0.00  0.00    +0.013 C 
ATOM     23  C   UNL     1      34.641 -15.351 -23.081  0.00  0.00    +0.051 C 
ATOM     24  C   UNL     1      35.100 -17.521 -22.697  0.00  0.00    +0.063 C 
ATOM     25  C   UNL     1      34.976 -14.330 -20.919  0.00  0.00    +0.001 C 
ATOM     26  C   UNL     1      34.295 -14.124 -23.658  0.00  0.00    +0.015 C 
ATOM     27  C   UNL     1      34.449 -16.926 -25.027  0.00  0.00    +0.117 C 
ATOM     28  C   UNL     1      34.634 -13.096 -21.482  0.00  0.00    +0.000 C 
ATOM     29  C   UNL     1      34.299 -12.996 -22.831  0.00  0.00    +0.001 C 
ENDBRANCH  19  21
ENDBRANCH   2  19
TORSDOF 4
ENDMDL
