MODEL 1
REMARK VINA RESULT:     -12.1      0.000      0.000
REMARK  Name = 23658582
REMARK  4 active torsions:
REMARK  status: ('A' for Active; 'I' for Inactive)
REMARK    1  A    between atoms: N_3  and  C_13
REMARK    2  A    between atoms: C_8  and  C_25
REMARK    3  A    between atoms: C_15  and  C_22
REMARK    4  A    between atoms: N_24  and  C_29
REMARK                            x       y       z     vdW  Elec       q    Type
REMARK                         _______ _______ _______ _____ _____    ______ ____
ROOT
ATOM      1 CL   UNL     1      34.768 -19.188 -24.372  0.00  0.00    -0.082 Cl
ATOM      2  O   UNL     1      35.295 -14.842 -21.610  0.00  0.00    -0.352 OA
ATOM      3  N   UNL     1      33.910 -12.371 -23.651  0.00  0.00    -0.295 N 
ATOM      4  N   UNL     1      34.962 -13.510 -21.824  0.00  0.00    -0.062 NA
ATOM      5  C   UNL     1      34.336 -14.753 -23.632  0.00  0.00    +0.072 A 
ATOM      6  C   UNL     1      34.920 -15.581 -22.690  0.00  0.00    +0.183 A 
ATOM      7  C   UNL     1      34.393 -13.479 -23.033  0.00  0.00    +0.174 A 
ATOM      8  C   UNL     1      35.087 -16.954 -22.848  0.00  0.00    +0.101 C 
ATOM      9  C   UNL     1      33.873 -15.308 -24.834  0.00  0.00    +0.007 C 
ATOM     10  C   UNL     1      34.621 -17.494 -24.052  0.00  0.00    +0.065 C 
ATOM     11  C   UNL     1      34.025 -16.688 -25.027  0.00  0.00    +0.012 C 
ATOM     12  H   UNL     1      33.609 -12.530 -24.575  0.00  0.00    +0.154 HD
ENDROOT
BRANCH   3  13
ATOM     13  C   UNL     1      33.756 -11.023 -23.221  0.00  0.00    +0.049 C 
ATOM     14  C   UNL     1      34.564 -10.023 -23.762  0.00  0.00    +0.018 C 
ATOM     15  C   UNL     1      34.413  -8.701 -23.341  0.00  0.00    +0.073 C 
ATOM     16  C   UNL     1      32.797 -10.702 -22.261  0.00  0.00    +0.015 C 
ATOM     17  C   UNL     1      33.455  -8.380 -22.380  0.00  0.00    +0.004 C 
ATOM     18  C   UNL     1      32.646  -9.382 -21.840  0.00  0.00    +0.001 C 
BRANCH  15  22
ATOM     19  F   UNL     1      35.993  -8.033 -25.008  0.00  0.00    -0.166 F 
ATOM     20  F   UNL     1      34.582  -6.532 -24.334  0.00  0.00    -0.166 F 
ATOM     21  F   UNL     1      36.200  -7.164 -23.026  0.00  0.00    -0.166 F 
ATOM     22  C   UNL     1      35.277  -7.631 -23.917  0.00  0.00    +0.419 C 
ENDBRANCH  15  22
ENDBRANCH   3  13
BRANCH   8  25
ATOM     23  O   UNL     1      36.934 -17.692 -21.612  0.00  0.00    -0.270 OA
ATOM     24  N   UNL     1      34.841 -18.578 -21.089  0.00  0.00    -0.278 N 
ATOM     25  C   UNL     1      35.713 -17.747 -21.804  0.00  0.00    +0.253 C 
ATOM     26  H   UNL     1      33.892 -18.524 -21.343  0.00  0.00    +0.155 HD
BRANCH  24  29
ATOM     27  N   UNL     1      34.460 -21.194 -18.496  0.00  0.00    -0.221 NA
ATOM     28  N   UNL     1      36.753 -20.454 -18.532  0.00  0.00    -0.221 NA
ATOM     29  C   UNL     1      35.151 -19.487 -20.046  0.00  0.00    +0.089 C 
ATOM     30  C   UNL     1      34.200 -20.317 -19.488  0.00  0.00    +0.117 C 
ATOM     31  C   UNL     1      36.423 -19.599 -19.523  0.00  0.00    +0.117 C 
ATOM     32  C   UNL     1      35.738 -21.209 -18.071  0.00  0.00    +0.199 C 
ENDBRANCH  24  29
ENDBRANCH   8  25
TORSDOF 4
ENDMDL
MODEL 2
REMARK VINA RESULT:     -11.9      5.341      9.504
REMARK  Name = 23658582
REMARK  4 active torsions:
REMARK  status: ('A' for Active; 'I' for Inactive)
REMARK    1  A    between atoms: N_3  and  C_13
REMARK    2  A    between atoms: C_8  and  C_25
REMARK    3  A    between atoms: C_15  and  C_22
REMARK    4  A    between atoms: N_24  and  C_29
REMARK                            x       y       z     vdW  Elec       q    Type
REMARK                         _______ _______ _______ _____ _____    ______ ____
ROOT
ATOM      1 CL   UNL     1      33.501 -12.073 -25.930  0.00  0.00    -0.082 Cl
ATOM      2  O   UNL     1      34.647 -14.147 -21.328  0.00  0.00    -0.352 OA
ATOM      3  N   UNL     1      35.194 -17.522 -22.036  0.00  0.00    -0.295 N 
ATOM      4  N   UNL     1      34.967 -15.428 -20.894  0.00  0.00    -0.062 NA
ATOM      5  C   UNL     1      34.610 -15.454 -23.147  0.00  0.00    +0.072 A 
ATOM      6  C   UNL     1      34.435 -14.166 -22.673  0.00  0.00    +0.183 A 
ATOM      7  C   UNL     1      34.939 -16.189 -21.992  0.00  0.00    +0.174 A 
ATOM      8  C   UNL     1      34.094 -13.076 -23.469  0.00  0.00    +0.101 C 
ATOM      9  C   UNL     1      34.439 -15.705 -24.517  0.00  0.00    +0.007 C 
ATOM     10  C   UNL     1      33.926 -13.341 -24.832  0.00  0.00    +0.065 C 
ATOM     11  C   UNL     1      34.095 -14.630 -25.348  0.00  0.00    +0.012 C 
ATOM     12  H   UNL     1      35.037 -17.928 -22.919  0.00  0.00    +0.154 HD
ENDROOT
BRANCH   3  13
ATOM     13  C   UNL     1      35.641 -18.447 -21.050  0.00  0.00    +0.049 C 
ATOM     14  C   UNL     1      34.725 -19.276 -20.405  0.00  0.00    +0.018 C 
ATOM     15  C   UNL     1      35.164 -20.182 -19.439  0.00  0.00    +0.073 C 
ATOM     16  C   UNL     1      36.997 -18.524 -20.732  0.00  0.00    +0.015 C 
ATOM     17  C   UNL     1      36.519 -20.259 -19.120  0.00  0.00    +0.004 C 
ATOM     18  C   UNL     1      37.436 -19.430 -19.768  0.00  0.00    +0.001 C 
BRANCH  15  22
ATOM     19  F   UNL     1      32.969 -20.481 -18.536  0.00  0.00    -0.166 F 
ATOM     20  F   UNL     1      33.909 -22.219 -19.429  0.00  0.00    -0.166 F 
ATOM     21  F   UNL     1      34.616 -21.467 -17.515  0.00  0.00    -0.166 F 
ATOM     22  C   UNL     1      34.184 -21.068 -18.746  0.00  0.00    +0.419 C 
ENDBRANCH  15  22
ENDBRANCH   3  13
BRANCH   8  25
ATOM     23  O   UNL     1      34.680 -10.824 -23.200  0.00  0.00    -0.270 OA
ATOM     24  N   UNL     1      32.907 -11.654 -21.932  0.00  0.00    -0.278 N 
ATOM     25  C   UNL     1      33.930 -11.756 -22.884  0.00  0.00    +0.253 C 
ATOM     26  H   UNL     1      32.384 -12.473 -21.775  0.00  0.00    +0.155 HD
BRANCH  24  29
ATOM     27  N   UNL     1      31.877  -9.553 -19.062  0.00  0.00    -0.221 NA
ATOM     28  N   UNL     1      32.066  -8.165 -21.022  0.00  0.00    -0.221 NA
ATOM     29  C   UNL     1      32.528 -10.522 -21.167  0.00  0.00    +0.089 C 
ATOM     30  C   UNL     1      32.240 -10.609 -19.820  0.00  0.00    +0.117 C 
ATOM     31  C   UNL     1      32.423  -9.263 -21.721  0.00  0.00    +0.117 C 
ATOM     32  C   UNL     1      31.810  -8.379 -19.717  0.00  0.00    +0.199 C 
ENDBRANCH  24  29
ENDBRANCH   8  25
TORSDOF 4
ENDMDL
MODEL 3
REMARK VINA RESULT:     -11.7      1.647      2.335
REMARK  Name = 23658582
REMARK  4 active torsions:
REMARK  status: ('A' for Active; 'I' for Inactive)
REMARK    1  A    between atoms: N_3  and  C_13
REMARK    2  A    between atoms: C_8  and  C_25
REMARK    3  A    between atoms: C_15  and  C_22
REMARK    4  A    between atoms: N_24  and  C_29
REMARK                            x       y       z     vdW  Elec       q    Type
REMARK                         _______ _______ _______ _____ _____    ______ ____
ROOT
ATOM      1 CL   UNL     1      34.565 -19.102 -24.391  0.00  0.00    -0.082 Cl
ATOM      2  O   UNL     1      35.358 -14.717 -21.759  0.00  0.00    -0.352 OA
ATOM      3  N   UNL     1      34.130 -12.227 -23.877  0.00  0.00    -0.295 N 
ATOM      4  N   UNL     1      35.108 -13.374 -22.014  0.00  0.00    -0.062 NA
ATOM      5  C   UNL     1      34.408 -14.629 -23.786  0.00  0.00    +0.072 A 
ATOM      6  C   UNL     1      34.938 -15.463 -22.818  0.00  0.00    +0.183 A 
ATOM      7  C   UNL     1      34.543 -13.344 -23.225  0.00  0.00    +0.174 A 
ATOM      8  C   UNL     1      35.020 -16.848 -22.934  0.00  0.00    +0.101 C 
ATOM      9  C   UNL     1      33.912 -15.190 -24.972  0.00  0.00    +0.007 C 
ATOM     10  C   UNL     1      34.522 -17.393 -24.122  0.00  0.00    +0.065 C 
ATOM     11  C   UNL     1      33.978 -16.582 -25.123  0.00  0.00    +0.012 C 
ATOM     12  H   UNL     1      33.820 -12.395 -24.797  0.00  0.00    +0.154 HD
ENDROOT
BRANCH   3  13
ATOM     13  C   UNL     1      34.060 -10.859 -23.489  0.00  0.00    +0.049 C 
ATOM     14  C   UNL     1      33.111 -10.448 -22.554  0.00  0.00    +0.018 C 
ATOM     15  C   UNL     1      33.043  -9.108 -22.172  0.00  0.00    +0.073 C 
ATOM     16  C   UNL     1      34.943  -9.931 -24.041  0.00  0.00    +0.015 C 
ATOM     17  C   UNL     1      33.924  -8.180 -22.726  0.00  0.00    +0.004 C 
ATOM     18  C   UNL     1      34.875  -8.592 -23.661  0.00  0.00    +0.001 C 
BRANCH  15  22
ATOM     19  F   UNL     1      31.143  -9.646 -20.822  0.00  0.00    -0.166 F 
ATOM     20  F   UNL     1      32.568  -8.236 -19.996  0.00  0.00    -0.166 F 
ATOM     21  F   UNL     1      31.263  -7.629 -21.626  0.00  0.00    -0.166 F 
ATOM     22  C   UNL     1      32.027  -8.666 -21.174  0.00  0.00    +0.419 C 
ENDBRANCH  15  22
ENDBRANCH   3  13
BRANCH   8  25
ATOM     23  O   UNL     1      36.789 -17.530 -21.559  0.00  0.00    -0.270 OA
ATOM     24  N   UNL     1      34.713 -18.553 -21.264  0.00  0.00    -0.278 N 
ATOM     25  C   UNL     1      35.595 -17.646 -21.865  0.00  0.00    +0.253 C 
ATOM     26  H   UNL     1      33.789 -18.542 -21.603  0.00  0.00    +0.155 HD
BRANCH  24  29
ATOM     27  N   UNL     1      36.559 -20.682 -18.862  0.00  0.00    -0.221 NA
ATOM     28  N   UNL     1      34.194 -21.027 -18.558  0.00  0.00    -0.221 NA
ATOM     29  C   UNL     1      34.981 -19.485 -20.229  0.00  0.00    +0.089 C 
ATOM     30  C   UNL     1      36.267 -19.802 -19.841  0.00  0.00    +0.117 C 
ATOM     31  C   UNL     1      33.974 -20.135 -19.547  0.00  0.00    +0.117 C 
ATOM     32  C   UNL     1      35.490 -21.250 -18.271  0.00  0.00    +0.199 C 
ENDBRANCH  24  29
ENDBRANCH   8  25
TORSDOF 4
ENDMDL
MODEL 4
REMARK VINA RESULT:     -11.5      5.136      9.763
REMARK  Name = 23658582
REMARK  4 active torsions:
REMARK  status: ('A' for Active; 'I' for Inactive)
REMARK    1  A    between atoms: N_3  and  C_13
REMARK    2  A    between atoms: C_8  and  C_25
REMARK    3  A    between atoms: C_15  and  C_22
REMARK    4  A    between atoms: N_24  and  C_29
REMARK                            x       y       z     vdW  Elec       q    Type
REMARK                         _______ _______ _______ _____ _____    ______ ____
ROOT
ATOM      1 CL   UNL     1      33.649  -7.540 -24.373  0.00  0.00    -0.082 Cl
ATOM      2  O   UNL     1      33.117 -12.059 -21.907  0.00  0.00    -0.352 OA
ATOM      3  N   UNL     1      34.450 -14.397 -24.132  0.00  0.00    -0.295 N 
ATOM      4  N   UNL     1      33.434 -13.376 -22.217  0.00  0.00    -0.062 NA
ATOM      5  C   UNL     1      34.048 -12.019 -23.944  0.00  0.00    +0.072 A 
ATOM      6  C   UNL     1      33.485 -11.252 -22.939  0.00  0.00    +0.183 A 
ATOM      7  C   UNL     1      33.986 -13.329 -23.433  0.00  0.00    +0.174 A 
ATOM      8  C   UNL     1      33.329  -9.869 -23.001  0.00  0.00    +0.101 C 
ATOM      9  C   UNL     1      34.500 -11.386 -25.112  0.00  0.00    +0.007 C 
ATOM     10  C   UNL     1      33.784  -9.253 -24.171  0.00  0.00    +0.065 C 
ATOM     11  C   UNL     1      34.359  -9.995 -25.208  0.00  0.00    +0.012 C 
ATOM     12  H   UNL     1      34.741 -14.177 -25.047  0.00  0.00    +0.154 HD
ENDROOT
BRANCH   3  13
ATOM     13  C   UNL     1      34.596 -15.773 -23.798  0.00  0.00    +0.049 C 
ATOM     14  C   UNL     1      35.309 -16.141 -22.657  0.00  0.00    +0.018 C 
ATOM     15  C   UNL     1      35.452 -17.490 -22.329  0.00  0.00    +0.073 C 
ATOM     16  C   UNL     1      34.025 -16.752 -24.610  0.00  0.00    +0.015 C 
ATOM     17  C   UNL     1      34.881 -18.469 -23.142  0.00  0.00    +0.004 C 
ATOM     18  C   UNL     1      34.167 -18.100 -24.283  0.00  0.00    +0.001 C 
BRANCH  15  22
ATOM     19  F   UNL     1      37.570 -17.891 -21.291  0.00  0.00    -0.166 F 
ATOM     20  F   UNL     1      36.004 -17.062 -20.041  0.00  0.00    -0.166 F 
ATOM     21  F   UNL     1      35.899 -19.139 -20.677  0.00  0.00    -0.166 F 
ATOM     22  C   UNL     1      36.216 -17.885 -21.111  0.00  0.00    +0.419 C 
ENDBRANCH  15  22
ENDBRANCH   3  13
BRANCH   8  25
ATOM     23  O   UNL     1      31.754  -9.612 -21.286  0.00  0.00    -0.270 OA
ATOM     24  N   UNL     1      33.298  -7.896 -21.624  0.00  0.00    -0.278 N 
ATOM     25  C   UNL     1      32.725  -9.144 -21.896  0.00  0.00    +0.253 C 
ATOM     26  H   UNL     1      34.067  -7.645 -22.185  0.00  0.00    +0.155 HD
BRANCH  24  29
ATOM     27  N   UNL     1      33.044  -6.109 -18.391  0.00  0.00    -0.221 NA
ATOM     28  N   UNL     1      31.649  -4.999 -20.011  0.00  0.00    -0.221 NA
ATOM     29  C   UNL     1      32.912  -6.947 -20.643  0.00  0.00    +0.089 C 
ATOM     30  C   UNL     1      33.388  -6.994 -19.348  0.00  0.00    +0.117 C 
ATOM     31  C   UNL     1      32.036  -5.918 -20.920  0.00  0.00    +0.117 C 
ATOM     32  C   UNL     1      32.183  -5.152 -18.784  0.00  0.00    +0.199 C 
ENDBRANCH  24  29
ENDBRANCH   8  25
TORSDOF 4
ENDMDL
MODEL 5
REMARK VINA RESULT:     -11.5      5.331      9.960
REMARK  Name = 23658582
REMARK  4 active torsions:
REMARK  status: ('A' for Active; 'I' for Inactive)
REMARK    1  A    between atoms: N_3  and  C_13
REMARK    2  A    between atoms: C_8  and  C_25
REMARK    3  A    between atoms: C_15  and  C_22
REMARK    4  A    between atoms: N_24  and  C_29
REMARK                            x       y       z     vdW  Elec       q    Type
REMARK                         _______ _______ _______ _____ _____    ______ ____
ROOT
ATOM      1 CL   UNL     1      33.550 -12.502 -25.945  0.00  0.00    -0.082 Cl
ATOM      2  O   UNL     1      34.688 -14.432 -21.279  0.00  0.00    -0.352 OA
ATOM      3  N   UNL     1      35.269 -17.821 -21.886  0.00  0.00    -0.295 N 
ATOM      4  N   UNL     1      35.017 -15.697 -20.807  0.00  0.00    -0.062 NA
ATOM      5  C   UNL     1      34.673 -15.791 -23.060  0.00  0.00    +0.072 A 
ATOM      6  C   UNL     1      34.484 -14.492 -22.624  0.00  0.00    +0.183 A 
ATOM      7  C   UNL     1      35.002 -16.490 -21.882  0.00  0.00    +0.174 A 
ATOM      8  C   UNL     1      34.137 -13.428 -23.454  0.00  0.00    +0.101 C 
ATOM      9  C   UNL     1      34.512 -16.084 -24.422  0.00  0.00    +0.007 C 
ATOM     10  C   UNL     1      33.980 -13.735 -24.809  0.00  0.00    +0.065 C 
ATOM     11  C   UNL     1      34.163 -15.037 -25.286  0.00  0.00    +0.012 C 
ATOM     12  H   UNL     1      35.121 -18.254 -22.758  0.00  0.00    +0.154 HD
ENDROOT
BRANCH   3  13
ATOM     13  C   UNL     1      35.719 -18.713 -20.872  0.00  0.00    +0.049 C 
ATOM     14  C   UNL     1      34.816 -19.574 -20.249  0.00  0.00    +0.018 C 
ATOM     15  C   UNL     1      35.258 -20.448 -19.256  0.00  0.00    +0.073 C 
ATOM     16  C   UNL     1      37.064 -18.725 -20.501  0.00  0.00    +0.015 C 
ATOM     17  C   UNL     1      36.602 -20.461 -18.885  0.00  0.00    +0.004 C 
ATOM     18  C   UNL     1      37.506 -19.598 -19.508  0.00  0.00    +0.001 C 
BRANCH  15  22
ATOM     19  F   UNL     1      34.657 -21.718 -17.319  0.00  0.00    -0.166 F 
ATOM     20  F   UNL     1      33.036 -20.849 -18.467  0.00  0.00    -0.166 F 
ATOM     21  F   UNL     1      34.139 -22.546 -19.262  0.00  0.00    -0.166 F 
ATOM     22  C   UNL     1      34.293 -21.369 -18.589  0.00  0.00    +0.419 C 
ENDBRANCH  15  22
ENDBRANCH   3  13
BRANCH   8  25
ATOM     23  O   UNL     1      33.258 -11.909 -21.903  0.00  0.00    -0.270 OA
ATOM     24  N   UNL     1      34.595 -11.072 -23.622  0.00  0.00    -0.278 N 
ATOM     25  C   UNL     1      33.958 -12.094 -22.907  0.00  0.00    +0.253 C 
ATOM     26  H   UNL     1      35.122 -11.358 -24.402  0.00  0.00    +0.155 HD
BRANCH  24  29
ATOM     27  N   UNL     1      35.695  -7.545 -23.367  0.00  0.00    -0.221 NA
ATOM     28  N   UNL     1      33.416  -7.712 -22.603  0.00  0.00    -0.221 NA
ATOM     29  C   UNL     1      34.579  -9.677 -23.364  0.00  0.00    +0.089 C 
ATOM     30  C   UNL     1      35.676  -8.874 -23.600  0.00  0.00    +0.117 C 
ATOM     31  C   UNL     1      33.466  -9.036 -22.860  0.00  0.00    +0.117 C 
ATOM     32  C   UNL     1      34.549  -7.037 -22.876  0.00  0.00    +0.199 C 
ENDBRANCH  24  29
ENDBRANCH   8  25
TORSDOF 4
ENDMDL
MODEL 6
REMARK VINA RESULT:     -11.5      4.392      7.346
REMARK  Name = 23658582
REMARK  4 active torsions:
REMARK  status: ('A' for Active; 'I' for Inactive)
REMARK    1  A    between atoms: N_3  and  C_13
REMARK    2  A    between atoms: C_8  and  C_25
REMARK    3  A    between atoms: C_15  and  C_22
REMARK    4  A    between atoms: N_24  and  C_29
REMARK                            x       y       z     vdW  Elec       q    Type
REMARK                         _______ _______ _______ _____ _____    ______ ____
ROOT
ATOM      1 CL   UNL     1      36.291 -22.649 -15.731  0.00  0.00    -0.082 Cl
ATOM      2  O   UNL     1      33.318 -20.792 -19.539  0.00  0.00    -0.352 OA
ATOM      3  N   UNL     1      35.374 -18.488 -21.168  0.00  0.00    -0.295 N 
ATOM      4  N   UNL     1      33.507 -19.857 -20.549  0.00  0.00    -0.062 NA
ATOM      5  C   UNL     1      35.414 -20.036 -19.309  0.00  0.00    +0.072 A 
ATOM      6  C   UNL     1      34.457 -20.897 -18.801  0.00  0.00    +0.183 A 
ATOM      7  C   UNL     1      34.760 -19.419 -20.393  0.00  0.00    +0.174 A 
ATOM      8  C   UNL     1      34.655 -21.731 -17.704  0.00  0.00    +0.101 C 
ATOM      9  C   UNL     1      36.674 -19.980 -18.696  0.00  0.00    +0.007 C 
ATOM     10  C   UNL     1      35.917 -21.664 -17.103  0.00  0.00    +0.065 C 
ATOM     11  C   UNL     1      36.909 -20.805 -17.588  0.00  0.00    +0.012 C 
ATOM     12  H   UNL     1      36.268 -18.229 -20.846  0.00  0.00    +0.154 HD
ENDROOT
BRANCH   3  13
ATOM     13  C   UNL     1      34.975 -17.815 -22.357  0.00  0.00    +0.049 C 
ATOM     14  C   UNL     1      34.868 -16.425 -22.368  0.00  0.00    +0.018 C 
ATOM     15  C   UNL     1      34.477 -15.764 -23.533  0.00  0.00    +0.073 C 
ATOM     16  C   UNL     1      34.693 -18.545 -23.511  0.00  0.00    +0.015 C 
ATOM     17  C   UNL     1      34.194 -16.494 -24.687  0.00  0.00    +0.004 C 
ATOM     18  C   UNL     1      34.302 -17.886 -24.676  0.00  0.00    +0.001 C 
BRANCH  15  22
ATOM     19  F   UNL     1      34.523 -13.725 -24.784  0.00  0.00    -0.166 F 
ATOM     20  F   UNL     1      33.149 -13.820 -23.109  0.00  0.00    -0.166 F 
ATOM     21  F   UNL     1      35.288 -13.671 -22.749  0.00  0.00    -0.166 F 
ATOM     22  C   UNL     1      34.360 -14.278 -23.545  0.00  0.00    +0.419 C 
ENDBRANCH  15  22
ENDBRANCH   3  13
BRANCH   8  25
ATOM     23  O   UNL     1      33.445 -23.736 -17.719  0.00  0.00    -0.270 OA
ATOM     24  N   UNL     1      32.755 -22.050 -16.262  0.00  0.00    -0.278 N 
ATOM     25  C   UNL     1      33.591 -22.605 -17.239  0.00  0.00    +0.253 C 
ATOM     26  H   UNL     1      32.984 -21.139 -15.967  0.00  0.00    +0.155 HD
BRANCH  24  29
ATOM     27  N   UNL     1      29.230 -22.857 -15.466  0.00  0.00    -0.221 NA
ATOM     28  N   UNL     1      30.672 -24.119 -14.005  0.00  0.00    -0.221 NA
ATOM     29  C   UNL     1      31.619 -22.632 -15.644  0.00  0.00    +0.089 C 
ATOM     30  C   UNL     1      30.332 -22.322 -16.031  0.00  0.00    +0.117 C 
ATOM     31  C   UNL     1      31.730 -23.545 -14.615  0.00  0.00    +0.117 C 
ATOM     32  C   UNL     1      29.469 -23.735 -14.473  0.00  0.00    +0.199 C 
ENDBRANCH  24  29
ENDBRANCH   8  25
TORSDOF 4
ENDMDL
MODEL 7
REMARK VINA RESULT:     -11.3      7.496     12.550
REMARK  Name = 23658582
REMARK  4 active torsions:
REMARK  status: ('A' for Active; 'I' for Inactive)
REMARK    1  A    between atoms: N_3  and  C_13
REMARK    2  A    between atoms: C_8  and  C_25
REMARK    3  A    between atoms: C_15  and  C_22
REMARK    4  A    between atoms: N_24  and  C_29
REMARK                            x       y       z     vdW  Elec       q    Type
REMARK                         _______ _______ _______ _____ _____    ______ ____
ROOT
ATOM      1 CL   UNL     1      32.551 -20.213 -20.417  0.00  0.00    -0.082 Cl
ATOM      2  O   UNL     1      36.880 -20.608 -17.609  0.00  0.00    -0.352 OA
ATOM      3  N   UNL     1      36.012 -22.782 -15.019  0.00  0.00    -0.295 N 
ATOM      4  N   UNL     1      37.230 -21.302 -16.457  0.00  0.00    -0.062 NA
ATOM      5  C   UNL     1      35.052 -21.739 -16.980  0.00  0.00    +0.072 A 
ATOM      6  C   UNL     1      35.581 -20.871 -17.919  0.00  0.00    +0.183 A 
ATOM      7  C   UNL     1      36.128 -21.967 -16.099  0.00  0.00    +0.174 A 
ATOM      8  C   UNL     1      34.872 -20.360 -19.003  0.00  0.00    +0.101 C 
ATOM      9  C   UNL     1      33.716 -22.146 -17.105  0.00  0.00    +0.007 C 
ATOM     10  C   UNL     1      33.541 -20.775 -19.114  0.00  0.00    +0.065 C 
ATOM     11  C   UNL     1      32.972 -21.651 -18.184  0.00  0.00    +0.012 C 
ATOM     12  H   UNL     1      35.097 -23.114 -14.867  0.00  0.00    +0.154 HD
ENDROOT
BRANCH   3  13
ATOM     13  C   UNL     1      36.958 -23.248 -14.063  0.00  0.00    +0.049 C 
ATOM     14  C   UNL     1      38.095 -23.937 -14.486  0.00  0.00    +0.018 C 
ATOM     15  C   UNL     1      39.022 -24.393 -13.549  0.00  0.00    +0.073 C 
ATOM     16  C   UNL     1      36.749 -23.015 -12.704  0.00  0.00    +0.015 C 
ATOM     17  C   UNL     1      38.813 -24.161 -12.190  0.00  0.00    +0.004 C 
ATOM     18  C   UNL     1      37.675 -23.471 -11.768  0.00  0.00    +0.001 C 
BRANCH  15  22
ATOM     19  F   UNL     1      40.169 -26.479 -13.792  0.00  0.00    -0.166 F 
ATOM     20  F   UNL     1      40.500 -24.990 -15.333  0.00  0.00    -0.166 F 
ATOM     21  F   UNL     1      41.370 -24.719 -13.359  0.00  0.00    -0.166 F 
ATOM     22  C   UNL     1      40.238 -25.131 -14.000  0.00  0.00    +0.419 C 
ENDBRANCH  15  22
ENDBRANCH   3  13
BRANCH   8  25
ATOM     23  O   UNL     1      36.726 -19.522 -20.163  0.00  0.00    -0.270 OA
ATOM     24  N   UNL     1      34.658 -18.502 -20.517  0.00  0.00    -0.278 N 
ATOM     25  C   UNL     1      35.510 -19.453 -19.941  0.00  0.00    +0.253 C 
ATOM     26  H   UNL     1      33.711 -18.559 -20.254  0.00  0.00    +0.155 HD
BRANCH  24  29
ATOM     27  N   UNL     1      35.278 -16.705 -23.695  0.00  0.00    -0.221 NA
ATOM     28  N   UNL     1      35.652 -15.195 -21.855  0.00  0.00    -0.221 NA
ATOM     29  C   UNL     1      34.985 -17.468 -21.431  0.00  0.00    +0.089 C 
ATOM     30  C   UNL     1      34.973 -17.665 -22.797  0.00  0.00    +0.117 C 
ATOM     31  C   UNL     1      35.336 -16.202 -21.013  0.00  0.00    +0.117 C 
ATOM     32  C   UNL     1      35.604 -15.512 -23.163  0.00  0.00    +0.199 C 
ENDBRANCH  24  29
ENDBRANCH   8  25
TORSDOF 4
ENDMDL
MODEL 8
REMARK VINA RESULT:     -11.1      6.863     11.430
REMARK  Name = 23658582
REMARK  4 active torsions:
REMARK  status: ('A' for Active; 'I' for Inactive)
REMARK    1  A    between atoms: N_3  and  C_13
REMARK    2  A    between atoms: C_8  and  C_25
REMARK    3  A    between atoms: C_15  and  C_22
REMARK    4  A    between atoms: N_24  and  C_29
REMARK                            x       y       z     vdW  Elec       q    Type
REMARK                         _______ _______ _______ _____ _____    ______ ____
ROOT
ATOM      1 CL   UNL     1      37.684 -18.590 -21.168  0.00  0.00    -0.082 Cl
ATOM      2  O   UNL     1      33.066 -20.264 -19.539  0.00  0.00    -0.352 OA
ATOM      3  N   UNL     1      33.811 -22.199 -16.729  0.00  0.00    -0.295 N 
ATOM      4  N   UNL     1      32.640 -21.066 -18.486  0.00  0.00    -0.062 NA
ATOM      5  C   UNL     1      34.912 -20.864 -18.421  0.00  0.00    +0.072 A 
ATOM      6  C   UNL     1      34.421 -20.145 -19.497  0.00  0.00    +0.183 A 
ATOM      7  C   UNL     1      33.754 -21.412 -17.835  0.00  0.00    +0.174 A 
ATOM      8  C   UNL     1      35.214 -19.422 -20.384  0.00  0.00    +0.101 C 
ATOM      9  C   UNL     1      36.295 -20.881 -18.186  0.00  0.00    +0.007 C 
ATOM     10  C   UNL     1      36.590 -19.448 -20.138  0.00  0.00    +0.065 C 
ATOM     11  C   UNL     1      37.123 -20.164 -19.061  0.00  0.00    +0.012 C 
ATOM     12  H   UNL     1      34.728 -22.416 -16.443  0.00  0.00    +0.154 HD
ENDROOT
BRANCH   3  13
ATOM     13  C   UNL     1      32.801 -22.770 -15.905  0.00  0.00    +0.049 C 
ATOM     14  C   UNL     1      31.458 -22.632 -16.252  0.00  0.00    +0.018 C 
ATOM     15  C   UNL     1      30.468 -23.193 -15.445  0.00  0.00    +0.073 C 
ATOM     16  C   UNL     1      33.156 -23.471 -14.752  0.00  0.00    +0.015 C 
ATOM     17  C   UNL     1      30.822 -23.892 -14.291  0.00  0.00    +0.004 C 
ATOM     18  C   UNL     1      32.167 -24.031 -13.945  0.00  0.00    +0.001 C 
BRANCH  15  22
ATOM     19  F   UNL     1      28.555 -24.062 -16.590  0.00  0.00    -0.166 F 
ATOM     20  F   UNL     1      28.191 -22.997 -14.737  0.00  0.00    -0.166 F 
ATOM     21  F   UNL     1      28.785 -21.901 -16.518  0.00  0.00    -0.166 F 
ATOM     22  C   UNL     1      29.031 -23.043 -15.814  0.00  0.00    +0.419 C 
ENDBRANCH  15  22
ENDBRANCH   3  13
BRANCH   8  25
ATOM     23  O   UNL     1      33.598 -19.128 -22.055  0.00  0.00    -0.270 OA
ATOM     24  N   UNL     1      35.281 -17.524 -21.864  0.00  0.00    -0.278 N 
ATOM     25  C   UNL     1      34.610 -18.695 -21.489  0.00  0.00    +0.253 C 
ATOM     26  H   UNL     1      36.074 -17.294 -21.328  0.00  0.00    +0.155 HD
BRANCH  24  29
ATOM     27  N   UNL     1      34.397 -16.241 -25.223  0.00  0.00    -0.221 NA
ATOM     28  N   UNL     1      34.598 -14.384 -23.702  0.00  0.00    -0.221 NA
ATOM     29  C   UNL     1      34.964 -16.628 -22.916  0.00  0.00    +0.089 C 
ATOM     30  C   UNL     1      34.702 -17.065 -24.198  0.00  0.00    +0.117 C 
ATOM     31  C   UNL     1      34.898 -15.264 -22.724  0.00  0.00    +0.117 C 
ATOM     32  C   UNL     1      34.363 -14.933 -24.909  0.00  0.00    +0.199 C 
ENDBRANCH  24  29
ENDBRANCH   8  25
TORSDOF 4
ENDMDL
MODEL 9
REMARK VINA RESULT:     -11.1      5.597     10.213
REMARK  Name = 23658582
REMARK  4 active torsions:
REMARK  status: ('A' for Active; 'I' for Inactive)
REMARK    1  A    between atoms: N_3  and  C_13
REMARK    2  A    between atoms: C_8  and  C_25
REMARK    3  A    between atoms: C_15  and  C_22
REMARK    4  A    between atoms: N_24  and  C_29
REMARK                            x       y       z     vdW  Elec       q    Type
REMARK                         _______ _______ _______ _____ _____    ______ ____
ROOT
ATOM      1 CL   UNL     1      34.329 -14.527 -25.564  0.00  0.00    -0.082 Cl
ATOM      2  O   UNL     1      35.128 -15.824 -20.617  0.00  0.00    -0.352 OA
ATOM      3  N   UNL     1      35.157 -19.316 -20.654  0.00  0.00    -0.295 N 
ATOM      4  N   UNL     1      35.248 -17.031 -19.938  0.00  0.00    -0.062 NA
ATOM      5  C   UNL     1      34.900 -17.436 -22.156  0.00  0.00    +0.072 A 
ATOM      6  C   UNL     1      34.921 -16.070 -21.940  0.00  0.00    +0.183 A 
ATOM      7  C   UNL     1      35.108 -17.976 -20.872  0.00  0.00    +0.174 A 
ATOM      8  C   UNL     1      34.752 -15.115 -22.940  0.00  0.00    +0.101 C 
ATOM      9  C   UNL     1      34.697 -17.918 -23.458  0.00  0.00    +0.007 C 
ATOM     10  C   UNL     1      34.551 -15.609 -24.232  0.00  0.00    +0.065 C 
ATOM     11  C   UNL     1      34.523 -16.984 -24.488  0.00  0.00    +0.012 C 
ATOM     12  H   UNL     1      34.943 -19.856 -21.449  0.00  0.00    +0.154 HD
ENDROOT
BRANCH   3  13
ATOM     13  C   UNL     1      35.455 -20.089 -19.497  0.00  0.00    +0.049 C 
ATOM     14  C   UNL     1      34.457 -20.853 -18.893  0.00  0.00    +0.018 C 
ATOM     15  C   UNL     1      34.749 -21.612 -17.759  0.00  0.00    +0.073 C 
ATOM     16  C   UNL     1      36.746 -20.085 -18.969  0.00  0.00    +0.015 C 
ATOM     17  C   UNL     1      36.039 -21.607 -17.230  0.00  0.00    +0.004 C 
ATOM     18  C   UNL     1      37.038 -20.843 -17.836  0.00  0.00    +0.001 C 
BRANCH  15  22
ATOM     19  F   UNL     1      32.453 -21.832 -17.125  0.00  0.00    -0.166 F 
ATOM     20  F   UNL     1      33.493 -23.646 -17.698  0.00  0.00    -0.166 F 
ATOM     21  F   UNL     1      33.946 -22.690 -15.798  0.00  0.00    -0.166 F 
ATOM     22  C   UNL     1      33.682 -22.427 -17.111  0.00  0.00    +0.419 C 
ENDBRANCH  15  22
ENDBRANCH   3  13
BRANCH   8  25
ATOM     23  O   UNL     1      35.399 -13.288 -21.624  0.00  0.00    -0.270 OA
ATOM     24  N   UNL     1      34.063 -12.876 -23.491  0.00  0.00    -0.278 N 
ATOM     25  C   UNL     1      34.789 -13.698 -22.620  0.00  0.00    +0.253 C 
ATOM     26  H   UNL     1      33.624 -13.331 -24.246  0.00  0.00    +0.155 HD
BRANCH  24  29
ATOM     27  N   UNL     1      34.299  -9.271 -24.306  0.00  0.00    -0.221 NA
ATOM     28  N   UNL     1      32.916  -9.544 -22.352  0.00  0.00    -0.221 NA
ATOM     29  C   UNL     1      33.878 -11.471 -23.425  0.00  0.00    +0.089 C 
ATOM     30  C   UNL     1      34.454 -10.611 -24.338  0.00  0.00    +0.117 C 
ATOM     31  C   UNL     1      33.113 -10.876 -22.444  0.00  0.00    +0.117 C 
ATOM     32  C   UNL     1      33.530  -8.812 -23.301  0.00  0.00    +0.199 C 
ENDBRANCH  24  29
ENDBRANCH   8  25
TORSDOF 4
ENDMDL
