MODEL 1
REMARK VINA RESULT:     -11.5      0.000      0.000
REMARK  Name = 115368
REMARK  5 active torsions:
REMARK  status: ('A' for Active; 'I' for Inactive)
REMARK    1  A    between atoms: N_2  and  C_17
REMARK    2  A    between atoms: C_17  and  C_18
REMARK    3  A    between atoms: C_18  and  C_19
REMARK    4  A    between atoms: C_19  and  C_20
REMARK    5  A    between atoms: C_20  and  N_23
REMARK                            x       y       z     vdW  Elec       q    Type
REMARK                         _______ _______ _______ _____ _____    ______ ____
ROOT
ATOM      1  S   UNL     1      32.670  -8.997 -22.486  0.00  0.00    +0.014 S 
ATOM      2  N   UNL     1      34.808 -15.153 -23.645  0.00  0.00    +0.389 N 
ATOM      3  N   UNL     1      33.928 -12.529 -22.933  0.00  0.00    -0.297 N 
ATOM      4  N   UNL     1      33.463 -10.215 -23.281  0.00  0.00    -0.194 NA
ATOM      5  C   UNL     1      34.785 -14.727 -22.240  0.00  0.00    -0.055 C 
ATOM      6  C   UNL     1      33.725 -14.498 -24.391  0.00  0.00    -0.055 C 
ATOM      7  C   UNL     1      34.940 -13.209 -22.117  0.00  0.00    +0.069 C 
ATOM      8  C   UNL     1      33.873 -12.977 -24.330  0.00  0.00    +0.069 C 
ATOM      9  C   UNL     1      33.372 -11.328 -22.551  0.00  0.00    +0.140 A 
ATOM     10  C   UNL     1      32.652 -11.238 -21.309  0.00  0.00    +0.040 A 
ATOM     11  C   UNL     1      32.180  -9.936 -21.131  0.00  0.00    +0.050 A 
ATOM     12  C   UNL     1      32.369 -12.199 -20.313  0.00  0.00    +0.003 C 
ATOM     13  C   UNL     1      31.440  -9.557 -20.001  0.00  0.00    +0.008 C 
ATOM     14  C   UNL     1      31.632 -11.831 -19.184  0.00  0.00    +0.000 C 
ATOM     15  C   UNL     1      31.175 -10.527 -19.031  0.00  0.00    +0.001 C 
ATOM     16  H   UNL     1      35.700 -14.876 -24.055  0.00  0.00    -0.080 HD
ENDROOT
BRANCH   2  17
ATOM     17  C   UNL     1      34.693 -16.608 -23.743  0.00  0.00    -0.077 C 
BRANCH  17  18
ATOM     18  C   UNL     1      35.524 -17.282 -22.653  0.00  0.00    -0.021 C 
BRANCH  18  19
ATOM     19  C   UNL     1      34.766 -18.457 -22.026  0.00  0.00    +0.020 C 
BRANCH  19  20
ATOM     20  C   UNL     1      34.709 -18.373 -20.504  0.00  0.00    +0.101 C 
BRANCH  20  23
ATOM     21  O   UNL     1      32.688 -20.167 -19.301  0.00  0.00    -0.274 OA
ATOM     22  O   UNL     1      37.232 -19.805 -20.076  0.00  0.00    -0.274 OA
ATOM     23  N   UNL     1      34.904 -19.663 -19.872  0.00  0.00    -0.230 N 
ATOM     24  C   UNL     1      34.489 -21.779 -19.019  0.00  0.00    +0.086 C 
ATOM     25  C   UNL     1      35.969 -21.440 -18.804  0.00  0.00    +0.086 C 
ATOM     26  C   UNL     1      33.796 -22.513 -17.878  0.00  0.00    +0.010 C 
ATOM     27  C   UNL     1      36.336 -21.059 -17.366  0.00  0.00    +0.010 C 
ATOM     28  C   UNL     1      34.180 -21.992 -16.500  0.00  0.00    +0.001 C 
ATOM     29  C   UNL     1      35.693 -21.969 -16.331  0.00  0.00    +0.001 C 
ATOM     30  C   UNL     1      33.875 -20.443 -19.380  0.00  0.00    +0.231 C 
ATOM     31  C   UNL     1      36.152 -20.224 -19.685  0.00  0.00    +0.231 C 
ENDBRANCH  20  23
ENDBRANCH  19  20
ENDBRANCH  18  19
ENDBRANCH  17  18
ENDBRANCH   2  17
TORSDOF 5
ENDMDL
MODEL 2
REMARK VINA RESULT:     -11.5      3.035      5.572
REMARK  Name = 115368
REMARK  5 active torsions:
REMARK  status: ('A' for Active; 'I' for Inactive)
REMARK    1  A    between atoms: N_2  and  C_17
REMARK    2  A    between atoms: C_17  and  C_18
REMARK    3  A    between atoms: C_18  and  C_19
REMARK    4  A    between atoms: C_19  and  C_20
REMARK    5  A    between atoms: C_20  and  N_23
REMARK                            x       y       z     vdW  Elec       q    Type
REMARK                         _______ _______ _______ _____ _____    ______ ____
ROOT
ATOM      1  S   UNL     1      34.063 -15.221 -25.103  0.00  0.00    +0.014 S 
ATOM      2  N   UNL     1      36.148 -19.491 -20.494  0.00  0.00    +0.389 N 
ATOM      3  N   UNL     1      35.374 -17.496 -22.389  0.00  0.00    -0.297 N 
ATOM      4  N   UNL     1      34.589 -16.664 -24.483  0.00  0.00    -0.194 NA
ATOM      5  C   UNL     1      36.643 -18.114 -20.375  0.00  0.00    -0.055 C 
ATOM      6  C   UNL     1      34.801 -19.496 -21.080  0.00  0.00    -0.055 C 
ATOM      7  C   UNL     1      36.687 -17.419 -21.739  0.00  0.00    +0.069 C 
ATOM      8  C   UNL     1      34.813 -18.850 -22.466  0.00  0.00    +0.069 C 
ATOM      9  C   UNL     1      34.903 -16.486 -23.198  0.00  0.00    +0.140 A 
ATOM     10  C   UNL     1      34.730 -15.163 -22.660  0.00  0.00    +0.040 A 
ATOM     11  C   UNL     1      34.244 -14.311 -23.654  0.00  0.00    +0.050 A 
ATOM     12  C   UNL     1      34.958 -14.633 -21.371  0.00  0.00    +0.003 C 
ATOM     13  C   UNL     1      33.979 -12.954 -23.411  0.00  0.00    +0.008 C 
ATOM     14  C   UNL     1      34.698 -13.283 -21.119  0.00  0.00    +0.000 C 
ATOM     15  C   UNL     1      34.215 -12.456 -22.128  0.00  0.00    +0.001 C 
ATOM     16  H   UNL     1      36.773 -20.010 -21.111  0.00  0.00    -0.080 HD
ENDROOT
BRANCH   2  17
ATOM     17  C   UNL     1      36.144 -20.151 -19.189  0.00  0.00    -0.077 C 
BRANCH  17  18
ATOM     18  C   UNL     1      34.876 -20.986 -19.020  0.00  0.00    -0.021 C 
BRANCH  18  19
ATOM     19  C   UNL     1      34.883 -21.737 -17.685  0.00  0.00    +0.020 C 
BRANCH  19  20
ATOM     20  C   UNL     1      33.743 -22.744 -17.573  0.00  0.00    +0.101 C 
BRANCH  20  23
ATOM     21  O   UNL     1      34.558 -23.645 -14.875  0.00  0.00    -0.274 OA
ATOM     22  O   UNL     1      31.087 -21.583 -17.129  0.00  0.00    -0.274 OA
ATOM     23  N   UNL     1      33.022 -22.625 -16.321  0.00  0.00    -0.230 N 
ATOM     24  C   UNL     1      32.555 -22.534 -14.051  0.00  0.00    +0.086 C 
ATOM     25  C   UNL     1      31.250 -22.346 -14.832  0.00  0.00    +0.086 C 
ATOM     26  C   UNL     1      32.469 -23.391 -12.794  0.00  0.00    +0.010 C 
ATOM     27  C   UNL     1      30.334 -23.575 -14.853  0.00  0.00    +0.010 C 
ATOM     28  C   UNL     1      31.595 -24.627 -12.963  0.00  0.00    +0.001 C 
ATOM     29  C   UNL     1      30.219 -24.249 -13.494  0.00  0.00    +0.001 C 
ATOM     30  C   UNL     1      33.520 -23.043 -15.101  0.00  0.00    +0.231 C 
ATOM     31  C   UNL     1      31.748 -22.096 -16.238  0.00  0.00    +0.231 C 
ENDBRANCH  20  23
ENDBRANCH  19  20
ENDBRANCH  18  19
ENDBRANCH  17  18
ENDBRANCH   2  17
TORSDOF 5
ENDMDL
MODEL 3
REMARK VINA RESULT:     -11.1      3.073      5.658
REMARK  Name = 115368
REMARK  5 active torsions:
REMARK  status: ('A' for Active; 'I' for Inactive)
REMARK    1  A    between atoms: N_2  and  C_17
REMARK    2  A    between atoms: C_17  and  C_18
REMARK    3  A    between atoms: C_18  and  C_19
REMARK    4  A    between atoms: C_19  and  C_20
REMARK    5  A    between atoms: C_20  and  N_23
REMARK                            x       y       z     vdW  Elec       q    Type
REMARK                         _______ _______ _______ _____ _____    ______ ____
ROOT
ATOM      1  S   UNL     1      34.016 -15.394 -25.079  0.00  0.00    +0.014 S 
ATOM      2  N   UNL     1      36.237 -19.574 -20.452  0.00  0.00    +0.389 N 
ATOM      3  N   UNL     1      35.407 -17.617 -22.362  0.00  0.00    -0.297 N 
ATOM      4  N   UNL     1      34.558 -16.825 -24.446  0.00  0.00    -0.194 NA
ATOM      5  C   UNL     1      36.739 -18.197 -20.377  0.00  0.00    -0.055 C 
ATOM      6  C   UNL     1      34.871 -19.587 -20.994  0.00  0.00    -0.055 C 
ATOM      7  C   UNL     1      36.740 -17.530 -21.756  0.00  0.00    +0.069 C 
ATOM      8  C   UNL     1      34.841 -18.970 -22.393  0.00  0.00    +0.069 C 
ATOM      9  C   UNL     1      34.913 -16.622 -23.176  0.00  0.00    +0.140 A 
ATOM     10  C   UNL     1      34.760 -15.288 -22.661  0.00  0.00    +0.040 A 
ATOM     11  C   UNL     1      34.245 -14.454 -23.656  0.00  0.00    +0.050 A 
ATOM     12  C   UNL     1      35.031 -14.732 -21.391  0.00  0.00    +0.003 C 
ATOM     13  C   UNL     1      33.992 -13.092 -23.433  0.00  0.00    +0.008 C 
ATOM     14  C   UNL     1      34.782 -13.376 -21.159  0.00  0.00    +0.000 C 
ATOM     15  C   UNL     1      34.270 -12.568 -22.168  0.00  0.00    +0.001 C 
ATOM     16  H   UNL     1      36.840 -20.108 -21.077  0.00  0.00    -0.080 HD
ENDROOT
BRANCH   2  17
ATOM     17  C   UNL     1      36.273 -20.207 -19.133  0.00  0.00    -0.077 C 
BRANCH  17  18
ATOM     18  C   UNL     1      34.983 -20.987 -18.883  0.00  0.00    -0.021 C 
BRANCH  18  19
ATOM     19  C   UNL     1      35.045 -21.745 -17.553  0.00  0.00    +0.020 C 
BRANCH  19  20
ATOM     20  C   UNL     1      36.212 -21.299 -16.678  0.00  0.00    +0.101 C 
BRANCH  20  23
ATOM     21  O   UNL     1      38.781 -22.143 -15.477  0.00  0.00    -0.274 OA
ATOM     22  O   UNL     1      34.213 -22.751 -15.098  0.00  0.00    -0.274 OA
ATOM     23  N   UNL     1      36.440 -22.196 -15.562  0.00  0.00    -0.230 N 
ATOM     24  C   UNL     1      37.456 -23.271 -13.776  0.00  0.00    +0.086 C 
ATOM     25  C   UNL     1      36.056 -23.862 -13.977  0.00  0.00    +0.086 C 
ATOM     26  C   UNL     1      38.559 -24.262 -13.424  0.00  0.00    +0.010 C 
ATOM     27  C   UNL     1      36.033 -25.241 -14.644  0.00  0.00    +0.010 C 
ATOM     28  C   UNL     1      38.478 -25.563 -14.210  0.00  0.00    +0.001 C 
ATOM     29  C   UNL     1      37.092 -26.183 -14.091  0.00  0.00    +0.001 C 
ATOM     30  C   UNL     1      37.691 -22.488 -15.050  0.00  0.00    +0.231 C 
ATOM     31  C   UNL     1      35.417 -22.864 -14.917  0.00  0.00    +0.231 C 
ENDBRANCH  20  23
ENDBRANCH  19  20
ENDBRANCH  18  19
ENDBRANCH  17  18
ENDBRANCH   2  17
TORSDOF 5
ENDMDL
MODEL 4
REMARK VINA RESULT:     -11.1      4.776     11.390
REMARK  Name = 115368
REMARK  5 active torsions:
REMARK  status: ('A' for Active; 'I' for Inactive)
REMARK    1  A    between atoms: N_2  and  C_17
REMARK    2  A    between atoms: C_17  and  C_18
REMARK    3  A    between atoms: C_18  and  C_19
REMARK    4  A    between atoms: C_19  and  C_20
REMARK    5  A    between atoms: C_20  and  N_23
REMARK                            x       y       z     vdW  Elec       q    Type
REMARK                         _______ _______ _______ _____ _____    ______ ____
ROOT
ATOM      1  S   UNL     1      36.488 -24.114 -11.805  0.00  0.00    +0.014 S 
ATOM      2  N   UNL     1      35.172 -21.270 -17.636  0.00  0.00    +0.389 N 
ATOM      3  N   UNL     1      35.947 -22.432 -15.142  0.00  0.00    -0.297 N 
ATOM      4  N   UNL     1      35.631 -23.238 -12.919  0.00  0.00    -0.194 NA
ATOM      5  C   UNL     1      36.570 -21.223 -17.191  0.00  0.00    -0.055 C 
ATOM      6  C   UNL     1      34.526 -22.495 -17.147  0.00  0.00    -0.055 C 
ATOM      7  C   UNL     1      36.670 -21.267 -15.664  0.00  0.00    +0.069 C 
ATOM      8  C   UNL     1      34.564 -22.552 -15.619  0.00  0.00    +0.069 C 
ATOM      9  C   UNL     1      36.373 -23.109 -14.021  0.00  0.00    +0.140 A 
ATOM     10  C   UNL     1      37.675 -23.719 -14.007  0.00  0.00    +0.040 A 
ATOM     11  C   UNL     1      37.889 -24.346 -12.778  0.00  0.00    +0.050 A 
ATOM     12  C   UNL     1      38.699 -23.777 -14.979  0.00  0.00    +0.003 C 
ATOM     13  C   UNL     1      39.080 -25.026 -12.482  0.00  0.00    +0.008 C 
ATOM     14  C   UNL     1      39.889 -24.452 -14.694  0.00  0.00    +0.000 C 
ATOM     15  C   UNL     1      40.076 -25.067 -13.461  0.00  0.00    +0.001 C 
ATOM     16  H   UNL     1      34.679 -20.465 -17.248  0.00  0.00    -0.080 HD
ENDROOT
BRANCH   2  17
ATOM     17  C   UNL     1      35.093 -21.194 -19.094  0.00  0.00    -0.077 C 
BRANCH  17  18
ATOM     18  C   UNL     1      36.360 -20.557 -19.663  0.00  0.00    -0.021 C 
BRANCH  18  19
ATOM     19  C   UNL     1      36.175 -19.051 -19.874  0.00  0.00    +0.020 C 
BRANCH  19  20
ATOM     20  C   UNL     1      34.914 -18.721 -20.665  0.00  0.00    +0.101 C 
BRANCH  20  23
ATOM     21  O   UNL     1      35.061 -15.790 -20.284  0.00  0.00    -0.274 OA
ATOM     22  O   UNL     1      35.287 -19.051 -23.555  0.00  0.00    -0.274 OA
ATOM     23  N   UNL     1      35.138 -17.688 -21.657  0.00  0.00    -0.230 N 
ATOM     24  C   UNL     1      35.688 -15.656 -22.632  0.00  0.00    +0.086 C 
ATOM     25  C   UNL     1      35.253 -16.632 -23.732  0.00  0.00    +0.086 C 
ATOM     26  C   UNL     1      35.214 -14.216 -22.785  0.00  0.00    +0.010 C 
ATOM     27  C   UNL     1      33.846 -16.385 -24.286  0.00  0.00    +0.010 C 
ATOM     28  C   UNL     1      33.774 -14.100 -23.265  0.00  0.00    +0.001 C 
ATOM     29  C   UNL     1      33.558 -14.912 -24.535  0.00  0.00    +0.001 C 
ATOM     30  C   UNL     1      35.234 -16.341 -21.360  0.00  0.00    +0.231 C 
ATOM     31  C   UNL     1      35.258 -17.959 -23.006  0.00  0.00    +0.231 C 
ENDBRANCH  20  23
ENDBRANCH  19  20
ENDBRANCH  18  19
ENDBRANCH  17  18
ENDBRANCH   2  17
TORSDOF 5
ENDMDL
MODEL 5
REMARK VINA RESULT:     -11.0      1.612      2.600
REMARK  Name = 115368
REMARK  5 active torsions:
REMARK  status: ('A' for Active; 'I' for Inactive)
REMARK    1  A    between atoms: N_2  and  C_17
REMARK    2  A    between atoms: C_17  and  C_18
REMARK    3  A    between atoms: C_18  and  C_19
REMARK    4  A    between atoms: C_19  and  C_20
REMARK    5  A    between atoms: C_20  and  N_23
REMARK                            x       y       z     vdW  Elec       q    Type
REMARK                         _______ _______ _______ _____ _____    ______ ____
ROOT
ATOM      1  S   UNL     1      31.885  -8.868 -21.818  0.00  0.00    +0.014 S 
ATOM      2  N   UNL     1      34.513 -14.943 -21.922  0.00  0.00    +0.389 N 
ATOM      3  N   UNL     1      33.431 -12.303 -22.088  0.00  0.00    -0.297 N 
ATOM      4  N   UNL     1      32.010 -10.485 -21.480  0.00  0.00    -0.194 NA
ATOM      5  C   UNL     1      34.605 -14.174 -23.169  0.00  0.00    -0.055 C 
ATOM      6  C   UNL     1      34.561 -14.039 -20.765  0.00  0.00    -0.055 C 
ATOM      7  C   UNL     1      33.465 -13.156 -23.280  0.00  0.00    +0.069 C 
ATOM      8  C   UNL     1      33.408 -13.035 -20.817  0.00  0.00    +0.069 C 
ATOM      9  C   UNL     1      33.052 -10.980 -22.152  0.00  0.00    +0.140 A 
ATOM     10  C   UNL     1      33.794 -10.064 -22.975  0.00  0.00    +0.040 A 
ATOM     11  C   UNL     1      33.233  -8.788 -22.884  0.00  0.00    +0.050 A 
ATOM     12  C   UNL     1      34.925 -10.244 -23.802  0.00  0.00    +0.003 C 
ATOM     13  C   UNL     1      33.755  -7.690 -23.584  0.00  0.00    +0.008 C 
ATOM     14  C   UNL     1      35.452  -9.156 -24.504  0.00  0.00    +0.000 C 
ATOM     15  C   UNL     1      34.873  -7.896 -24.395  0.00  0.00    +0.001 C 
ATOM     16  H   UNL     1      33.622 -15.440 -21.910  0.00  0.00    -0.080 HD
ENDROOT
BRANCH   2  17
ATOM     17  C   UNL     1      35.588 -15.932 -21.847  0.00  0.00    -0.077 C 
BRANCH  17  18
ATOM     18  C   UNL     1      35.318 -17.085 -22.812  0.00  0.00    -0.021 C 
BRANCH  18  19
ATOM     19  C   UNL     1      34.734 -18.295 -22.076  0.00  0.00    +0.020 C 
BRANCH  19  20
ATOM     20  C   UNL     1      34.918 -18.207 -20.564  0.00  0.00    +0.101 C 
BRANCH  20  23
ATOM     21  O   UNL     1      32.895 -20.102 -19.530  0.00  0.00    -0.274 OA
ATOM     22  O   UNL     1      37.461 -19.566 -20.025  0.00  0.00    -0.274 OA
ATOM     23  N   UNL     1      35.121 -19.507 -19.956  0.00  0.00    -0.230 N 
ATOM     24  C   UNL     1      34.733 -21.660 -19.184  0.00  0.00    +0.086 C 
ATOM     25  C   UNL     1      36.184 -21.277 -18.873  0.00  0.00    +0.086 C 
ATOM     26  C   UNL     1      34.000 -22.448 -18.106  0.00  0.00    +0.010 C 
ATOM     27  C   UNL     1      36.453 -20.924 -17.407  0.00  0.00    +0.010 C 
ATOM     28  C   UNL     1      34.285 -21.953 -16.694  0.00  0.00    +0.001 C 
ATOM     29  C   UNL     1      35.784 -21.885 -16.435  0.00  0.00    +0.001 C 
ATOM     30  C   UNL     1      34.093 -20.336 -19.546  0.00  0.00    +0.231 C 
ATOM     31  C   UNL     1      36.376 -20.031 -19.710  0.00  0.00    +0.231 C 
ENDBRANCH  20  23
ENDBRANCH  19  20
ENDBRANCH  18  19
ENDBRANCH  17  18
ENDBRANCH   2  17
TORSDOF 5
ENDMDL
MODEL 6
REMARK VINA RESULT:     -11.0      3.376      5.666
REMARK  Name = 115368
REMARK  5 active torsions:
REMARK  status: ('A' for Active; 'I' for Inactive)
REMARK    1  A    between atoms: N_2  and  C_17
REMARK    2  A    between atoms: C_17  and  C_18
REMARK    3  A    between atoms: C_18  and  C_19
REMARK    4  A    between atoms: C_19  and  C_20
REMARK    5  A    between atoms: C_20  and  N_23
REMARK                            x       y       z     vdW  Elec       q    Type
REMARK                         _______ _______ _______ _____ _____    ______ ____
ROOT
ATOM      1  S   UNL     1      34.416 -15.128 -25.010  0.00  0.00    +0.014 S 
ATOM      2  N   UNL     1      35.697 -19.618 -20.319  0.00  0.00    +0.389 N 
ATOM      3  N   UNL     1      35.262 -17.537 -22.228  0.00  0.00    -0.297 N 
ATOM      4  N   UNL     1      34.800 -16.609 -24.377  0.00  0.00    -0.194 NA
ATOM      5  C   UNL     1      36.221 -18.267 -20.085  0.00  0.00    -0.055 C 
ATOM      6  C   UNL     1      34.443 -19.550 -21.081  0.00  0.00    -0.055 C 
ATOM      7  C   UNL     1      36.475 -17.533 -21.405  0.00  0.00    +0.069 C 
ATOM      8  C   UNL     1      34.667 -18.864 -22.428  0.00  0.00    +0.069 C 
ATOM      9  C   UNL     1      34.942 -16.484 -23.056  0.00  0.00    +0.140 A 
ATOM     10  C   UNL     1      34.746 -15.172 -22.500  0.00  0.00    +0.040 A 
ATOM     11  C   UNL     1      34.431 -14.271 -23.518  0.00  0.00    +0.050 A 
ATOM     12  C   UNL     1      34.816 -14.691 -21.173  0.00  0.00    +0.003 C 
ATOM     13  C   UNL     1      34.186 -12.912 -23.265  0.00  0.00    +0.008 C 
ATOM     14  C   UNL     1      34.573 -13.340 -20.911  0.00  0.00    +0.000 C 
ATOM     15  C   UNL     1      34.263 -12.464 -21.945  0.00  0.00    +0.001 C 
ATOM     16  H   UNL     1      36.381 -20.144 -20.864  0.00  0.00    -0.080 HD
ENDROOT
BRANCH   2  17
ATOM     17  C   UNL     1      35.491 -20.317 -19.050  0.00  0.00    -0.077 C 
BRANCH  17  18
ATOM     18  C   UNL     1      36.808 -20.426 -18.284  0.00  0.00    -0.021 C 
BRANCH  18  19
ATOM     19  C   UNL     1      36.784 -21.608 -17.308  0.00  0.00    +0.020 C 
BRANCH  19  20
ATOM     20  C   UNL     1      37.399 -21.264 -15.956  0.00  0.00    +0.101 C 
BRANCH  20  23
ATOM     21  O   UNL     1      34.951 -21.918 -14.428  0.00  0.00    -0.274 OA
ATOM     22  O   UNL     1      39.353 -23.220 -14.979  0.00  0.00    -0.274 OA
ATOM     23  N   UNL     1      37.195 -22.311 -14.974  0.00  0.00    -0.230 N 
ATOM     24  C   UNL     1      36.160 -23.855 -13.587  0.00  0.00    +0.086 C 
ATOM     25  C   UNL     1      37.677 -23.944 -13.382  0.00  0.00    +0.086 C 
ATOM     26  C   UNL     1      35.304 -23.977 -12.333  0.00  0.00    +0.010 C 
ATOM     27  C   UNL     1      38.187 -23.298 -12.089  0.00  0.00    +0.010 C 
ATOM     28  C   UNL     1      35.872 -23.226 -11.136  0.00  0.00    +0.001 C 
ATOM     29  C   UNL     1      37.320 -23.626 -10.883  0.00  0.00    +0.001 C 
ATOM     30  C   UNL     1      35.987 -22.559 -14.349  0.00  0.00    +0.231 C 
ATOM     31  C   UNL     1      38.208 -23.153 -14.556  0.00  0.00    +0.231 C 
ENDBRANCH  20  23
ENDBRANCH  19  20
ENDBRANCH  18  19
ENDBRANCH  17  18
ENDBRANCH   2  17
TORSDOF 5
ENDMDL
MODEL 7
REMARK VINA RESULT:     -11.0      3.551      9.382
REMARK  Name = 115368
REMARK  5 active torsions:
REMARK  status: ('A' for Active; 'I' for Inactive)
REMARK    1  A    between atoms: N_2  and  C_17
REMARK    2  A    between atoms: C_17  and  C_18
REMARK    3  A    between atoms: C_18  and  C_19
REMARK    4  A    between atoms: C_19  and  C_20
REMARK    5  A    between atoms: C_20  and  N_23
REMARK                            x       y       z     vdW  Elec       q    Type
REMARK                         _______ _______ _______ _____ _____    ______ ____
ROOT
ATOM      1  S   UNL     1      37.081 -20.327 -18.875  0.00  0.00    +0.014 S 
ATOM      2  N   UNL     1      34.834 -16.631 -23.886  0.00  0.00    +0.389 N 
ATOM      3  N   UNL     1      35.652 -18.375 -21.774  0.00  0.00    -0.297 N 
ATOM      4  N   UNL     1      37.163 -19.325 -20.191  0.00  0.00    -0.194 NA
ATOM      5  C   UNL     1      34.115 -17.884 -23.630  0.00  0.00    -0.055 C 
ATOM      6  C   UNL     1      35.368 -16.088 -22.629  0.00  0.00    -0.055 C 
ATOM      7  C   UNL     1      35.029 -18.928 -22.981  0.00  0.00    +0.069 C 
ATOM      8  C   UNL     1      36.324 -17.085 -21.974  0.00  0.00    +0.069 C 
ATOM      9  C   UNL     1      35.931 -19.157 -20.676  0.00  0.00    +0.140 A 
ATOM     10  C   UNL     1      34.863 -19.841 -19.997  0.00  0.00    +0.040 A 
ATOM     11  C   UNL     1      35.377 -20.567 -18.921  0.00  0.00    +0.050 A 
ATOM     12  C   UNL     1      33.471 -19.885 -20.234  0.00  0.00    +0.003 C 
ATOM     13  C   UNL     1      34.560 -21.334 -18.077  0.00  0.00    +0.008 C 
ATOM     14  C   UNL     1      32.648 -20.646 -19.399  0.00  0.00    +0.000 C 
ATOM     15  C   UNL     1      33.187 -21.361 -18.335  0.00  0.00    +0.001 C 
ATOM     16  H   UNL     1      35.615 -16.825 -24.514  0.00  0.00    -0.080 HD
ENDROOT
BRANCH   2  17
ATOM     17  C   UNL     1      33.957 -15.657 -24.536  0.00  0.00    -0.077 C 
BRANCH  17  18
ATOM     18  C   UNL     1      34.446 -14.236 -24.261  0.00  0.00    -0.021 C 
BRANCH  18  19
ATOM     19  C   UNL     1      33.377 -13.416 -23.530  0.00  0.00    +0.020 C 
BRANCH  19  20
ATOM     20  C   UNL     1      33.895 -12.801 -22.234  0.00  0.00    +0.101 C 
BRANCH  20  23
ATOM     21  O   UNL     1      33.588  -9.929 -22.877  0.00  0.00    -0.274 OA
ATOM     22  O   UNL     1      31.898 -13.246 -20.134  0.00  0.00    -0.274 OA
ATOM     23  N   UNL     1      32.969 -11.840 -21.670  0.00  0.00    -0.230 N 
ATOM     24  C   UNL     1      31.654  -9.948 -21.400  0.00  0.00    +0.086 C 
ATOM     25  C   UNL     1      31.467 -10.859 -20.181  0.00  0.00    +0.086 C 
ATOM     26  C   UNL     1      31.723  -8.452 -21.118  0.00  0.00    +0.010 C 
ATOM     27  C   UNL     1      32.194 -10.392 -18.916  0.00  0.00    +0.010 C 
ATOM     28  C   UNL     1      32.540  -8.107 -19.880  0.00  0.00    +0.001 C 
ATOM     29  C   UNL     1      32.055  -8.897 -18.672  0.00  0.00    +0.001 C 
ATOM     30  C   UNL     1      32.879 -10.522 -22.079  0.00  0.00    +0.231 C 
ATOM     31  C   UNL     1      32.096 -12.153 -20.646  0.00  0.00    +0.231 C 
ENDBRANCH  20  23
ENDBRANCH  19  20
ENDBRANCH  18  19
ENDBRANCH  17  18
ENDBRANCH   2  17
TORSDOF 5
ENDMDL
MODEL 8
REMARK VINA RESULT:     -10.3      1.904      3.642
REMARK  Name = 115368
REMARK  5 active torsions:
REMARK  status: ('A' for Active; 'I' for Inactive)
REMARK    1  A    between atoms: N_2  and  C_17
REMARK    2  A    between atoms: C_17  and  C_18
REMARK    3  A    between atoms: C_18  and  C_19
REMARK    4  A    between atoms: C_19  and  C_20
REMARK    5  A    between atoms: C_20  and  N_23
REMARK                            x       y       z     vdW  Elec       q    Type
REMARK                         _______ _______ _______ _____ _____    ______ ____
ROOT
ATOM      1  S   UNL     1      34.072 -12.053 -23.503  0.00  0.00    +0.014 S 
ATOM      2  N   UNL     1      35.442 -18.220 -21.527  0.00  0.00    +0.389 N 
ATOM      3  N   UNL     1      34.857 -15.497 -22.170  0.00  0.00    -0.297 N 
ATOM      4  N   UNL     1      34.787 -13.546 -23.541  0.00  0.00    -0.194 NA
ATOM      5  C   UNL     1      35.277 -17.219 -20.466  0.00  0.00    -0.055 C 
ATOM      6  C   UNL     1      34.586 -17.888 -22.674  0.00  0.00    -0.055 C 
ATOM      7  C   UNL     1      35.630 -15.815 -20.965  0.00  0.00    +0.069 C 
ATOM      8  C   UNL     1      34.941 -16.509 -23.231  0.00  0.00    +0.069 C 
ATOM      9  C   UNL     1      34.431 -14.217 -22.444  0.00  0.00    +0.140 A 
ATOM     10  C   UNL     1      33.559 -13.542 -21.520  0.00  0.00    +0.040 A 
ATOM     11  C   UNL     1      33.259 -12.266 -22.002  0.00  0.00    +0.050 A 
ATOM     12  C   UNL     1      32.997 -13.945 -20.288  0.00  0.00    +0.003 C 
ATOM     13  C   UNL     1      32.425 -11.380 -21.303  0.00  0.00    +0.008 C 
ATOM     14  C   UNL     1      32.165 -13.070 -19.585  0.00  0.00    +0.000 C 
ATOM     15  C   UNL     1      31.884 -11.804 -20.087  0.00  0.00    +0.001 C 
ATOM     16  H   UNL     1      36.415 -18.212 -21.834  0.00  0.00    -0.080 HD
ENDROOT
BRANCH   2  17
ATOM     17  C   UNL     1      35.133 -19.559 -21.025  0.00  0.00    -0.077 C 
BRANCH  17  18
ATOM     18  C   UNL     1      34.384 -19.468 -19.696  0.00  0.00    -0.021 C 
BRANCH  18  19
ATOM     19  C   UNL     1      33.801 -20.827 -19.297  0.00  0.00    +0.020 C 
BRANCH  19  20
ATOM     20  C   UNL     1      34.878 -21.839 -18.918  0.00  0.00    +0.101 C 
BRANCH  20  23
ATOM     21  O   UNL     1      37.304 -21.191 -17.352  0.00  0.00    -0.274 OA
ATOM     22  O   UNL     1      32.971 -22.735 -16.878  0.00  0.00    -0.274 OA
ATOM     23  N   UNL     1      35.080 -21.919 -17.485  0.00  0.00    -0.230 N 
ATOM     24  C   UNL     1      35.954 -21.578 -15.363  0.00  0.00    +0.086 C 
ATOM     25  C   UNL     1      34.768 -22.543 -15.261  0.00  0.00    +0.086 C 
ATOM     26  C   UNL     1      37.156 -21.892 -14.481  0.00  0.00    +0.010 C 
ATOM     27  C   UNL     1      35.154 -24.012 -15.057  0.00  0.00    +0.010 C 
ATOM     28  C   UNL     1      37.491 -23.377 -14.421  0.00  0.00    +0.001 C 
ATOM     29  C   UNL     1      36.266 -24.194 -14.035  0.00  0.00    +0.001 C 
ATOM     30  C   UNL     1      36.250 -21.546 -16.848  0.00  0.00    +0.231 C 
ATOM     31  C   UNL     1      34.118 -22.402 -16.619  0.00  0.00    +0.231 C 
ENDBRANCH  20  23
ENDBRANCH  19  20
ENDBRANCH  18  19
ENDBRANCH  17  18
ENDBRANCH   2  17
TORSDOF 5
ENDMDL
MODEL 9
REMARK VINA RESULT:     -10.1      4.063     10.036
REMARK  Name = 115368
REMARK  5 active torsions:
REMARK  status: ('A' for Active; 'I' for Inactive)
REMARK    1  A    between atoms: N_2  and  C_17
REMARK    2  A    between atoms: C_17  and  C_18
REMARK    3  A    between atoms: C_18  and  C_19
REMARK    4  A    between atoms: C_19  and  C_20
REMARK    5  A    between atoms: C_20  and  N_23
REMARK                            x       y       z     vdW  Elec       q    Type
REMARK                         _______ _______ _______ _____ _____    ______ ____
ROOT
ATOM      1  S   UNL     1      34.680 -23.926 -14.075  0.00  0.00    +0.014 S 
ATOM      2  N   UNL     1      35.574 -20.587 -19.720  0.00  0.00    +0.389 N 
ATOM      3  N   UNL     1      34.995 -22.092 -17.361  0.00  0.00    -0.297 N 
ATOM      4  N   UNL     1      35.497 -23.343 -15.392  0.00  0.00    -0.194 NA
ATOM      5  C   UNL     1      34.286 -21.273 -19.569  0.00  0.00    -0.055 C 
ATOM      6  C   UNL     1      36.072 -20.147 -18.409  0.00  0.00    -0.055 C 
ATOM      7  C   UNL     1      34.408 -22.488 -18.645  0.00  0.00    +0.069 C 
ATOM      8  C   UNL     1      36.251 -21.342 -17.472  0.00  0.00    +0.069 C 
ATOM      9  C   UNL     1      34.633 -22.698 -16.178  0.00  0.00    +0.140 A 
ATOM     10  C   UNL     1      33.263 -22.651 -15.742  0.00  0.00    +0.040 A 
ATOM     11  C   UNL     1      33.132 -23.325 -14.526  0.00  0.00    +0.050 A 
ATOM     12  C   UNL     1      32.111 -22.067 -16.314  0.00  0.00    +0.003 C 
ATOM     13  C   UNL     1      31.901 -23.439 -13.863  0.00  0.00    +0.008 C 
ATOM     14  C   UNL     1      30.880 -22.174 -15.661  0.00  0.00    +0.000 C 
ATOM     15  C   UNL     1      30.778 -22.853 -14.452  0.00  0.00    +0.001 C 
ATOM     16  H   UNL     1      36.247 -21.241 -20.120  0.00  0.00    -0.080 HD
ENDROOT
BRANCH   2  17
ATOM     17  C   UNL     1      35.448 -19.449 -20.630  0.00  0.00    -0.077 C 
BRANCH  17  18
ATOM     18  C   UNL     1      36.730 -18.618 -20.625  0.00  0.00    -0.021 C 
BRANCH  18  19
ATOM     19  C   UNL     1      36.777 -17.666 -21.824  0.00  0.00    +0.020 C 
BRANCH  19  20
ATOM     20  C   UNL     1      35.388 -17.245 -22.293  0.00  0.00    +0.101 C 
BRANCH  20  23
ATOM     21  O   UNL     1      34.885 -15.701 -19.819  0.00  0.00    -0.274 OA
ATOM     22  O   UNL     1      35.278 -15.208 -24.400  0.00  0.00    -0.274 OA
ATOM     23  N   UNL     1      35.163 -15.821 -22.143  0.00  0.00    -0.230 N 
ATOM     24  C   UNL     1      35.006 -13.704 -21.206  0.00  0.00    +0.086 C 
ATOM     25  C   UNL     1      34.623 -13.619 -22.688  0.00  0.00    +0.086 C 
ATOM     26  C   UNL     1      34.175 -12.860 -20.248  0.00  0.00    +0.010 C 
ATOM     27  C   UNL     1      33.120 -13.486 -22.954  0.00  0.00    +0.010 C 
ATOM     28  C   UNL     1      32.686 -12.871 -20.566  0.00  0.00    +0.001 C 
ATOM     29  C   UNL     1      32.440 -12.495 -22.021  0.00  0.00    +0.001 C 
ATOM     30  C   UNL     1      34.981 -15.192 -20.925  0.00  0.00    +0.231 C 
ATOM     31  C   UNL     1      35.088 -14.957 -23.219  0.00  0.00    +0.231 C 
ENDBRANCH  20  23
ENDBRANCH  19  20
ENDBRANCH  18  19
ENDBRANCH  17  18
ENDBRANCH   2  17
TORSDOF 5
ENDMDL
