MODEL 1
REMARK VINA RESULT:     -12.6      0.000      0.000
REMARK  Name = 447546
REMARK  10 active torsions:
REMARK  status: ('A' for Active; 'I' for Inactive)
REMARK    1  A    between atoms: N_1  and  C_23
REMARK    2  A    between atoms: C_8  and  N_11
REMARK    3  A    between atoms: N_12  and  C_16
REMARK    4  A    between atoms: C_16  and  C_17
REMARK    5  A    between atoms: C_23  and  C_24
REMARK    6  A    between atoms: C_24  and  C_25
REMARK    7  A    between atoms: C_25  and  N_26
REMARK    8  A    between atoms: C_25  and  C_36
REMARK    9  A    between atoms: C_30  and  C_33
REMARK   10  A    between atoms: C_36  and  O_37
REMARK                            x       y       z     vdW  Elec       q    Type
REMARK                         _______ _______ _______ _____ _____    ______ ____
ROOT
ATOM      1  N   UNL     1      36.565 -22.537 -15.422  0.00  0.00    -0.286 N 
ATOM      2  C   UNL     1      35.976 -21.968 -16.529  0.00  0.00    +0.053 C 
ATOM      3  C   UNL     1      34.657 -22.427 -16.572  0.00  0.00    +0.015 C 
ATOM      4  C   UNL     1      35.667 -23.335 -14.766  0.00  0.00    +0.065 C 
ATOM      5  C   UNL     1      34.477 -23.287 -15.454  0.00  0.00    +0.017 C 
ATOM      6  C   UNL     1      36.504 -21.093 -17.485  0.00  0.00    +0.030 C 
ATOM      7  C   UNL     1      33.823 -21.992 -17.621  0.00  0.00    +0.003 C 
ATOM      8  C   UNL     1      35.657 -20.675 -18.515  0.00  0.00    +0.053 C 
ATOM      9  C   UNL     1      34.337 -21.115 -18.584  0.00  0.00    +0.015 C 
ENDROOT
BRANCH   8  11
ATOM     10  O   UNL     1      34.209 -19.157 -20.662  0.00  0.00    -0.252 OA
ATOM     11  N   UNL     1      36.143 -19.800 -19.488  0.00  0.00    -0.268 N 
ATOM     12  N   UNL     1      36.281 -18.325 -21.264  0.00  0.00    -0.285 N 
ATOM     13  C   UNL     1      35.423 -19.106 -20.481  0.00  0.00    +0.305 C 
ATOM     14  H   UNL     1      37.116 -19.648 -19.479  0.00  0.00    +0.156 HD
ATOM     15  H   UNL     1      37.243 -18.335 -21.058  0.00  0.00    +0.151 HD
BRANCH  12  16
ATOM     16  C   UNL     1      35.820 -17.504 -22.360  0.00  0.00    +0.118 C 
BRANCH  16  17
ATOM     17  C   UNL     1      35.399 -16.138 -21.900  0.00  0.00    -0.003 C 
ATOM     18  C   UNL     1      35.159 -15.131 -22.834  0.00  0.00    -0.003 C 
ATOM     19  C   UNL     1      35.248 -15.877 -20.538  0.00  0.00    -0.003 C 
ATOM     20  C   UNL     1      34.769 -13.862 -22.406  0.00  0.00    -0.000 C 
ATOM     21  C   UNL     1      34.858 -14.608 -20.110  0.00  0.00    -0.000 C 
ATOM     22  C   UNL     1      34.618 -13.601 -21.045  0.00  0.00    -0.000 C 
ENDBRANCH  16  17
ENDBRANCH  12  16
ENDBRANCH   8  11
BRANCH   1  23
ATOM     23  C   UNL     1      37.934 -22.332 -14.999  0.00  0.00    +0.097 C 
BRANCH  23  24
ATOM     24  C   UNL     1      38.842 -23.555 -15.184  0.00  0.00    +0.040 C 
BRANCH  24  25
ATOM     25  C   UNL     1      39.534 -24.059 -13.897  0.00  0.00    +0.091 C 
BRANCH  25  26
ATOM     26  N   UNL     1      38.591 -24.420 -12.824  0.00  0.00    -0.246 NA
ATOM     27  N   UNL     1      37.269 -25.550 -11.445  0.00  0.00    -0.251 NA
ATOM     28  C   UNL     1      38.003 -23.563 -11.928  0.00  0.00    +0.125 C 
ATOM     29  C   UNL     1      38.128 -25.608 -12.506  0.00  0.00    +0.201 C 
ATOM     30  C   UNL     1      37.177 -24.242 -11.062  0.00  0.00    +0.124 C 
BRANCH  30  33
ATOM     31  O   UNL     1      35.434 -24.383  -9.471  0.00  0.00    -0.269 OA
ATOM     32  N   UNL     1      36.693 -22.483  -9.468  0.00  0.00    -0.324 N 
ATOM     33  C   UNL     1      36.382 -23.745  -9.989  0.00  0.00    +0.257 C 
ATOM     34  H   UNL     1      36.164 -22.112  -8.727  0.00  0.00    +0.145 HD
ATOM     35  H   UNL     1      37.443 -21.967  -9.845  0.00  0.00    +0.145 HD
ENDBRANCH  30  33
ENDBRANCH  25  26
BRANCH  25  36
ATOM     36  C   UNL     1      40.468 -25.240 -14.211  0.00  0.00    +0.153 C 
BRANCH  36  37
ATOM     37  O   UNL     1      40.623 -25.366 -15.620  0.00  0.00    -0.381 OA
ATOM     38  H   UNL     1      40.664 -26.305 -15.857  0.00  0.00    +0.210 HD
ENDBRANCH  36  37
ENDBRANCH  25  36
ENDBRANCH  24  25
ENDBRANCH  23  24
ENDBRANCH   1  23
TORSDOF 10
ENDMDL
MODEL 2
REMARK VINA RESULT:     -12.3      2.327      4.282
REMARK  Name = 447546
REMARK  10 active torsions:
REMARK  status: ('A' for Active; 'I' for Inactive)
REMARK    1  A    between atoms: N_1  and  C_23
REMARK    2  A    between atoms: C_8  and  N_11
REMARK    3  A    between atoms: N_12  and  C_16
REMARK    4  A    between atoms: C_16  and  C_17
REMARK    5  A    between atoms: C_23  and  C_24
REMARK    6  A    between atoms: C_24  and  C_25
REMARK    7  A    between atoms: C_25  and  N_26
REMARK    8  A    between atoms: C_25  and  C_36
REMARK    9  A    between atoms: C_30  and  C_33
REMARK   10  A    between atoms: C_36  and  O_37
REMARK                            x       y       z     vdW  Elec       q    Type
REMARK                         _______ _______ _______ _____ _____    ______ ____
ROOT
ATOM      1  N   UNL     1      33.118 -23.846 -13.779  0.00  0.00    -0.286 N 
ATOM      2  C   UNL     1      32.509 -23.190 -14.826  0.00  0.00    +0.053 C 
ATOM      3  C   UNL     1      31.131 -23.255 -14.603  0.00  0.00    +0.015 C 
ATOM      4  C   UNL     1      32.177 -24.319 -12.905  0.00  0.00    +0.065 C 
ATOM      5  C   UNL     1      30.937 -23.969 -13.388  0.00  0.00    +0.017 C 
ATOM      6  C   UNL     1      33.065 -22.553 -15.941  0.00  0.00    +0.030 C 
ATOM      7  C   UNL     1      30.265 -22.654 -15.538  0.00  0.00    +0.003 C 
ATOM      8  C   UNL     1      32.185 -21.965 -16.854  0.00  0.00    +0.053 C 
ATOM      9  C   UNL     1      30.807 -22.012 -16.657  0.00  0.00    +0.015 C 
ENDROOT
BRANCH   8  11
ATOM     10  O   UNL     1      35.020 -21.634 -17.780  0.00  0.00    -0.252 OA
ATOM     11  N   UNL     1      32.699 -21.317 -17.979  0.00  0.00    -0.268 N 
ATOM     12  N   UNL     1      34.143 -20.461 -19.570  0.00  0.00    -0.285 N 
ATOM     13  C   UNL     1      34.044 -21.186 -18.377  0.00  0.00    +0.305 C 
ATOM     14  H   UNL     1      32.034 -20.897 -18.572  0.00  0.00    +0.156 HD
ATOM     15  H   UNL     1      33.315 -20.135 -19.990  0.00  0.00    +0.151 HD
BRANCH  12  16
ATOM     16  C   UNL     1      35.403 -20.172 -20.214  0.00  0.00    +0.118 C 
BRANCH  16  17
ATOM     17  C   UNL     1      35.351 -18.895 -21.003  0.00  0.00    -0.003 C 
ATOM     18  C   UNL     1      35.686 -17.686 -20.396  0.00  0.00    -0.003 C 
ATOM     19  C   UNL     1      34.968 -18.920 -22.344  0.00  0.00    -0.003 C 
ATOM     20  C   UNL     1      35.637 -16.500 -21.129  0.00  0.00    -0.000 C 
ATOM     21  C   UNL     1      34.919 -17.734 -23.077  0.00  0.00    -0.000 C 
ATOM     22  C   UNL     1      35.254 -16.525 -22.469  0.00  0.00    -0.000 C 
ENDBRANCH  16  17
ENDBRANCH  12  16
ENDBRANCH   8  11
BRANCH   1  23
ATOM     23  C   UNL     1      34.545 -24.018 -13.613  0.00  0.00    +0.097 C 
BRANCH  23  24
ATOM     24  C   UNL     1      35.123 -23.333 -12.366  0.00  0.00    +0.040 C 
BRANCH  24  25
ATOM     25  C   UNL     1      35.975 -24.243 -11.453  0.00  0.00    +0.091 C 
BRANCH  25  26
ATOM     26  N   UNL     1      37.099 -24.891 -12.150  0.00  0.00    -0.246 NA
ATOM     27  N   UNL     1      38.395 -26.368 -13.182  0.00  0.00    -0.251 NA
ATOM     28  C   UNL     1      38.291 -24.308 -12.501  0.00  0.00    +0.125 C 
ATOM     29  C   UNL     1      37.194 -26.131 -12.576  0.00  0.00    +0.201 C 
ATOM     30  C   UNL     1      39.112 -25.206 -13.143  0.00  0.00    +0.124 C 
BRANCH  30  33
ATOM     31  O   UNL     1      41.034 -23.926 -13.650  0.00  0.00    -0.269 OA
ATOM     32  N   UNL     1      41.075 -26.133 -14.217  0.00  0.00    -0.324 N 
ATOM     33  C   UNL     1      40.423 -25.021 -13.669  0.00  0.00    +0.257 C 
ATOM     34  H   UNL     1      41.980 -26.039 -14.589  0.00  0.00    +0.145 HD
ATOM     35  H   UNL     1      40.626 -27.009 -14.232  0.00  0.00    +0.145 HD
ENDBRANCH  30  33
ENDBRANCH  25  26
BRANCH  25  36
ATOM     36  C   UNL     1      36.482 -23.460 -10.230  0.00  0.00    +0.153 C 
BRANCH  36  37
ATOM     37  O   UNL     1      35.722 -23.820  -9.082  0.00  0.00    -0.381 OA
ATOM     38  H   UNL     1      34.783 -23.637  -9.246  0.00  0.00    +0.210 HD
ENDBRANCH  36  37
ENDBRANCH  25  36
ENDBRANCH  24  25
ENDBRANCH  23  24
ENDBRANCH   1  23
TORSDOF 10
ENDMDL
MODEL 3
REMARK VINA RESULT:     -12.2      4.297      6.947
REMARK  Name = 447546
REMARK  10 active torsions:
REMARK  status: ('A' for Active; 'I' for Inactive)
REMARK    1  A    between atoms: N_1  and  C_23
REMARK    2  A    between atoms: C_8  and  N_11
REMARK    3  A    between atoms: N_12  and  C_16
REMARK    4  A    between atoms: C_16  and  C_17
REMARK    5  A    between atoms: C_23  and  C_24
REMARK    6  A    between atoms: C_24  and  C_25
REMARK    7  A    between atoms: C_25  and  N_26
REMARK    8  A    between atoms: C_25  and  C_36
REMARK    9  A    between atoms: C_30  and  C_33
REMARK   10  A    between atoms: C_36  and  O_37
REMARK                            x       y       z     vdW  Elec       q    Type
REMARK                         _______ _______ _______ _____ _____    ______ ____
ROOT
ATOM      1  N   UNL     1      33.704 -23.052 -15.370  0.00  0.00    -0.286 N 
ATOM      2  C   UNL     1      34.537 -22.346 -16.209  0.00  0.00    +0.053 C 
ATOM      3  C   UNL     1      35.810 -22.365 -15.633  0.00  0.00    +0.015 C 
ATOM      4  C   UNL     1      34.404 -23.516 -14.289  0.00  0.00    +0.065 C 
ATOM      5  C   UNL     1      35.710 -23.107 -14.424  0.00  0.00    +0.017 C 
ATOM      6  C   UNL     1      34.265 -21.699 -17.419  0.00  0.00    +0.030 C 
ATOM      7  C   UNL     1      36.864 -21.706 -16.298  0.00  0.00    +0.003 C 
ATOM      8  C   UNL     1      35.326 -21.053 -18.060  0.00  0.00    +0.053 C 
ATOM      9  C   UNL     1      36.607 -21.056 -17.510  0.00  0.00    +0.015 C 
ENDROOT
BRANCH   8  11
ATOM     10  O   UNL     1      36.998 -19.036 -19.524  0.00  0.00    -0.252 OA
ATOM     11  N   UNL     1      35.098 -20.398 -19.271  0.00  0.00    -0.268 N 
ATOM     12  N   UNL     1      35.328 -19.032 -21.123  0.00  0.00    -0.285 N 
ATOM     13  C   UNL     1      35.915 -19.454 -19.924  0.00  0.00    +0.305 C 
ATOM     14  H   UNL     1      34.256 -20.626 -19.729  0.00  0.00    +0.156 HD
ATOM     15  H   UNL     1      34.457 -19.412 -21.378  0.00  0.00    +0.151 HD
BRANCH  12  16
ATOM     16  C   UNL     1      35.943 -18.066 -22.004  0.00  0.00    +0.118 C 
BRANCH  16  17
ATOM     17  C   UNL     1      35.492 -16.665 -21.703  0.00  0.00    -0.003 C 
ATOM     18  C   UNL     1      35.297 -16.263 -20.383  0.00  0.00    -0.003 C 
ATOM     19  C   UNL     1      35.268 -15.766 -22.747  0.00  0.00    -0.003 C 
ATOM     20  C   UNL     1      34.878 -14.962 -20.104  0.00  0.00    -0.000 C 
ATOM     21  C   UNL     1      34.849 -14.465 -22.468  0.00  0.00    -0.000 C 
ATOM     22  C   UNL     1      34.654 -14.063 -21.147  0.00  0.00    -0.000 C 
ENDBRANCH  16  17
ENDBRANCH  12  16
ENDBRANCH   8  11
BRANCH   1  23
ATOM     23  C   UNL     1      32.291 -23.279 -15.585  0.00  0.00    +0.097 C 
BRANCH  23  24
ATOM     24  C   UNL     1      31.372 -22.361 -14.767  0.00  0.00    +0.040 C 
BRANCH  24  25
ATOM     25  C   UNL     1      29.998 -22.966 -14.400  0.00  0.00    +0.091 C 
BRANCH  25  26
ATOM     26  N   UNL     1      28.986 -22.814 -15.460  0.00  0.00    -0.246 NA
ATOM     27  N   UNL     1      27.597 -23.203 -17.147  0.00  0.00    -0.251 NA
ATOM     28  C   UNL     1      28.295 -21.671 -15.774  0.00  0.00    +0.125 C 
ATOM     29  C   UNL     1      28.542 -23.717 -16.305  0.00  0.00    +0.201 C 
ATOM     30  C   UNL     1      27.426 -21.888 -16.818  0.00  0.00    +0.124 C 
BRANCH  30  33
ATOM     31  O   UNL     1      26.289 -19.826 -17.034  0.00  0.00    -0.269 OA
ATOM     32  N   UNL     1      25.892 -21.404 -18.629  0.00  0.00    -0.324 N 
ATOM     33  C   UNL     1      26.527 -20.983 -17.455  0.00  0.00    +0.257 C 
ATOM     34  H   UNL     1      25.266 -20.804 -19.092  0.00  0.00    +0.145 HD
ATOM     35  H   UNL     1      26.072 -22.303 -18.992  0.00  0.00    +0.145 HD
ENDBRANCH  30  33
ENDBRANCH  25  26
BRANCH  25  36
ATOM     36  C   UNL     1      30.146 -24.446 -14.008  0.00  0.00    +0.153 C 
BRANCH  36  37
ATOM     37  O   UNL     1      30.580 -24.541 -12.656  0.00  0.00    -0.381 OA
ATOM     38  H   UNL     1      29.828 -24.776 -12.091  0.00  0.00    +0.210 HD
ENDBRANCH  36  37
ENDBRANCH  25  36
ENDBRANCH  24  25
ENDBRANCH  23  24
ENDBRANCH   1  23
TORSDOF 10
ENDMDL
MODEL 4
REMARK VINA RESULT:     -12.1      4.209      6.653
REMARK  Name = 447546
REMARK  10 active torsions:
REMARK  status: ('A' for Active; 'I' for Inactive)
REMARK    1  A    between atoms: N_1  and  C_23
REMARK    2  A    between atoms: C_8  and  N_11
REMARK    3  A    between atoms: N_12  and  C_16
REMARK    4  A    between atoms: C_16  and  C_17
REMARK    5  A    between atoms: C_23  and  C_24
REMARK    6  A    between atoms: C_24  and  C_25
REMARK    7  A    between atoms: C_25  and  N_26
REMARK    8  A    between atoms: C_25  and  C_36
REMARK    9  A    between atoms: C_30  and  C_33
REMARK   10  A    between atoms: C_36  and  O_37
REMARK                            x       y       z     vdW  Elec       q    Type
REMARK                         _______ _______ _______ _____ _____    ______ ____
ROOT
ATOM      1  N   UNL     1      34.488 -23.504 -14.442  0.00  0.00    -0.286 N 
ATOM      2  C   UNL     1      35.492 -22.803 -15.071  0.00  0.00    +0.053 C 
ATOM      3  C   UNL     1      36.678 -23.084 -14.388  0.00  0.00    +0.015 C 
ATOM      4  C   UNL     1      34.997 -24.218 -13.390  0.00  0.00    +0.065 C 
ATOM      5  C   UNL     1      36.350 -23.978 -13.332  0.00  0.00    +0.017 C 
ATOM      6  C   UNL     1      35.442 -21.949 -16.179  0.00  0.00    +0.030 C 
ATOM      7  C   UNL     1      37.874 -22.485 -14.831  0.00  0.00    +0.003 C 
ATOM      8  C   UNL     1      36.642 -21.367 -16.600  0.00  0.00    +0.053 C 
ATOM      9  C   UNL     1      37.840 -21.630 -15.939  0.00  0.00    +0.015 C 
ENDROOT
BRANCH   8  11
ATOM     10  O   UNL     1      35.038 -21.473 -19.135  0.00  0.00    -0.252 OA
ATOM     11  N   UNL     1      36.636 -20.511 -17.703  0.00  0.00    -0.268 N 
ATOM     12  N   UNL     1      36.153 -19.542 -19.746  0.00  0.00    -0.285 N 
ATOM     13  C   UNL     1      35.862 -20.600 -18.877  0.00  0.00    +0.305 C 
ATOM     14  H   UNL     1      37.253 -19.745 -17.653  0.00  0.00    +0.156 HD
ATOM     15  H   UNL     1      36.826 -18.880 -19.470  0.00  0.00    +0.151 HD
BRANCH  12  16
ATOM     16  C   UNL     1      35.509 -19.376 -21.029  0.00  0.00    +0.118 C 
BRANCH  16  17
ATOM     17  C   UNL     1      35.387 -17.930 -21.414  0.00  0.00    -0.003 C 
ATOM     18  C   UNL     1      35.375 -16.945 -20.429  0.00  0.00    -0.003 C 
ATOM     19  C   UNL     1      35.286 -17.573 -22.759  0.00  0.00    -0.003 C 
ATOM     20  C   UNL     1      35.261 -15.601 -20.787  0.00  0.00    -0.000 C 
ATOM     21  C   UNL     1      35.173 -16.230 -23.117  0.00  0.00    -0.000 C 
ATOM     22  C   UNL     1      35.160 -15.244 -22.131  0.00  0.00    -0.000 C 
ENDBRANCH  16  17
ENDBRANCH  12  16
ENDBRANCH   8  11
BRANCH   1  23
ATOM     23  C   UNL     1      33.092 -23.499 -14.825  0.00  0.00    +0.097 C 
BRANCH  23  24
ATOM     24  C   UNL     1      32.289 -22.315 -14.267  0.00  0.00    +0.040 C 
BRANCH  24  25
ATOM     25  C   UNL     1      30.854 -22.655 -13.807  0.00  0.00    +0.091 C 
BRANCH  25  26
ATOM     26  N   UNL     1      29.824 -22.351 -14.816  0.00  0.00    -0.246 NA
ATOM     27  N   UNL     1      28.754 -22.031 -16.734  0.00  0.00    -0.251 NA
ATOM     28  C   UNL     1      28.526 -21.978 -14.574  0.00  0.00    +0.125 C 
ATOM     29  C   UNL     1      29.928 -22.373 -16.126  0.00  0.00    +0.201 C 
ATOM     30  C   UNL     1      27.841 -21.774 -15.750  0.00  0.00    +0.124 C 
BRANCH  30  33
ATOM     31  O   UNL     1      25.572 -21.570 -15.118  0.00  0.00    -0.269 OA
ATOM     32  N   UNL     1      26.165 -20.730 -17.152  0.00  0.00    -0.324 N 
ATOM     33  C   UNL     1      26.487 -21.382 -15.956  0.00  0.00    +0.257 C 
ATOM     34  H   UNL     1      25.239 -20.447 -17.325  0.00  0.00    +0.145 HD
ATOM     35  H   UNL     1      26.866 -20.555 -17.822  0.00  0.00    +0.145 HD
ENDBRANCH  30  33
ENDBRANCH  25  26
BRANCH  25  36
ATOM     36  C   UNL     1      30.760 -24.127 -13.372  0.00  0.00    +0.153 C 
BRANCH  36  37
ATOM     37  O   UNL     1      30.714 -24.204 -11.951  0.00  0.00    -0.381 OA
ATOM     38  H   UNL     1      30.024 -23.610 -11.618  0.00  0.00    +0.210 HD
ENDBRANCH  36  37
ENDBRANCH  25  36
ENDBRANCH  24  25
ENDBRANCH  23  24
ENDBRANCH   1  23
TORSDOF 10
ENDMDL
MODEL 5
REMARK VINA RESULT:     -11.3      4.356      6.760
REMARK  Name = 447546
REMARK  10 active torsions:
REMARK  status: ('A' for Active; 'I' for Inactive)
REMARK    1  A    between atoms: N_1  and  C_23
REMARK    2  A    between atoms: C_8  and  N_11
REMARK    3  A    between atoms: N_12  and  C_16
REMARK    4  A    between atoms: C_16  and  C_17
REMARK    5  A    between atoms: C_23  and  C_24
REMARK    6  A    between atoms: C_24  and  C_25
REMARK    7  A    between atoms: C_25  and  N_26
REMARK    8  A    between atoms: C_25  and  C_36
REMARK    9  A    between atoms: C_30  and  C_33
REMARK   10  A    between atoms: C_36  and  O_37
REMARK                            x       y       z     vdW  Elec       q    Type
REMARK                         _______ _______ _______ _____ _____    ______ ____
ROOT
ATOM      1  N   UNL     1      33.937 -22.022 -16.900  0.00  0.00    -0.286 N 
ATOM      2  C   UNL     1      34.600 -21.295 -17.863  0.00  0.00    +0.053 C 
ATOM      3  C   UNL     1      35.954 -21.298 -17.519  0.00  0.00    +0.015 C 
ATOM      4  C   UNL     1      34.823 -22.484 -15.963  0.00  0.00    +0.065 C 
ATOM      5  C   UNL     1      36.079 -22.052 -16.320  0.00  0.00    +0.017 C 
ATOM      6  C   UNL     1      34.110 -20.642 -19.000  0.00  0.00    +0.030 C 
ATOM      7  C   UNL     1      36.865 -20.616 -18.350  0.00  0.00    +0.003 C 
ATOM      8  C   UNL     1      35.033 -19.972 -19.808  0.00  0.00    +0.053 C 
ATOM      9  C   UNL     1      36.390 -19.959 -19.491  0.00  0.00    +0.015 C 
ENDROOT
BRANCH   8  11
ATOM     10  O   UNL     1      36.488 -18.136 -21.684  0.00  0.00    -0.252 OA
ATOM     11  N   UNL     1      34.586 -19.309 -20.953  0.00  0.00    -0.268 N 
ATOM     12  N   UNL     1      34.497 -17.990 -22.849  0.00  0.00    -0.285 N 
ATOM     13  C   UNL     1      35.308 -18.453 -21.808  0.00  0.00    +0.305 C 
ATOM     14  H   UNL     1      33.644 -19.461 -21.194  0.00  0.00    +0.156 HD
ATOM     15  H   UNL     1      33.560 -18.288 -22.882  0.00  0.00    +0.151 HD
BRANCH  12  16
ATOM     16  C   UNL     1      34.971 -17.094 -23.879  0.00  0.00    +0.118 C 
BRANCH  16  17
ATOM     17  C   UNL     1      34.603 -15.666 -23.595  0.00  0.00    -0.003 C 
ATOM     18  C   UNL     1      35.039 -15.053 -22.422  0.00  0.00    -0.003 C 
ATOM     19  C   UNL     1      33.823 -14.953 -24.507  0.00  0.00    -0.003 C 
ATOM     20  C   UNL     1      34.696 -13.727 -22.159  0.00  0.00    -0.000 C 
ATOM     21  C   UNL     1      33.481 -13.627 -24.244  0.00  0.00    -0.000 C 
ATOM     22  C   UNL     1      33.918 -13.014 -23.069  0.00  0.00    -0.000 C 
ENDBRANCH  16  17
ENDBRANCH  12  16
ENDBRANCH   8  11
BRANCH   1  23
ATOM     23  C   UNL     1      32.512 -22.271 -16.866  0.00  0.00    +0.097 C 
BRANCH  23  24
ATOM     24  C   UNL     1      32.070 -23.266 -15.784  0.00  0.00    +0.040 C 
BRANCH  24  25
ATOM     25  C   UNL     1      30.887 -22.798 -14.906  0.00  0.00    +0.091 C 
BRANCH  25  26
ATOM     26  N   UNL     1      29.601 -22.761 -15.623  0.00  0.00    -0.246 NA
ATOM     27  N   UNL     1      27.883 -23.257 -16.939  0.00  0.00    -0.251 NA
ATOM     28  C   UNL     1      28.637 -21.788 -15.527  0.00  0.00    +0.125 C 
ATOM     29  C   UNL     1      29.115 -23.631 -16.481  0.00  0.00    +0.201 C 
ATOM     30  C   UNL     1      27.561 -22.075 -16.335  0.00  0.00    +0.124 C 
BRANCH  30  33
ATOM     31  O   UNL     1      25.569 -21.027 -15.613  0.00  0.00    -0.269 OA
ATOM     32  N   UNL     1      26.048 -20.929 -17.839  0.00  0.00    -0.324 N 
ATOM     33  C   UNL     1      26.357 -21.341 -16.537  0.00  0.00    +0.257 C 
ATOM     34  H   UNL     1      25.223 -20.420 -18.011  0.00  0.00    +0.145 HD
ATOM     35  H   UNL     1      26.656 -21.147 -18.582  0.00  0.00    +0.145 HD
ENDBRANCH  30  33
ENDBRANCH  25  26
BRANCH  25  36
ATOM     36  C   UNL     1      30.774 -23.668 -13.643  0.00  0.00    +0.153 C 
BRANCH  36  37
ATOM     37  O   UNL     1      30.567 -25.026 -14.015  0.00  0.00    -0.381 OA
ATOM     38  H   UNL     1      29.699 -25.117 -14.436  0.00  0.00    +0.210 HD
ENDBRANCH  36  37
ENDBRANCH  25  36
ENDBRANCH  24  25
ENDBRANCH  23  24
ENDBRANCH   1  23
TORSDOF 10
ENDMDL
MODEL 6
REMARK VINA RESULT:     -11.3      6.487     14.018
REMARK  Name = 447546
REMARK  10 active torsions:
REMARK  status: ('A' for Active; 'I' for Inactive)
REMARK    1  A    between atoms: N_1  and  C_23
REMARK    2  A    between atoms: C_8  and  N_11
REMARK    3  A    between atoms: N_12  and  C_16
REMARK    4  A    between atoms: C_16  and  C_17
REMARK    5  A    between atoms: C_23  and  C_24
REMARK    6  A    between atoms: C_24  and  C_25
REMARK    7  A    between atoms: C_25  and  N_26
REMARK    8  A    between atoms: C_25  and  C_36
REMARK    9  A    between atoms: C_30  and  C_33
REMARK   10  A    between atoms: C_36  and  O_37
REMARK                            x       y       z     vdW  Elec       q    Type
REMARK                         _______ _______ _______ _____ _____    ______ ____
ROOT
ATOM      1  N   UNL     1      34.033 -11.065 -24.042  0.00  0.00    -0.286 N 
ATOM      2  C   UNL     1      34.177 -12.429 -23.928  0.00  0.00    +0.053 C 
ATOM      3  C   UNL     1      33.882 -12.979 -25.178  0.00  0.00    +0.015 C 
ATOM      4  C   UNL     1      33.660 -10.734 -25.317  0.00  0.00    +0.065 C 
ATOM      5  C   UNL     1      33.558 -11.898 -26.043  0.00  0.00    +0.017 C 
ATOM      6  C   UNL     1      34.541 -13.211 -22.825  0.00  0.00    +0.030 C 
ATOM      7  C   UNL     1      33.953 -14.377 -25.337  0.00  0.00    +0.003 C 
ATOM      8  C   UNL     1      34.605 -14.596 -23.008  0.00  0.00    +0.053 C 
ATOM      9  C   UNL     1      34.317 -15.171 -24.244  0.00  0.00    +0.015 C 
ENDROOT
BRANCH   8  11
ATOM     10  O   UNL     1      35.958 -17.274 -22.972  0.00  0.00    -0.252 OA
ATOM     11  N   UNL     1      34.967 -15.411 -21.935  0.00  0.00    -0.268 N 
ATOM     12  N   UNL     1      35.793 -17.161 -20.669  0.00  0.00    -0.285 N 
ATOM     13  C   UNL     1      35.605 -16.668 -21.965  0.00  0.00    +0.305 C 
ATOM     14  H   UNL     1      34.750 -15.063 -21.040  0.00  0.00    +0.156 HD
ATOM     15  H   UNL     1      35.483 -16.617 -19.910  0.00  0.00    +0.151 HD
BRANCH  12  16
ATOM     16  C   UNL     1      36.423 -18.432 -20.394  0.00  0.00    +0.118 C 
BRANCH  16  17
ATOM     17  C   UNL     1      35.448 -19.438 -19.853  0.00  0.00    -0.003 C 
ATOM     18  C   UNL     1      34.094 -19.333 -20.164  0.00  0.00    -0.003 C 
ATOM     19  C   UNL     1      35.899 -20.478 -19.040  0.00  0.00    -0.003 C 
ATOM     20  C   UNL     1      33.188 -20.267 -19.662  0.00  0.00    -0.000 C 
ATOM     21  C   UNL     1      34.993 -21.412 -18.537  0.00  0.00    -0.000 C 
ATOM     22  C   UNL     1      33.638 -21.307 -18.849  0.00  0.00    -0.000 C 
ENDBRANCH  16  17
ENDBRANCH  12  16
ENDBRANCH   8  11
BRANCH   1  23
ATOM     23  C   UNL     1      34.241 -10.105 -22.979  0.00  0.00    +0.097 C 
BRANCH  23  24
ATOM     24  C   UNL     1      32.995  -9.286 -22.614  0.00  0.00    +0.040 C 
BRANCH  24  25
ATOM     25  C   UNL     1      32.326  -9.669 -21.275  0.00  0.00    +0.091 C 
BRANCH  25  26
ATOM     26  N   UNL     1      32.346  -8.587 -20.276  0.00  0.00    -0.246 NA
ATOM     27  N   UNL     1      32.411  -7.453 -18.369  0.00  0.00    -0.251 NA
ATOM     28  C   UNL     1      32.297  -7.239 -20.528  0.00  0.00    +0.125 C 
ATOM     29  C   UNL     1      32.415  -8.682 -18.967  0.00  0.00    +0.201 C 
ATOM     30  C   UNL     1      32.336  -6.515 -19.359  0.00  0.00    +0.124 C 
BRANCH  30  33
ATOM     31  O   UNL     1      32.772  -4.531 -18.149  0.00  0.00    -0.269 OA
ATOM     32  N   UNL     1      31.751  -4.311 -20.175  0.00  0.00    -0.324 N 
ATOM     33  C   UNL     1      32.308  -5.104 -19.164  0.00  0.00    +0.257 C 
ATOM     34  H   UNL     1      31.717  -3.333 -20.071  0.00  0.00    +0.145 HD
ATOM     35  H   UNL     1      31.394  -4.732 -20.990  0.00  0.00    +0.145 HD
ENDBRANCH  30  33
ENDBRANCH  25  26
BRANCH  25  36
ATOM     36  C   UNL     1      30.887 -10.157 -21.511  0.00  0.00    +0.153 C 
BRANCH  36  37
ATOM     37  O   UNL     1      30.433 -10.877 -20.370  0.00  0.00    -0.381 OA
ATOM     38  H   UNL     1      29.618 -11.354 -20.592  0.00  0.00    +0.210 HD
ENDBRANCH  36  37
ENDBRANCH  25  36
ENDBRANCH  24  25
ENDBRANCH  23  24
ENDBRANCH   1  23
TORSDOF 10
ENDMDL
MODEL 7
REMARK VINA RESULT:     -11.3      1.285      3.228
REMARK  Name = 447546
REMARK  10 active torsions:
REMARK  status: ('A' for Active; 'I' for Inactive)
REMARK    1  A    between atoms: N_1  and  C_23
REMARK    2  A    between atoms: C_8  and  N_11
REMARK    3  A    between atoms: N_12  and  C_16
REMARK    4  A    between atoms: C_16  and  C_17
REMARK    5  A    between atoms: C_23  and  C_24
REMARK    6  A    between atoms: C_24  and  C_25
REMARK    7  A    between atoms: C_25  and  N_26
REMARK    8  A    between atoms: C_25  and  C_36
REMARK    9  A    between atoms: C_30  and  C_33
REMARK   10  A    between atoms: C_36  and  O_37
REMARK                            x       y       z     vdW  Elec       q    Type
REMARK                         _______ _______ _______ _____ _____    ______ ____
ROOT
ATOM      1  N   UNL     1      34.642 -22.855 -15.183  0.00  0.00    -0.286 N 
ATOM      2  C   UNL     1      34.400 -22.188 -16.363  0.00  0.00    +0.053 C 
ATOM      3  C   UNL     1      33.057 -22.401 -16.685  0.00  0.00    +0.015 C 
ATOM      4  C   UNL     1      33.503 -23.478 -14.749  0.00  0.00    +0.065 C 
ATOM      5  C   UNL     1      32.505 -23.215 -15.658  0.00  0.00    +0.017 C 
ATOM      6  C   UNL     1      35.257 -21.423 -17.162  0.00  0.00    +0.030 C 
ATOM      7  C   UNL     1      32.543 -21.821 -17.862  0.00  0.00    +0.003 C 
ATOM      8  C   UNL     1      34.724 -20.858 -18.324  0.00  0.00    +0.053 C 
ATOM      9  C   UNL     1      33.388 -21.051 -18.670  0.00  0.00    +0.015 C 
ENDROOT
BRANCH   8  11
ATOM     10  O   UNL     1      34.056 -19.227 -20.754  0.00  0.00    -0.252 OA
ATOM     11  N   UNL     1      35.544 -20.084 -19.147  0.00  0.00    -0.268 N 
ATOM     12  N   UNL     1      36.305 -18.695 -20.832  0.00  0.00    -0.285 N 
ATOM     13  C   UNL     1      35.186 -19.331 -20.283  0.00  0.00    +0.305 C 
ATOM     14  H   UNL     1      36.497 -20.062 -18.901  0.00  0.00    +0.156 HD
ATOM     15  H   UNL     1      37.178 -18.826 -20.399  0.00  0.00    +0.151 HD
BRANCH  12  16
ATOM     16  C   UNL     1      36.237 -17.854 -22.005  0.00  0.00    +0.118 C 
BRANCH  16  17
ATOM     17  C   UNL     1      35.655 -16.505 -21.696  0.00  0.00    -0.003 C 
ATOM     18  C   UNL     1      35.407 -16.138 -20.374  0.00  0.00    -0.003 C 
ATOM     19  C   UNL     1      35.363 -15.618 -22.732  0.00  0.00    -0.003 C 
ATOM     20  C   UNL     1      34.867 -14.885 -20.088  0.00  0.00    -0.000 C 
ATOM     21  C   UNL     1      34.823 -14.364 -22.446  0.00  0.00    -0.000 C 
ATOM     22  C   UNL     1      34.575 -13.998 -21.123  0.00  0.00    -0.000 C 
ENDBRANCH  16  17
ENDBRANCH  12  16
ENDBRANCH   8  11
BRANCH   1  23
ATOM     23  C   UNL     1      35.911 -22.901 -14.489  0.00  0.00    +0.097 C 
BRANCH  23  24
ATOM     24  C   UNL     1      35.804 -22.741 -12.966  0.00  0.00    +0.040 C 
BRANCH  24  25
ATOM     25  C   UNL     1      36.090 -24.022 -12.150  0.00  0.00    +0.091 C 
BRANCH  25  26
ATOM     26  N   UNL     1      37.208 -24.821 -12.680  0.00  0.00    -0.246 NA
ATOM     27  N   UNL     1      38.498 -26.506 -13.330  0.00  0.00    -0.251 NA
ATOM     28  C   UNL     1      38.392 -24.341 -13.183  0.00  0.00    +0.125 C 
ATOM     29  C   UNL     1      37.304 -26.128 -12.784  0.00  0.00    +0.201 C 
ATOM     30  C   UNL     1      39.209 -25.369 -13.593  0.00  0.00    +0.124 C 
BRANCH  30  33
ATOM     31  O   UNL     1      41.298 -26.296 -14.198  0.00  0.00    -0.269 OA
ATOM     32  N   UNL     1      40.927 -24.116 -14.751  0.00  0.00    -0.324 N 
ATOM     33  C   UNL     1      40.511 -25.319 -14.167  0.00  0.00    +0.257 C 
ATOM     34  H   UNL     1      41.821 -24.049 -15.156  0.00  0.00    +0.145 HD
ATOM     35  H   UNL     1      40.325 -23.337 -14.756  0.00  0.00    +0.145 HD
ENDBRANCH  30  33
ENDBRANCH  25  26
BRANCH  25  36
ATOM     36  C   UNL     1      36.330 -23.678 -10.670  0.00  0.00    +0.153 C 
BRANCH  36  37
ATOM     37  O   UNL     1      35.580 -24.562  -9.845  0.00  0.00    -0.381 OA
ATOM     38  H   UNL     1      35.862 -25.475 -10.012  0.00  0.00    +0.210 HD
ENDBRANCH  36  37
ENDBRANCH  25  36
ENDBRANCH  24  25
ENDBRANCH  23  24
ENDBRANCH   1  23
TORSDOF 10
ENDMDL
MODEL 8
REMARK VINA RESULT:     -11.2      6.830     14.585
REMARK  Name = 447546
REMARK  10 active torsions:
REMARK  status: ('A' for Active; 'I' for Inactive)
REMARK    1  A    between atoms: N_1  and  C_23
REMARK    2  A    between atoms: C_8  and  N_11
REMARK    3  A    between atoms: N_12  and  C_16
REMARK    4  A    between atoms: C_16  and  C_17
REMARK    5  A    between atoms: C_23  and  C_24
REMARK    6  A    between atoms: C_24  and  C_25
REMARK    7  A    between atoms: C_25  and  N_26
REMARK    8  A    between atoms: C_25  and  C_36
REMARK    9  A    between atoms: C_30  and  C_33
REMARK   10  A    between atoms: C_36  and  O_37
REMARK                            x       y       z     vdW  Elec       q    Type
REMARK                         _______ _______ _______ _____ _____    ______ ____
ROOT
ATOM      1  N   UNL     1      32.684 -10.273 -21.864  0.00  0.00    -0.286 N 
ATOM      2  C   UNL     1      32.840 -11.540 -21.346  0.00  0.00    +0.053 C 
ATOM      3  C   UNL     1      32.055 -11.611 -20.192  0.00  0.00    +0.015 C 
ATOM      4  C   UNL     1      31.830  -9.545 -21.080  0.00  0.00    +0.065 C 
ATOM      5  C   UNL     1      31.424 -10.345 -20.038  0.00  0.00    +0.017 C 
ATOM      6  C   UNL     1      33.607 -12.616 -21.806  0.00  0.00    +0.030 C 
ATOM      7  C   UNL     1      32.035 -12.814 -19.460  0.00  0.00    +0.003 C 
ATOM      8  C   UNL     1      33.570 -13.800 -21.063  0.00  0.00    +0.053 C 
ATOM      9  C   UNL     1      32.796 -13.900 -19.908  0.00  0.00    +0.015 C 
ENDROOT
BRANCH   8  11
ATOM     10  O   UNL     1      35.376 -15.635 -19.521  0.00  0.00    -0.252 OA
ATOM     11  N   UNL     1      34.319 -14.898 -21.488  0.00  0.00    -0.268 N 
ATOM     12  N   UNL     1      35.731 -16.729 -21.526  0.00  0.00    -0.285 N 
ATOM     13  C   UNL     1      35.157 -15.736 -20.725  0.00  0.00    +0.305 C 
ATOM     14  H   UNL     1      34.252 -15.117 -22.446  0.00  0.00    +0.156 HD
ATOM     15  H   UNL     1      35.507 -16.746 -22.484  0.00  0.00    +0.151 HD
BRANCH  12  16
ATOM     16  C   UNL     1      36.636 -17.731 -21.012  0.00  0.00    +0.118 C 
BRANCH  16  17
ATOM     17  C   UNL     1      35.905 -18.853 -20.333  0.00  0.00    -0.003 C 
ATOM     18  C   UNL     1      36.608 -19.780 -19.565  0.00  0.00    -0.003 C 
ATOM     19  C   UNL     1      34.521 -18.967 -20.470  0.00  0.00    -0.003 C 
ATOM     20  C   UNL     1      35.928 -20.822 -18.934  0.00  0.00    -0.000 C 
ATOM     21  C   UNL     1      33.841 -20.009 -19.839  0.00  0.00    -0.000 C 
ATOM     22  C   UNL     1      34.545 -20.936 -19.071  0.00  0.00    -0.000 C 
ENDBRANCH  16  17
ENDBRANCH  12  16
ENDBRANCH   8  11
BRANCH   1  23
ATOM     23  C   UNL     1      33.323  -9.770 -23.061  0.00  0.00    +0.097 C 
BRANCH  23  24
ATOM     24  C   UNL     1      32.681  -8.497 -23.631  0.00  0.00    +0.040 C 
BRANCH  24  25
ATOM     25  C   UNL     1      33.481  -7.196 -23.393  0.00  0.00    +0.091 C 
BRANCH  25  26
ATOM     26  N   UNL     1      32.935  -6.360 -22.310  0.00  0.00    -0.246 NA
ATOM     27  N   UNL     1      31.811  -4.823 -21.168  0.00  0.00    -0.251 NA
ATOM     28  C   UNL     1      33.214  -6.470 -20.970  0.00  0.00    +0.125 C 
ATOM     29  C   UNL     1      32.087  -5.359 -22.394  0.00  0.00    +0.201 C 
ATOM     30  C   UNL     1      32.527  -5.527 -20.241  0.00  0.00    +0.124 C 
BRANCH  30  33
ATOM     31  O   UNL     1      32.361  -6.190 -17.979  0.00  0.00    -0.269 OA
ATOM     32  N   UNL     1      32.740  -3.981 -18.390  0.00  0.00    -0.324 N 
ATOM     33  C   UNL     1      32.525  -5.290 -18.837  0.00  0.00    +0.257 C 
ATOM     34  H   UNL     1      32.744  -3.784 -17.426  0.00  0.00    +0.145 HD
ATOM     35  H   UNL     1      32.888  -3.256 -19.040  0.00  0.00    +0.145 HD
ENDBRANCH  30  33
ENDBRANCH  25  26
BRANCH  25  36
ATOM     36  C   UNL     1      34.963  -7.512 -23.133  0.00  0.00    +0.153 C 
BRANCH  36  37
ATOM     37  O   UNL     1      35.683  -7.475 -24.360  0.00  0.00    -0.381 OA
ATOM     38  H   UNL     1      36.201  -8.290 -24.454  0.00  0.00    +0.210 HD
ENDBRANCH  36  37
ENDBRANCH  25  36
ENDBRANCH  24  25
ENDBRANCH  23  24
ENDBRANCH   1  23
TORSDOF 10
ENDMDL
MODEL 9
REMARK VINA RESULT:     -11.0      6.751     12.433
REMARK  Name = 447546
REMARK  10 active torsions:
REMARK  status: ('A' for Active; 'I' for Inactive)
REMARK    1  A    between atoms: N_1  and  C_23
REMARK    2  A    between atoms: C_8  and  N_11
REMARK    3  A    between atoms: N_12  and  C_16
REMARK    4  A    between atoms: C_16  and  C_17
REMARK    5  A    between atoms: C_23  and  C_24
REMARK    6  A    between atoms: C_24  and  C_25
REMARK    7  A    between atoms: C_25  and  N_26
REMARK    8  A    between atoms: C_25  and  C_36
REMARK    9  A    between atoms: C_30  and  C_33
REMARK   10  A    between atoms: C_36  and  O_37
REMARK                            x       y       z     vdW  Elec       q    Type
REMARK                         _______ _______ _______ _____ _____    ______ ____
ROOT
ATOM      1  N   UNL     1      33.277 -13.074 -21.517  0.00  0.00    -0.286 N 
ATOM      2  C   UNL     1      32.625 -11.947 -21.068  0.00  0.00    +0.053 C 
ATOM      3  C   UNL     1      32.145 -12.234 -19.787  0.00  0.00    +0.015 C 
ATOM      4  C   UNL     1      33.227 -14.059 -20.567  0.00  0.00    +0.065 C 
ATOM      5  C   UNL     1      32.533 -13.568 -19.486  0.00  0.00    +0.017 C 
ATOM      6  C   UNL     1      32.425 -10.710 -21.691  0.00  0.00    +0.030 C 
ATOM      7  C   UNL     1      31.430 -11.238 -19.093  0.00  0.00    +0.003 C 
ATOM      8  C   UNL     1      31.713  -9.738 -20.981  0.00  0.00    +0.053 C 
ATOM      9  C   UNL     1      31.224  -9.995 -19.703  0.00  0.00    +0.015 C 
ENDROOT
BRANCH   8  11
ATOM     10  O   UNL     1      32.851  -7.046 -20.300  0.00  0.00    -0.252 OA
ATOM     11  N   UNL     1      31.493  -8.489 -21.565  0.00  0.00    -0.268 N 
ATOM     12  N   UNL     1      31.575  -6.228 -22.046  0.00  0.00    -0.285 N 
ATOM     13  C   UNL     1      32.053  -7.245 -21.211  0.00  0.00    +0.305 C 
ATOM     14  H   UNL     1      30.866  -8.476 -22.325  0.00  0.00    +0.156 HD
ATOM     15  H   UNL     1      30.937  -6.465 -22.756  0.00  0.00    +0.151 HD
BRANCH  12  16
ATOM     16  C   UNL     1      31.978  -4.847 -21.915  0.00  0.00    +0.118 C 
BRANCH  16  17
ATOM     17  C   UNL     1      32.251  -4.212 -23.248  0.00  0.00    -0.003 C 
ATOM     18  C   UNL     1      32.435  -2.834 -23.340  0.00  0.00    -0.003 C 
ATOM     19  C   UNL     1      32.321  -5.003 -24.395  0.00  0.00    -0.003 C 
ATOM     20  C   UNL     1      32.688  -2.245 -24.579  0.00  0.00    -0.000 C 
ATOM     21  C   UNL     1      32.574  -4.414 -25.634  0.00  0.00    -0.000 C 
ATOM     22  C   UNL     1      32.758  -3.034 -25.725  0.00  0.00    -0.000 C 
ENDBRANCH  16  17
ENDBRANCH  12  16
ENDBRANCH   8  11
BRANCH   1  23
ATOM     23  C   UNL     1      33.926 -13.214 -22.803  0.00  0.00    +0.097 C 
BRANCH  23  24
ATOM     24  C   UNL     1      35.124 -14.173 -22.805  0.00  0.00    +0.040 C 
BRANCH  24  25
ATOM     25  C   UNL     1      34.998 -15.376 -23.767  0.00  0.00    +0.091 C 
BRANCH  25  26
ATOM     26  N   UNL     1      35.011 -16.681 -23.083  0.00  0.00    -0.246 NA
ATOM     27  N   UNL     1      34.767 -18.835 -22.603  0.00  0.00    -0.251 NA
ATOM     28  C   UNL     1      35.481 -16.939 -21.819  0.00  0.00    +0.125 C 
ATOM     29  C   UNL     1      34.589 -17.844 -23.527  0.00  0.00    +0.201 C 
ATOM     30  C   UNL     1      35.340 -18.269 -21.499  0.00  0.00    +0.124 C 
BRANCH  30  33
ATOM     31  O   UNL     1      36.725 -18.709 -19.635  0.00  0.00    -0.269 OA
ATOM     32  N   UNL     1      34.827 -19.954 -19.837  0.00  0.00    -0.324 N 
ATOM     33  C   UNL     1      35.694 -18.958 -20.303  0.00  0.00    +0.257 C 
ATOM     34  H   UNL     1      35.043 -20.448 -19.014  0.00  0.00    +0.145 HD
ATOM     35  H   UNL     1      34.002 -20.160 -20.333  0.00  0.00    +0.145 HD
ENDBRANCH  30  33
ENDBRANCH  25  26
BRANCH  25  36
ATOM     36  C   UNL     1      33.741 -15.241 -24.641  0.00  0.00    +0.153 C 
BRANCH  36  37
ATOM     37  O   UNL     1      34.118 -14.940 -25.980  0.00  0.00    -0.381 OA
ATOM     38  H   UNL     1      34.888 -15.476 -26.226  0.00  0.00    +0.210 HD
ENDBRANCH  36  37
ENDBRANCH  25  36
ENDBRANCH  24  25
ENDBRANCH  23  24
ENDBRANCH   1  23
TORSDOF 10
ENDMDL
