MODEL 1
REMARK VINA RESULT:     -12.2      0.000      0.000
REMARK  Name = 24180720
REMARK  6 active torsions:
REMARK  status: ('A' for Active; 'I' for Inactive)
REMARK    1  A    between atoms: C_2  and  C_6
REMARK    2  A    between atoms: C_2  and  C_21
REMARK    3  A    between atoms: C_10  and  C_14
REMARK    4  A    between atoms: C_22  and  N_27
REMARK    5  A    between atoms: N_27  and  S_29
REMARK    6  A    between atoms: S_29  and  C_32
REMARK                            x       y       z     vdW  Elec       q    Type
REMARK                         _______ _______ _______ _____ _____    ______ ____
ROOT
ATOM      1  O   UNL     1      36.839 -18.718 -19.964  0.00  0.00    -0.286 OA
ATOM      2  C   UNL     1      35.672 -18.623 -20.386  0.00  0.00    +0.201 C 
ENDROOT
BRANCH   2   6
ATOM      3  N   UNL     1      32.609 -20.466 -19.903  0.00  0.00    -0.297 N 
ATOM      4  N   UNL     1      32.901 -21.963 -18.038  0.00  0.00    -0.229 NA
ATOM      5  C   UNL     1      34.603 -20.423 -18.897  0.00  0.00    +0.036 C 
ATOM      6  C   UNL     1      34.606 -19.486 -19.965  0.00  0.00    +0.056 C 
ATOM      7  C   UNL     1      33.344 -21.016 -18.886  0.00  0.00    +0.132 C 
ATOM      8  C   UNL     1      35.526 -20.844 -17.927  0.00  0.00    +0.005 C 
ATOM      9  C   UNL     1      33.366 -19.535 -20.566  0.00  0.00    +0.066 C 
ATOM     10  C   UNL     1      35.118 -21.824 -17.024  0.00  0.00    +0.021 C 
ATOM     11  C   UNL     1      33.830 -22.332 -17.126  0.00  0.00    +0.100 C 
ATOM     12  H   UNL     1      31.680 -20.703 -20.123  0.00  0.00    +0.154 HD
BRANCH  10  14
ATOM     13  N   UNL     1      38.210 -22.230 -14.981  0.00  0.00    -0.242 NA
ATOM     14  C   UNL     1      36.019 -22.302 -16.001  0.00  0.00    +0.021 C 
ATOM     15  C   UNL     1      35.612 -23.259 -15.077  0.00  0.00    +0.003 C 
ATOM     16  C   UNL     1      37.317 -21.824 -15.911  0.00  0.00    +0.099 C 
ATOM     17  C   UNL     1      36.504 -23.701 -14.105  0.00  0.00    +0.021 C 
ATOM     18  C   UNL     1      37.779 -23.160 -14.100  0.00  0.00    +0.099 C 
ENDBRANCH  10  14
ENDBRANCH   2   6
BRANCH   2  21
ATOM     19  F   UNL     1      35.350 -15.917 -19.672  0.00  0.00    -0.203 F 
ATOM     20  F   UNL     1      35.514 -19.126 -23.165  0.00  0.00    -0.204 F 
ATOM     21  C   UNL     1      35.438 -17.543 -21.394  0.00  0.00    +0.095 C 
ATOM     22  C   UNL     1      35.067 -15.214 -21.918  0.00  0.00    +0.092 C 
ATOM     23  C   UNL     1      35.286 -16.221 -20.978  0.00  0.00    +0.160 C 
ATOM     24  C   UNL     1      35.371 -17.859 -22.751  0.00  0.00    +0.145 C 
ATOM     25  C   UNL     1      35.000 -15.530 -23.275  0.00  0.00    +0.020 C 
ATOM     26  C   UNL     1      35.152 -16.852 -23.692  0.00  0.00    +0.031 C 
BRANCH  22  27
ATOM     27  N   UNL     1      34.910 -13.860 -21.494  0.00  0.00    -0.217 N 
ATOM     28  H   UNL     1      35.400 -13.515 -20.712  0.00  0.00    +0.173 HD
BRANCH  27  29
ATOM     29  S   UNL     1      33.843 -12.846 -22.386  0.00  0.00    +0.054 S 
ATOM     30  O   UNL     1      34.580 -11.673 -22.820  0.00  0.00    -0.154 OA
ATOM     31  O   UNL     1      33.066 -13.620 -23.334  0.00  0.00    -0.154 OA
BRANCH  29  32
ATOM     32  C   UNL     1      32.750 -12.318 -21.086  0.00  0.00    +0.172 C 
ATOM     33  C   UNL     1      32.674 -13.342 -19.976  0.00  0.00    +0.029 C 
ENDBRANCH  29  32
ENDBRANCH  27  29
ENDBRANCH  22  27
ENDBRANCH   2  21
TORSDOF 6
ENDMDL
MODEL 2
REMARK VINA RESULT:     -11.9      3.030      4.906
REMARK  Name = 24180720
REMARK  6 active torsions:
REMARK  status: ('A' for Active; 'I' for Inactive)
REMARK    1  A    between atoms: C_2  and  C_6
REMARK    2  A    between atoms: C_2  and  C_21
REMARK    3  A    between atoms: C_10  and  C_14
REMARK    4  A    between atoms: C_22  and  N_27
REMARK    5  A    between atoms: N_27  and  S_29
REMARK    6  A    between atoms: S_29  and  C_32
REMARK                            x       y       z     vdW  Elec       q    Type
REMARK                         _______ _______ _______ _____ _____    ______ ____
ROOT
ATOM      1  O   UNL     1      33.956 -23.544 -18.865  0.00  0.00    -0.286 OA
ATOM      2  C   UNL     1      33.964 -22.548 -18.118  0.00  0.00    +0.201 C 
ENDROOT
BRANCH   2   6
ATOM      3  N   UNL     1      31.523 -22.043 -15.511  0.00  0.00    -0.297 N 
ATOM      4  N   UNL     1      32.459 -22.802 -13.425  0.00  0.00    -0.229 NA
ATOM      5  C   UNL     1      33.599 -22.863 -15.595  0.00  0.00    +0.036 C 
ATOM      6  C   UNL     1      33.208 -22.466 -16.901  0.00  0.00    +0.056 C 
ATOM      7  C   UNL     1      32.526 -22.585 -14.752  0.00  0.00    +0.132 C 
ATOM      8  C   UNL     1      34.745 -23.432 -15.017  0.00  0.00    +0.005 C 
ATOM      9  C   UNL     1      31.926 -21.965 -16.819  0.00  0.00    +0.066 C 
ATOM     10  C   UNL     1      34.728 -23.676 -13.646  0.00  0.00    +0.021 C 
ATOM     11  C   UNL     1      33.590 -23.350 -12.922  0.00  0.00    +0.100 C 
ATOM     12  H   UNL     1      30.647 -21.752 -15.169  0.00  0.00    +0.154 HD
BRANCH  10  14
ATOM     13  N   UNL     1      37.003 -24.845 -10.932  0.00  0.00    -0.242 NA
ATOM     14  C   UNL     1      35.876 -24.259 -12.989  0.00  0.00    +0.021 C 
ATOM     15  C   UNL     1      36.936 -24.780 -13.726  0.00  0.00    +0.003 C 
ATOM     16  C   UNL     1      35.959 -24.315 -11.608  0.00  0.00    +0.099 C 
ATOM     17  C   UNL     1      38.028 -25.332 -13.066  0.00  0.00    +0.021 C 
ATOM     18  C   UNL     1      38.013 -25.340 -11.681  0.00  0.00    +0.099 C 
ENDBRANCH  10  14
ENDBRANCH   2   6
BRANCH   2  21
ATOM     19  F   UNL     1      33.159 -20.765 -20.145  0.00  0.00    -0.203 F 
ATOM     20  F   UNL     1      36.514 -22.000 -17.023  0.00  0.00    -0.204 F 
ATOM     21  C   UNL     1      34.816 -21.407 -18.575  0.00  0.00    +0.095 C 
ATOM     22  C   UNL     1      35.155 -19.494 -20.012  0.00  0.00    +0.092 C 
ATOM     23  C   UNL     1      34.361 -20.558 -19.585  0.00  0.00    +0.160 C 
ATOM     24  C   UNL     1      36.065 -21.191 -17.993  0.00  0.00    +0.145 C 
ATOM     25  C   UNL     1      36.404 -19.279 -19.430  0.00  0.00    +0.020 C 
ATOM     26  C   UNL     1      36.859 -20.127 -18.420  0.00  0.00    +0.031 C 
BRANCH  22  27
ATOM     27  N   UNL     1      34.692 -18.624 -21.045  0.00  0.00    -0.217 N 
ATOM     28  H   UNL     1      33.819 -18.772 -21.477  0.00  0.00    +0.173 HD
BRANCH  27  29
ATOM     29  S   UNL     1      35.700 -17.311 -21.515  0.00  0.00    +0.054 S 
ATOM     30  O   UNL     1      35.423 -16.184 -20.642  0.00  0.00    -0.154 OA
ATOM     31  O   UNL     1      37.063 -17.755 -21.733  0.00  0.00    -0.154 OA
BRANCH  29  32
ATOM     32  C   UNL     1      34.992 -16.922 -23.100  0.00  0.00    +0.172 C 
ATOM     33  C   UNL     1      34.425 -18.153 -23.771  0.00  0.00    +0.029 C 
ENDBRANCH  29  32
ENDBRANCH  27  29
ENDBRANCH  22  27
ENDBRANCH   2  21
TORSDOF 6
ENDMDL
MODEL 3
REMARK VINA RESULT:     -11.7      3.461      9.435
REMARK  Name = 24180720
REMARK  6 active torsions:
REMARK  status: ('A' for Active; 'I' for Inactive)
REMARK    1  A    between atoms: C_2  and  C_6
REMARK    2  A    between atoms: C_2  and  C_21
REMARK    3  A    between atoms: C_10  and  C_14
REMARK    4  A    between atoms: C_22  and  N_27
REMARK    5  A    between atoms: N_27  and  S_29
REMARK    6  A    between atoms: S_29  and  C_32
REMARK                            x       y       z     vdW  Elec       q    Type
REMARK                         _______ _______ _______ _____ _____    ______ ____
ROOT
ATOM      1  O   UNL     1      35.429 -16.316 -20.246  0.00  0.00    -0.286 OA
ATOM      2  C   UNL     1      35.315 -17.301 -20.999  0.00  0.00    +0.201 C 
ENDROOT
BRANCH   2   6
ATOM      3  N   UNL     1      34.650 -17.793 -24.510  0.00  0.00    -0.297 N 
ATOM      4  N   UNL     1      34.060 -15.670 -25.484  0.00  0.00    -0.229 NA
ATOM      5  C   UNL     1      34.631 -16.038 -23.129  0.00  0.00    +0.036 C 
ATOM      6  C   UNL     1      34.997 -17.197 -22.394  0.00  0.00    +0.056 C 
ATOM      7  C   UNL     1      34.422 -16.444 -24.444  0.00  0.00    +0.132 C 
ATOM      8  C   UNL     1      34.450 -14.678 -22.835  0.00  0.00    +0.005 C 
ATOM      9  C   UNL     1      35.000 -18.262 -23.270  0.00  0.00    +0.066 C 
ATOM     10  C   UNL     1      34.075 -13.832 -23.877  0.00  0.00    +0.021 C 
ATOM     11  C   UNL     1      33.900 -14.371 -25.144  0.00  0.00    +0.100 C 
ATOM     12  H   UNL     1      34.574 -18.342 -25.323  0.00  0.00    +0.154 HD
BRANCH  10  14
ATOM     13  N   UNL     1      33.097 -10.662 -22.175  0.00  0.00    -0.242 NA
ATOM     14  C   UNL     1      33.872 -12.421 -23.642  0.00  0.00    +0.021 C 
ATOM     15  C   UNL     1      34.229 -11.476 -24.599  0.00  0.00    +0.003 C 
ATOM     16  C   UNL     1      33.315 -11.966 -22.458  0.00  0.00    +0.099 C 
ATOM     17  C   UNL     1      34.019 -10.125 -24.345  0.00  0.00    +0.021 C 
ATOM     18  C   UNL     1      33.456  -9.773 -23.129  0.00  0.00    +0.099 C 
ENDBRANCH  10  14
ENDBRANCH   2   6
BRANCH   2  21
ATOM     19  F   UNL     1      33.179 -18.861 -20.028  0.00  0.00    -0.203 F 
ATOM     20  F   UNL     1      37.868 -18.464 -20.644  0.00  0.00    -0.204 F 
ATOM     21  C   UNL     1      35.516 -18.634 -20.351  0.00  0.00    +0.095 C 
ATOM     22  C   UNL     1      34.606 -20.601 -19.285  0.00  0.00    +0.092 C 
ATOM     23  C   UNL     1      34.417 -19.359 -19.890  0.00  0.00    +0.160 C 
ATOM     24  C   UNL     1      36.804 -19.151 -20.206  0.00  0.00    +0.145 C 
ATOM     25  C   UNL     1      35.893 -21.119 -19.141  0.00  0.00    +0.020 C 
ATOM     26  C   UNL     1      36.992 -20.394 -19.601  0.00  0.00    +0.031 C 
BRANCH  22  27
ATOM     27  N   UNL     1      33.483 -21.345 -18.812  0.00  0.00    -0.217 N 
ATOM     28  H   UNL     1      32.584 -21.198 -19.187  0.00  0.00    +0.173 HD
BRANCH  27  29
ATOM     29  S   UNL     1      33.742 -22.506 -17.567  0.00  0.00    +0.054 S 
ATOM     30  O   UNL     1      33.729 -23.830 -18.164  0.00  0.00    -0.154 OA
ATOM     31  O   UNL     1      34.829 -22.100 -16.698  0.00  0.00    -0.154 OA
BRANCH  29  32
ATOM     32  C   UNL     1      32.222 -22.337 -16.657  0.00  0.00    +0.172 C 
ATOM     33  C   UNL     1      32.398 -22.727 -15.207  0.00  0.00    +0.029 C 
ENDBRANCH  29  32
ENDBRANCH  27  29
ENDBRANCH  22  27
ENDBRANCH   2  21
TORSDOF 6
ENDMDL
MODEL 4
REMARK VINA RESULT:     -11.6      3.051      5.480
REMARK  Name = 24180720
REMARK  6 active torsions:
REMARK  status: ('A' for Active; 'I' for Inactive)
REMARK    1  A    between atoms: C_2  and  C_6
REMARK    2  A    between atoms: C_2  and  C_21
REMARK    3  A    between atoms: C_10  and  C_14
REMARK    4  A    between atoms: C_22  and  N_27
REMARK    5  A    between atoms: N_27  and  S_29
REMARK    6  A    between atoms: S_29  and  C_32
REMARK                            x       y       z     vdW  Elec       q    Type
REMARK                         _______ _______ _______ _____ _____    ______ ____
ROOT
ATOM      1  O   UNL     1      35.472 -14.024 -19.714  0.00  0.00    -0.286 OA
ATOM      2  C   UNL     1      34.769 -14.074 -20.741  0.00  0.00    +0.201 C 
ENDROOT
BRANCH   2   6
ATOM      3  N   UNL     1      35.313 -15.878 -23.817  0.00  0.00    -0.297 N 
ATOM      4  N   UNL     1      35.308 -18.238 -23.333  0.00  0.00    -0.229 NA
ATOM      5  C   UNL     1      34.991 -16.454 -21.683  0.00  0.00    +0.036 C 
ATOM      6  C   UNL     1      34.964 -15.037 -21.786  0.00  0.00    +0.056 C 
ATOM      7  C   UNL     1      35.210 -16.947 -22.966  0.00  0.00    +0.132 C 
ATOM      8  C   UNL     1      34.855 -17.388 -20.645  0.00  0.00    +0.005 C 
ATOM      9  C   UNL     1      35.165 -14.712 -23.111  0.00  0.00    +0.066 C 
ATOM     10  C   UNL     1      34.949 -18.740 -20.971  0.00  0.00    +0.021 C 
ATOM     11  C   UNL     1      35.169 -19.094 -22.295  0.00  0.00    +0.100 C 
ATOM     12  H   UNL     1      35.468 -15.938 -24.786  0.00  0.00    +0.154 HD
BRANCH  10  14
ATOM     13  N   UNL     1      35.881 -21.297 -18.422  0.00  0.00    -0.242 NA
ATOM     14  C   UNL     1      34.817 -19.753 -19.949  0.00  0.00    +0.021 C 
ATOM     15  C   UNL     1      33.565 -20.169 -19.508  0.00  0.00    +0.003 C 
ATOM     16  C   UNL     1      35.933 -20.344 -19.379  0.00  0.00    +0.099 C 
ATOM     17  C   UNL     1      33.470 -21.148 -18.525  0.00  0.00    +0.021 C 
ATOM     18  C   UNL     1      34.647 -21.675 -18.019  0.00  0.00    +0.099 C 
ENDBRANCH  10  14
ENDBRANCH   2   6
BRANCH   2  21
ATOM     19  F   UNL     1      34.892 -11.906 -22.535  0.00  0.00    -0.203 F 
ATOM     20  F   UNL     1      32.442 -14.132 -19.134  0.00  0.00    -0.204 F 
ATOM     21  C   UNL     1      33.692 -13.041 -20.835  0.00  0.00    +0.095 C 
ATOM     22  C   UNL     1      32.806 -11.026 -21.832  0.00  0.00    +0.092 C 
ATOM     23  C   UNL     1      33.811 -11.990 -21.745  0.00  0.00    +0.160 C 
ATOM     24  C   UNL     1      32.568 -13.128 -20.013  0.00  0.00    +0.145 C 
ATOM     25  C   UNL     1      31.683 -11.113 -21.010  0.00  0.00    +0.020 C 
ATOM     26  C   UNL     1      31.564 -12.164 -20.100  0.00  0.00    +0.031 C 
BRANCH  22  27
ATOM     27  N   UNL     1      32.926  -9.949 -22.761  0.00  0.00    -0.217 N 
ATOM     28  H   UNL     1      33.190 -10.114 -23.696  0.00  0.00    +0.173 HD
BRANCH  27  29
ATOM     29  S   UNL     1      32.596  -8.354 -22.204  0.00  0.00    +0.054 S 
ATOM     30  O   UNL     1      31.267  -7.977 -22.651  0.00  0.00    -0.154 OA
ATOM     31  O   UNL     1      32.977  -8.201 -20.814  0.00  0.00    -0.154 OA
BRANCH  29  32
ATOM     32  C   UNL     1      33.753  -7.431 -23.192  0.00  0.00    +0.172 C 
ATOM     33  C   UNL     1      35.115  -8.089 -23.210  0.00  0.00    +0.029 C 
ENDBRANCH  29  32
ENDBRANCH  27  29
ENDBRANCH  22  27
ENDBRANCH   2  21
TORSDOF 6
ENDMDL
MODEL 5
REMARK VINA RESULT:     -11.4      3.164      5.877
REMARK  Name = 24180720
REMARK  6 active torsions:
REMARK  status: ('A' for Active; 'I' for Inactive)
REMARK    1  A    between atoms: C_2  and  C_6
REMARK    2  A    between atoms: C_2  and  C_21
REMARK    3  A    between atoms: C_10  and  C_14
REMARK    4  A    between atoms: C_22  and  N_27
REMARK    5  A    between atoms: N_27  and  S_29
REMARK    6  A    between atoms: S_29  and  C_32
REMARK                            x       y       z     vdW  Elec       q    Type
REMARK                         _______ _______ _______ _____ _____    ______ ____
ROOT
ATOM      1  O   UNL     1      35.590 -13.473 -20.458  0.00  0.00    -0.286 OA
ATOM      2  C   UNL     1      34.701 -13.582 -21.322  0.00  0.00    +0.201 C 
ENDROOT
BRANCH   2   6
ATOM      3  N   UNL     1      34.629 -15.519 -24.364  0.00  0.00    -0.297 N 
ATOM      4  N   UNL     1      34.897 -17.846 -23.799  0.00  0.00    -0.229 NA
ATOM      5  C   UNL     1      34.856 -15.993 -22.194  0.00  0.00    +0.036 C 
ATOM      6  C   UNL     1      34.710 -14.589 -22.344  0.00  0.00    +0.056 C 
ATOM      7  C   UNL     1      34.801 -16.543 -23.471  0.00  0.00    +0.132 C 
ATOM      8  C   UNL     1      35.031 -16.876 -21.116  0.00  0.00    +0.005 C 
ATOM      9  C   UNL     1      34.572 -14.326 -23.691  0.00  0.00    +0.066 C 
ATOM     10  C   UNL     1      35.136 -18.236 -21.401  0.00  0.00    +0.021 C 
ATOM     11  C   UNL     1      35.064 -18.649 -22.724  0.00  0.00    +0.100 C 
ATOM     12  H   UNL     1      34.557 -15.624 -25.340  0.00  0.00    +0.154 HD
BRANCH  10  14
ATOM     13  N   UNL     1      36.800 -20.295 -18.775  0.00  0.00    -0.242 NA
ATOM     14  C   UNL     1      35.317 -19.198 -20.337  0.00  0.00    +0.021 C 
ATOM     15  C   UNL     1      34.245 -19.940 -19.852  0.00  0.00    +0.003 C 
ATOM     16  C   UNL     1      36.563 -19.412 -19.770  0.00  0.00    +0.099 C 
ATOM     17  C   UNL     1      34.450 -20.860 -18.829  0.00  0.00    +0.021 C 
ATOM     18  C   UNL     1      35.735 -20.998 -18.330  0.00  0.00    +0.099 C 
ENDBRANCH  10  14
ENDBRANCH   2   6
BRANCH   2  21
ATOM     19  F   UNL     1      34.618 -11.290 -22.958  0.00  0.00    -0.203 F 
ATOM     20  F   UNL     1      32.531 -13.811 -19.522  0.00  0.00    -0.204 F 
ATOM     21  C   UNL     1      33.600 -12.572 -21.244  0.00  0.00    +0.095 C 
ATOM     22  C   UNL     1      32.590 -10.515 -22.009  0.00  0.00    +0.092 C 
ATOM     23  C   UNL     1      33.616 -11.457 -22.082  0.00  0.00    +0.160 C 
ATOM     24  C   UNL     1      32.558 -12.745 -20.333  0.00  0.00    +0.145 C 
ATOM     25  C   UNL     1      31.549 -10.688 -21.098  0.00  0.00    +0.020 C 
ATOM     26  C   UNL     1      31.533 -11.803 -20.260  0.00  0.00    +0.031 C 
BRANCH  22  27
ATOM     27  N   UNL     1      32.605  -9.372 -22.865  0.00  0.00    -0.217 N 
ATOM     28  H   UNL     1      32.084  -9.360 -23.701  0.00  0.00    +0.173 HD
BRANCH  27  29
ATOM     29  S   UNL     1      33.556  -8.016 -22.395  0.00  0.00    +0.054 S 
ATOM     30  O   UNL     1      33.288  -7.730 -20.997  0.00  0.00    -0.154 OA
ATOM     31  O   UNL     1      34.918  -8.148 -22.873  0.00  0.00    -0.154 OA
BRANCH  29  32
ATOM     32  C   UNL     1      32.766  -6.735 -23.344  0.00  0.00    +0.172 C 
ATOM     33  C   UNL     1      31.622  -6.105 -22.581  0.00  0.00    +0.029 C 
ENDBRANCH  29  32
ENDBRANCH  27  29
ENDBRANCH  22  27
ENDBRANCH   2  21
TORSDOF 6
ENDMDL
MODEL 6
REMARK VINA RESULT:     -11.4      4.448     11.189
REMARK  Name = 24180720
REMARK  6 active torsions:
REMARK  status: ('A' for Active; 'I' for Inactive)
REMARK    1  A    between atoms: C_2  and  C_6
REMARK    2  A    between atoms: C_2  and  C_21
REMARK    3  A    between atoms: C_10  and  C_14
REMARK    4  A    between atoms: C_22  and  N_27
REMARK    5  A    between atoms: N_27  and  S_29
REMARK    6  A    between atoms: S_29  and  C_32
REMARK                            x       y       z     vdW  Elec       q    Type
REMARK                         _______ _______ _______ _____ _____    ______ ____
ROOT
ATOM      1  O   UNL     1      32.715 -12.239 -22.110  0.00  0.00    -0.286 OA
ATOM      2  C   UNL     1      33.529 -12.271 -23.052  0.00  0.00    +0.201 C 
ENDROOT
BRANCH   2   6
ATOM      3  N   UNL     1      35.021  -9.813 -25.230  0.00  0.00    -0.297 N 
ATOM      4  N   UNL     1      34.743  -7.637 -24.235  0.00  0.00    -0.229 NA
ATOM      5  C   UNL     1      33.955  -9.748 -23.268  0.00  0.00    +0.036 C 
ATOM      6  C   UNL     1      34.031 -11.097 -23.705  0.00  0.00    +0.056 C 
ATOM      7  C   UNL     1      34.582  -8.973 -24.240  0.00  0.00    +0.132 C 
ATOM      8  C   UNL     1      33.426  -9.081 -22.152  0.00  0.00    +0.005 C 
ATOM      9  C   UNL     1      34.692 -11.106 -24.916  0.00  0.00    +0.066 C 
ATOM     10  C   UNL     1      33.565  -7.695 -22.097  0.00  0.00    +0.021 C 
ATOM     11  C   UNL     1      34.214  -7.047 -23.138  0.00  0.00    +0.100 C 
ATOM     12  H   UNL     1      35.500  -9.531 -26.041  0.00  0.00    +0.154 HD
BRANCH  10  14
ATOM     13  N   UNL     1      32.623  -6.816 -18.598  0.00  0.00    -0.242 NA
ATOM     14  C   UNL     1      33.042  -6.949 -20.975  0.00  0.00    +0.021 C 
ATOM     15  C   UNL     1      32.468  -5.694 -21.154  0.00  0.00    +0.003 C 
ATOM     16  C   UNL     1      33.094  -7.460 -19.688  0.00  0.00    +0.099 C 
ATOM     17  C   UNL     1      31.971  -5.001 -20.055  0.00  0.00    +0.021 C 
ATOM     18  C   UNL     1      32.072  -5.600 -18.810  0.00  0.00    +0.099 C 
ENDBRANCH  10  14
ENDBRANCH   2   6
BRANCH   2  21
ATOM     19  F   UNL     1      35.360 -13.833 -21.587  0.00  0.00    -0.203 F 
ATOM     20  F   UNL     1      32.569 -13.502 -25.411  0.00  0.00    -0.204 F 
ATOM     21  C   UNL     1      33.956 -13.638 -23.487  0.00  0.00    +0.095 C 
ATOM     22  C   UNL     1      35.265 -15.635 -23.123  0.00  0.00    +0.092 C 
ATOM     23  C   UNL     1      34.867 -14.362 -22.717  0.00  0.00    +0.160 C 
ATOM     24  C   UNL     1      33.444 -14.187 -24.662  0.00  0.00    +0.145 C 
ATOM     25  C   UNL     1      34.753 -16.185 -24.299  0.00  0.00    +0.020 C 
ATOM     26  C   UNL     1      33.842 -15.461 -25.068  0.00  0.00    +0.031 C 
BRANCH  22  27
ATOM     27  N   UNL     1      36.198 -16.378 -22.338  0.00  0.00    -0.217 N 
ATOM     28  H   UNL     1      37.165 -16.330 -22.521  0.00  0.00    +0.173 HD
BRANCH  27  29
ATOM     29  S   UNL     1      35.587 -17.360 -21.062  0.00  0.00    +0.054 S 
ATOM     30  O   UNL     1      35.303 -16.506 -19.923  0.00  0.00    -0.154 OA
ATOM     31  O   UNL     1      34.589 -18.288 -21.555  0.00  0.00    -0.154 OA
BRANCH  29  32
ATOM     32  C   UNL     1      37.047 -18.292 -20.657  0.00  0.00    +0.172 C 
ATOM     33  C   UNL     1      36.712 -19.520 -19.840  0.00  0.00    +0.029 C 
ENDBRANCH  29  32
ENDBRANCH  27  29
ENDBRANCH  22  27
ENDBRANCH   2  21
TORSDOF 6
ENDMDL
MODEL 7
REMARK VINA RESULT:     -11.3      4.087     10.566
REMARK  Name = 24180720
REMARK  6 active torsions:
REMARK  status: ('A' for Active; 'I' for Inactive)
REMARK    1  A    between atoms: C_2  and  C_6
REMARK    2  A    between atoms: C_2  and  C_21
REMARK    3  A    between atoms: C_10  and  C_14
REMARK    4  A    between atoms: C_22  and  N_27
REMARK    5  A    between atoms: N_27  and  S_29
REMARK    6  A    between atoms: S_29  and  C_32
REMARK                            x       y       z     vdW  Elec       q    Type
REMARK                         _______ _______ _______ _____ _____    ______ ____
ROOT
ATOM      1  O   UNL     1      34.186 -11.516 -23.370  0.00  0.00    -0.286 OA
ATOM      2  C   UNL     1      33.771 -12.480 -22.700  0.00  0.00    +0.201 C 
ENDROOT
BRANCH   2   6
ATOM      3  N   UNL     1      31.974 -12.876 -19.598  0.00  0.00    -0.297 N 
ATOM      4  N   UNL     1      31.270 -10.702 -18.835  0.00  0.00    -0.229 NA
ATOM      5  C   UNL     1      32.540 -11.141 -20.886  0.00  0.00    +0.036 C 
ATOM      6  C   UNL     1      33.029 -12.335 -21.481  0.00  0.00    +0.056 C 
ATOM      7  C   UNL     1      31.886 -11.514 -19.715  0.00  0.00    +0.132 C 
ATOM      8  C   UNL     1      32.572  -9.774 -21.203  0.00  0.00    +0.005 C 
ATOM      9  C   UNL     1      32.666 -13.386 -20.666  0.00  0.00    +0.066 C 
ATOM     10  C   UNL     1      31.949  -8.889 -20.325  0.00  0.00    +0.021 C 
ATOM     11  C   UNL     1      31.332  -9.397 -19.190  0.00  0.00    +0.100 C 
ATOM     12  H   UNL     1      31.596 -13.407 -18.861  0.00  0.00    +0.154 HD
BRANCH  10  14
ATOM     13  N   UNL     1      31.543  -5.662 -22.146  0.00  0.00    -0.242 NA
ATOM     14  C   UNL     1      31.945  -7.469 -20.592  0.00  0.00    +0.021 C 
ATOM     15  C   UNL     1      32.324  -6.555 -19.615  0.00  0.00    +0.003 C 
ATOM     16  C   UNL     1      31.567  -6.975 -21.830  0.00  0.00    +0.099 C 
ATOM     17  C   UNL     1      32.313  -5.194 -19.903  0.00  0.00    +0.021 C 
ATOM     18  C   UNL     1      31.918  -4.803 -21.172  0.00  0.00    +0.099 C 
ENDBRANCH  10  14
ENDBRANCH   2   6
BRANCH   2  21
ATOM     19  F   UNL     1      35.535 -14.247 -21.395  0.00  0.00    -0.203 F 
ATOM     20  F   UNL     1      32.695 -13.477 -25.118  0.00  0.00    -0.204 F 
ATOM     21  C   UNL     1      34.108 -13.832 -23.242  0.00  0.00    +0.095 C 
ATOM     22  C   UNL     1      35.304 -15.923 -23.054  0.00  0.00    +0.092 C 
ATOM     23  C   UNL     1      34.989 -14.662 -22.548  0.00  0.00    +0.160 C 
ATOM     24  C   UNL     1      33.542 -14.264 -24.441  0.00  0.00    +0.145 C 
ATOM     25  C   UNL     1      34.738 -16.355 -24.253  0.00  0.00    +0.020 C 
ATOM     26  C   UNL     1      33.857 -15.525 -24.947  0.00  0.00    +0.031 C 
BRANCH  22  27
ATOM     27  N   UNL     1      36.206 -16.774 -22.346  0.00  0.00    -0.217 N 
ATOM     28  H   UNL     1      37.158 -16.820 -22.595  0.00  0.00    +0.173 HD
BRANCH  27  29
ATOM     29  S   UNL     1      35.586 -17.715 -21.045  0.00  0.00    +0.054 S 
ATOM     30  O   UNL     1      35.319 -16.831 -19.925  0.00  0.00    -0.154 OA
ATOM     31  O   UNL     1      34.571 -18.639 -21.512  0.00  0.00    -0.154 OA
BRANCH  29  32
ATOM     32  C   UNL     1      37.032 -18.661 -20.623  0.00  0.00    +0.172 C 
ATOM     33  C   UNL     1      36.692 -19.814 -19.706  0.00  0.00    +0.029 C 
ENDBRANCH  29  32
ENDBRANCH  27  29
ENDBRANCH  22  27
ENDBRANCH   2  21
TORSDOF 6
ENDMDL
MODEL 8
REMARK VINA RESULT:     -10.9      3.991      7.119
REMARK  Name = 24180720
REMARK  6 active torsions:
REMARK  status: ('A' for Active; 'I' for Inactive)
REMARK    1  A    between atoms: C_2  and  C_6
REMARK    2  A    between atoms: C_2  and  C_21
REMARK    3  A    between atoms: C_10  and  C_14
REMARK    4  A    between atoms: C_22  and  N_27
REMARK    5  A    between atoms: N_27  and  S_29
REMARK    6  A    between atoms: S_29  and  C_32
REMARK                            x       y       z     vdW  Elec       q    Type
REMARK                         _______ _______ _______ _____ _____    ______ ____
ROOT
ATOM      1  O   UNL     1      35.360 -12.305 -21.960  0.00  0.00    -0.286 OA
ATOM      2  C   UNL     1      34.274 -12.474 -22.546  0.00  0.00    +0.201 C 
ENDROOT
BRANCH   2   6
ATOM      3  N   UNL     1      33.446 -14.512 -25.405  0.00  0.00    -0.297 N 
ATOM      4  N   UNL     1      34.017 -16.799 -24.909  0.00  0.00    -0.229 NA
ATOM      5  C   UNL     1      34.325 -14.900 -23.389  0.00  0.00    +0.036 C 
ATOM      6  C   UNL     1      34.051 -13.512 -23.512  0.00  0.00    +0.056 C 
ATOM      7  C   UNL     1      33.936 -15.495 -24.587  0.00  0.00    +0.132 C 
ATOM      8  C   UNL     1      34.863 -15.735 -22.397  0.00  0.00    +0.005 C 
ATOM      9  C   UNL     1      33.510 -13.303 -24.763  0.00  0.00    +0.066 C 
ATOM     10  C   UNL     1      34.968 -17.096 -22.680  0.00  0.00    +0.021 C 
ATOM     11  C   UNL     1      34.541 -17.556 -23.918  0.00  0.00    +0.100 C 
ATOM     12  H   UNL     1      33.099 -14.653 -26.315  0.00  0.00    +0.154 HD
BRANCH  10  14
ATOM     13  N   UNL     1      35.175 -19.887 -20.216  0.00  0.00    -0.242 NA
ATOM     14  C   UNL     1      35.513 -18.009 -21.702  0.00  0.00    +0.021 C 
ATOM     15  C   UNL     1      36.841 -17.918 -21.296  0.00  0.00    +0.003 C 
ATOM     16  C   UNL     1      34.730 -19.002 -21.136  0.00  0.00    +0.099 C 
ATOM     17  C   UNL     1      37.335 -18.810 -20.350  0.00  0.00    +0.021 C 
ATOM     18  C   UNL     1      36.470 -19.767 -19.846  0.00  0.00    +0.099 C 
ENDBRANCH  10  14
ENDBRANCH   2   6
BRANCH   2  21
ATOM     19  F   UNL     1      34.090  -9.910 -23.699  0.00  0.00    -0.203 F 
ATOM     20  F   UNL     1      32.246 -13.059 -20.664  0.00  0.00    -0.204 F 
ATOM     21  C   UNL     1      33.192 -11.505 -22.192  0.00  0.00    +0.095 C 
ATOM     22  C   UNL     1      32.146  -9.344 -22.466  0.00  0.00    +0.092 C 
ATOM     23  C   UNL     1      33.155 -10.249 -22.798  0.00  0.00    +0.160 C 
ATOM     24  C   UNL     1      32.221 -11.856 -21.255  0.00  0.00    +0.145 C 
ATOM     25  C   UNL     1      31.175  -9.696 -21.529  0.00  0.00    +0.020 C 
ATOM     26  C   UNL     1      31.212 -10.952 -20.923  0.00  0.00    +0.031 C 
BRANCH  22  27
ATOM     27  N   UNL     1      32.106  -8.058 -23.084  0.00  0.00    -0.217 N 
ATOM     28  H   UNL     1      31.564  -7.901 -23.892  0.00  0.00    +0.173 HD
BRANCH  27  29
ATOM     29  S   UNL     1      33.031  -6.788 -22.380  0.00  0.00    +0.054 S 
ATOM     30  O   UNL     1      34.350  -7.304 -22.059  0.00  0.00    -0.154 OA
ATOM     31  O   UNL     1      32.885  -5.560 -23.136  0.00  0.00    -0.154 OA
BRANCH  29  32
ATOM     32  C   UNL     1      32.166  -6.587 -20.839  0.00  0.00    +0.172 C 
ATOM     33  C   UNL     1      33.032  -6.979 -19.662  0.00  0.00    +0.029 C 
ENDBRANCH  29  32
ENDBRANCH  27  29
ENDBRANCH  22  27
ENDBRANCH   2  21
TORSDOF 6
ENDMDL
MODEL 9
REMARK VINA RESULT:     -10.9      4.326      7.227
REMARK  Name = 24180720
REMARK  6 active torsions:
REMARK  status: ('A' for Active; 'I' for Inactive)
REMARK    1  A    between atoms: C_2  and  C_6
REMARK    2  A    between atoms: C_2  and  C_21
REMARK    3  A    between atoms: C_10  and  C_14
REMARK    4  A    between atoms: C_22  and  N_27
REMARK    5  A    between atoms: N_27  and  S_29
REMARK    6  A    between atoms: S_29  and  C_32
REMARK                            x       y       z     vdW  Elec       q    Type
REMARK                         _______ _______ _______ _____ _____    ______ ____
ROOT
ATOM      1  O   UNL     1      34.895 -12.613 -21.700  0.00  0.00    -0.286 OA
ATOM      2  C   UNL     1      34.308 -12.464 -22.787  0.00  0.00    +0.201 C 
ENDROOT
BRANCH   2   6
ATOM      3  N   UNL     1      33.348 -14.618 -25.516  0.00  0.00    -0.297 N 
ATOM      4  N   UNL     1      33.938 -16.884 -24.949  0.00  0.00    -0.229 NA
ATOM      5  C   UNL     1      34.318 -14.923 -23.527  0.00  0.00    +0.036 C 
ATOM      6  C   UNL     1      34.039 -13.541 -23.696  0.00  0.00    +0.056 C 
ATOM      7  C   UNL     1      33.874 -15.567 -24.679  0.00  0.00    +0.132 C 
ATOM      8  C   UNL     1      34.899 -15.717 -22.526  0.00  0.00    +0.005 C 
ATOM      9  C   UNL     1      33.442 -13.383 -24.929  0.00  0.00    +0.066 C 
ATOM     10  C   UNL     1      34.990 -17.088 -22.755  0.00  0.00    +0.021 C 
ATOM     11  C   UNL     1      34.506 -17.600 -23.951  0.00  0.00    +0.100 C 
ATOM     12  H   UNL     1      32.960 -14.797 -26.402  0.00  0.00    +0.154 HD
BRANCH  10  14
ATOM     13  N   UNL     1      37.525 -18.637 -20.502  0.00  0.00    -0.242 NA
ATOM     14  C   UNL     1      35.577 -17.961 -21.764  0.00  0.00    +0.021 C 
ATOM     15  C   UNL     1      34.818 -18.939 -21.130  0.00  0.00    +0.003 C 
ATOM     16  C   UNL     1      36.914 -17.853 -21.418  0.00  0.00    +0.099 C 
ATOM     17  C   UNL     1      35.412 -19.766 -20.182  0.00  0.00    +0.021 C 
ATOM     18  C   UNL     1      36.756 -19.576 -19.907  0.00  0.00    +0.099 C 
ENDBRANCH  10  14
ENDBRANCH   2   6
BRANCH   2  21
ATOM     19  F   UNL     1      32.558 -10.973 -21.158  0.00  0.00    -0.203 F 
ATOM     20  F   UNL     1      35.224 -11.089 -25.083  0.00  0.00    -0.204 F 
ATOM     21  C   UNL     1      33.899 -11.062 -23.110  0.00  0.00    +0.095 C 
ATOM     22  C   UNL     1      32.647  -9.068 -22.565  0.00  0.00    +0.092 C 
ATOM     23  C   UNL     1      33.029 -10.375 -22.263  0.00  0.00    +0.160 C 
ATOM     24  C   UNL     1      34.388 -10.441 -24.260  0.00  0.00    +0.145 C 
ATOM     25  C   UNL     1      33.136  -8.447 -23.715  0.00  0.00    +0.020 C 
ATOM     26  C   UNL     1      34.006  -9.133 -24.562  0.00  0.00    +0.031 C 
BRANCH  22  27
ATOM     27  N   UNL     1      31.756  -8.364 -21.700  0.00  0.00    -0.217 N 
ATOM     28  H   UNL     1      30.784  -8.522 -21.738  0.00  0.00    +0.173 HD
BRANCH  27  29
ATOM     29  S   UNL     1      32.426  -7.233 -20.589  0.00  0.00    +0.054 S 
ATOM     30  O   UNL     1      31.999  -7.597 -19.250  0.00  0.00    -0.154 OA
ATOM     31  O   UNL     1      33.826  -6.991 -20.876  0.00  0.00    -0.154 OA
BRANCH  29  32
ATOM     32  C   UNL     1      31.516  -5.772 -21.040  0.00  0.00    +0.172 C 
ATOM     33  C   UNL     1      32.122  -4.530 -20.428  0.00  0.00    +0.029 C 
ENDBRANCH  29  32
ENDBRANCH  27  29
ENDBRANCH  22  27
ENDBRANCH   2  21
TORSDOF 6
ENDMDL
