MODEL 1
REMARK VINA RESULT:     -11.6      0.000      0.000
REMARK  Name = 46937030
REMARK  7 active torsions:
REMARK  status: ('A' for Active; 'I' for Inactive)
REMARK    1  A    between atoms: C_3  and  C_10
REMARK    2  A    between atoms: C_7  and  C_25
REMARK    3  A    between atoms: N_9  and  C_12
REMARK    4  A    between atoms: C_12  and  C_13
REMARK    5  A    between atoms: C_18  and  C_21
REMARK    6  A    between atoms: C_25  and  N_26
REMARK    7  A    between atoms: N_26  and  C_29
REMARK                            x       y       z     vdW  Elec       q    Type
REMARK                         _______ _______ _______ _____ _____    ______ ____
ROOT
ATOM      1  O   UNL     1      35.590 -24.674 -11.379  0.00  0.00    -0.277 OA
ATOM      2  N   UNL     1      36.295 -23.470 -13.221  0.00  0.00    -0.275 N 
ATOM      3  C   UNL     1      36.152 -22.420 -14.227  0.00  0.00    +0.152 C 
ATOM      4  C   UNL     1      37.584 -22.077 -14.627  0.00  0.00    +0.031 C 
ATOM      5  C   UNL     1      37.659 -23.980 -13.186  0.00  0.00    +0.094 C 
ATOM      6  C   UNL     1      38.335 -23.389 -14.413  0.00  0.00    +0.024 C 
ATOM      7  C   UNL     1      35.354 -23.875 -12.287  0.00  0.00    +0.204 C 
ENDROOT
BRANCH   3  10
ATOM      8  O   UNL     1      35.171 -24.196 -15.486  0.00  0.00    -0.273 OA
ATOM      9  N   UNL     1      35.036 -22.022 -16.308  0.00  0.00    -0.299 N 
ATOM     10  C   UNL     1      35.399 -22.993 -15.390  0.00  0.00    +0.241 C 
ATOM     11  H   UNL     1      35.276 -21.085 -16.120  0.00  0.00    +0.150 HD
BRANCH   9  12
ATOM     12  C   UNL     1      34.322 -22.315 -17.529  0.00  0.00    +0.116 C 
BRANCH  12  13
ATOM     13  C   UNL     1      34.539 -21.260 -18.575  0.00  0.00    -0.003 C 
ATOM     14  C   UNL     1      33.444 -20.662 -19.200  0.00  0.00    -0.003 C 
ATOM     15  C   UNL     1      35.835 -20.878 -18.922  0.00  0.00    -0.003 C 
ATOM     16  C   UNL     1      33.646 -19.682 -20.172  0.00  0.00    +0.002 C 
ATOM     17  C   UNL     1      36.037 -19.898 -19.894  0.00  0.00    +0.002 C 
ATOM     18  C   UNL     1      34.942 -19.299 -20.518  0.00  0.00    +0.031 C 
BRANCH  18  21
ATOM     19  N   UNL     1      35.673 -17.027 -21.201  0.00  0.00    -0.343 N 
ATOM     20  N   UNL     1      34.844 -18.524 -22.791  0.00  0.00    -0.285 NA
ATOM     21  C   UNL     1      35.153 -18.277 -21.530  0.00  0.00    +0.117 C 
ATOM     22  H   UNL     1      35.808 -16.350 -21.903  0.00  0.00    +0.144 HD
ATOM     23  H   UNL     1      35.907 -16.821 -20.267  0.00  0.00    +0.144 HD
ATOM     24  H   UNL     1      34.985 -17.833 -23.478  0.00  0.00    +0.188 HD
ENDBRANCH  18  21
ENDBRANCH  12  13
ENDBRANCH   9  12
ENDBRANCH   3  10
BRANCH   7  25
ATOM     25  C   UNL     1      33.978 -23.274 -12.429  0.00  0.00    +0.006 C 
BRANCH  25  26
ATOM     26  N   UNL     1      33.156 -24.254 -13.121  0.00  0.00    +0.391 N 
ATOM     27  H   UNL     1      33.432 -24.290 -14.103  0.00  0.00    -0.084 HD
ATOM     28  H   UNL     1      33.292 -25.165 -12.684  0.00  0.00    -0.084 HD
BRANCH  26  29
ATOM     29  C   UNL     1      31.738 -23.892 -13.033  0.00  0.00    -0.061 C 
ATOM     30  C   UNL     1      31.548 -22.398 -13.328  0.00  0.00    -0.021 C 
ATOM     31  C   UNL     1      30.920 -24.876 -13.883  0.00  0.00    -0.021 C 
ATOM     32  C   UNL     1      29.446 -24.506 -14.055  0.00  0.00    -0.002 C 
ATOM     33  C   UNL     1      31.936 -21.897 -14.720  0.00  0.00    -0.002 C 
ATOM     34  C   UNL     1      29.096 -23.914 -15.422  0.00  0.00    -0.000 C 
ATOM     35  C   UNL     1      31.159 -22.452 -15.913  0.00  0.00    -0.000 C 
ATOM     36  C   UNL     1      29.642 -22.517 -15.729  0.00  0.00    -0.000 C 
ENDBRANCH  26  29
ENDBRANCH  25  26
ENDBRANCH   7  25
TORSDOF 7
ENDMDL
MODEL 2
REMARK VINA RESULT:     -11.1      2.162      6.529
REMARK  Name = 46937030
REMARK  7 active torsions:
REMARK  status: ('A' for Active; 'I' for Inactive)
REMARK    1  A    between atoms: C_3  and  C_10
REMARK    2  A    between atoms: C_7  and  C_25
REMARK    3  A    between atoms: N_9  and  C_12
REMARK    4  A    between atoms: C_12  and  C_13
REMARK    5  A    between atoms: C_18  and  C_21
REMARK    6  A    between atoms: C_25  and  N_26
REMARK    7  A    between atoms: N_26  and  C_29
REMARK                            x       y       z     vdW  Elec       q    Type
REMARK                         _______ _______ _______ _____ _____    ______ ____
ROOT
ATOM      1  O   UNL     1      38.351 -21.684 -15.678  0.00  0.00    -0.277 OA
ATOM      2  N   UNL     1      37.440 -23.514 -14.601  0.00  0.00    -0.275 N 
ATOM      3  C   UNL     1      36.400 -24.519 -14.385  0.00  0.00    +0.152 C 
ATOM      4  C   UNL     1      37.138 -25.708 -13.778  0.00  0.00    +0.031 C 
ATOM      5  C   UNL     1      38.676 -23.887 -13.925  0.00  0.00    +0.094 C 
ATOM      6  C   UNL     1      38.302 -25.060 -13.033  0.00  0.00    +0.024 C 
ATOM      7  C   UNL     1      37.386 -22.414 -15.442  0.00  0.00    +0.204 C 
ENDROOT
BRANCH   3  10
ATOM      8  O   UNL     1      35.761 -23.313 -12.426  0.00  0.00    -0.273 OA
ATOM      9  N   UNL     1      34.105 -24.270 -13.752  0.00  0.00    -0.299 N 
ATOM     10  C   UNL     1      35.409 -23.957 -13.411  0.00  0.00    +0.241 C 
ATOM     11  H   UNL     1      33.946 -24.794 -14.571  0.00  0.00    +0.150 HD
BRANCH   9  12
ATOM     12  C   UNL     1      32.962 -23.866 -12.965  0.00  0.00    +0.116 C 
BRANCH  12  13
ATOM     13  C   UNL     1      31.753 -23.612 -13.818  0.00  0.00    -0.003 C 
ATOM     14  C   UNL     1      30.575 -24.323 -13.588  0.00  0.00    -0.003 C 
ATOM     15  C   UNL     1      31.808 -22.665 -14.841  0.00  0.00    -0.003 C 
ATOM     16  C   UNL     1      29.452 -24.088 -14.380  0.00  0.00    +0.002 C 
ATOM     17  C   UNL     1      30.684 -22.430 -15.634  0.00  0.00    +0.002 C 
ATOM     18  C   UNL     1      29.506 -23.140 -15.403  0.00  0.00    +0.031 C 
BRANCH  18  21
ATOM     19  N   UNL     1      27.712 -21.647 -16.250  0.00  0.00    -0.343 N 
ATOM     20  N   UNL     1      27.839 -23.865 -16.976  0.00  0.00    -0.285 NA
ATOM     21  C   UNL     1      28.335 -22.894 -16.229  0.00  0.00    +0.117 C 
ATOM     22  H   UNL     1      26.920 -21.503 -16.817  0.00  0.00    +0.144 HD
ATOM     23  H   UNL     1      28.064 -20.912 -15.699  0.00  0.00    +0.144 HD
ATOM     24  H   UNL     1      27.046 -23.700 -17.535  0.00  0.00    +0.188 HD
ENDBRANCH  18  21
ENDBRANCH  12  13
ENDBRANCH   9  12
ENDBRANCH   3  10
BRANCH   7  25
ATOM     25  C   UNL     1      36.050 -22.135 -16.083  0.00  0.00    +0.006 C 
BRANCH  25  26
ATOM     26  N   UNL     1      36.171 -20.866 -16.782  0.00  0.00    +0.391 N 
ATOM     27  H   UNL     1      35.388 -20.265 -16.524  0.00  0.00    -0.084 HD
ATOM     28  H   UNL     1      37.053 -20.428 -16.518  0.00  0.00    -0.084 HD
BRANCH  26  29
ATOM     29  C   UNL     1      36.161 -21.074 -18.233  0.00  0.00    -0.061 C 
ATOM     30  C   UNL     1      34.907 -21.852 -18.654  0.00  0.00    -0.021 C 
ATOM     31  C   UNL     1      36.406 -19.726 -18.929  0.00  0.00    -0.021 C 
ATOM     32  C   UNL     1      36.220 -19.744 -20.448  0.00  0.00    -0.002 C 
ATOM     33  C   UNL     1      33.549 -21.198 -18.399  0.00  0.00    -0.002 C 
ATOM     34  C   UNL     1      34.912 -19.115 -20.935  0.00  0.00    -0.000 C 
ATOM     35  C   UNL     1      33.245 -19.892 -19.131  0.00  0.00    -0.000 C 
ATOM     36  C   UNL     1      33.621 -19.873 -20.614  0.00  0.00    -0.000 C 
ENDBRANCH  26  29
ENDBRANCH  25  26
ENDBRANCH   7  25
TORSDOF 7
ENDMDL
MODEL 3
REMARK VINA RESULT:     -10.6      2.031      5.105
REMARK  Name = 46937030
REMARK  7 active torsions:
REMARK  status: ('A' for Active; 'I' for Inactive)
REMARK    1  A    between atoms: C_3  and  C_10
REMARK    2  A    between atoms: C_7  and  C_25
REMARK    3  A    between atoms: N_9  and  C_12
REMARK    4  A    between atoms: C_12  and  C_13
REMARK    5  A    between atoms: C_18  and  C_21
REMARK    6  A    between atoms: C_25  and  N_26
REMARK    7  A    between atoms: N_26  and  C_29
REMARK                            x       y       z     vdW  Elec       q    Type
REMARK                         _______ _______ _______ _____ _____    ______ ____
ROOT
ATOM      1  O   UNL     1      33.274 -23.096 -12.699  0.00  0.00    -0.277 OA
ATOM      2  N   UNL     1      33.720 -22.858 -14.953  0.00  0.00    -0.275 N 
ATOM      3  C   UNL     1      34.513 -23.090 -16.159  0.00  0.00    +0.152 C 
ATOM      4  C   UNL     1      33.510 -22.977 -17.303  0.00  0.00    +0.031 C 
ATOM      5  C   UNL     1      32.398 -22.344 -15.287  0.00  0.00    +0.094 C 
ATOM      6  C   UNL     1      32.468 -21.999 -16.766  0.00  0.00    +0.024 C 
ATOM      7  C   UNL     1      34.050 -23.199 -13.651  0.00  0.00    +0.204 C 
ENDROOT
BRANCH   3  10
ATOM      8  O   UNL     1      36.047 -21.503 -15.248  0.00  0.00    -0.273 OA
ATOM      9  N   UNL     1      35.819 -21.653 -17.560  0.00  0.00    -0.299 N 
ATOM     10  C   UNL     1      35.544 -22.006 -16.250  0.00  0.00    +0.241 C 
ATOM     11  H   UNL     1      35.351 -22.130 -18.282  0.00  0.00    +0.150 HD
BRANCH   9  12
ATOM     12  C   UNL     1      36.760 -20.616 -17.919  0.00  0.00    +0.116 C 
BRANCH  12  13
ATOM     13  C   UNL     1      36.336 -19.876 -19.155  0.00  0.00    -0.003 C 
ATOM     14  C   UNL     1      35.035 -20.016 -19.638  0.00  0.00    -0.003 C 
ATOM     15  C   UNL     1      37.242 -19.050 -19.819  0.00  0.00    -0.003 C 
ATOM     16  C   UNL     1      34.640 -19.328 -20.786  0.00  0.00    +0.002 C 
ATOM     17  C   UNL     1      36.847 -18.362 -20.967  0.00  0.00    +0.002 C 
ATOM     18  C   UNL     1      35.546 -18.501 -21.450  0.00  0.00    +0.031 C 
BRANCH  18  21
ATOM     19  N   UNL     1      35.621 -16.509 -22.930  0.00  0.00    -0.343 N 
ATOM     20  N   UNL     1      34.280 -18.340 -23.486  0.00  0.00    -0.285 NA
ATOM     21  C   UNL     1      35.135 -17.784 -22.646  0.00  0.00    +0.117 C 
ATOM     22  H   UNL     1      35.329 -16.042 -23.746  0.00  0.00    +0.144 HD
ATOM     23  H   UNL     1      36.256 -16.076 -22.315  0.00  0.00    +0.144 HD
ATOM     24  H   UNL     1      34.000 -17.855 -24.296  0.00  0.00    +0.188 HD
ENDBRANCH  18  21
ENDBRANCH  12  13
ENDBRANCH   9  12
ENDBRANCH   3  10
BRANCH   7  25
ATOM     25  C   UNL     1      35.448 -23.720 -13.436  0.00  0.00    +0.006 C 
BRANCH  25  26
ATOM     26  N   UNL     1      35.447 -24.429 -12.167  0.00  0.00    +0.391 N 
ATOM     27  H   UNL     1      34.851 -23.931 -11.505  0.00  0.00    -0.084 HD
ATOM     28  H   UNL     1      35.093 -25.374 -12.317  0.00  0.00    -0.084 HD
BRANCH  26  29
ATOM     29  C   UNL     1      36.805 -24.514 -11.622  0.00  0.00    -0.061 C 
ATOM     30  C   UNL     1      37.373 -25.926 -11.818  0.00  0.00    -0.021 C 
ATOM     31  C   UNL     1      37.638 -23.349 -12.180  0.00  0.00    -0.021 C 
ATOM     32  C   UNL     1      39.133 -23.418 -11.864  0.00  0.00    -0.002 C 
ATOM     33  C   UNL     1      37.555 -26.423 -13.253  0.00  0.00    -0.002 C 
ATOM     34  C   UNL     1      40.009 -23.863 -13.038  0.00  0.00    -0.000 C 
ATOM     35  C   UNL     1      38.543 -25.670 -14.142  0.00  0.00    -0.000 C 
ATOM     36  C   UNL     1      39.879 -25.322 -13.482  0.00  0.00    -0.000 C 
ENDBRANCH  26  29
ENDBRANCH  25  26
ENDBRANCH   7  25
TORSDOF 7
ENDMDL
MODEL 4
REMARK VINA RESULT:     -10.1      2.524      6.813
REMARK  Name = 46937030
REMARK  7 active torsions:
REMARK  status: ('A' for Active; 'I' for Inactive)
REMARK    1  A    between atoms: C_3  and  C_10
REMARK    2  A    between atoms: C_7  and  C_25
REMARK    3  A    between atoms: N_9  and  C_12
REMARK    4  A    between atoms: C_12  and  C_13
REMARK    5  A    between atoms: C_18  and  C_21
REMARK    6  A    between atoms: C_25  and  N_26
REMARK    7  A    between atoms: N_26  and  C_29
REMARK                            x       y       z     vdW  Elec       q    Type
REMARK                         _______ _______ _______ _____ _____    ______ ____
ROOT
ATOM      1  O   UNL     1      32.337 -20.630 -18.420  0.00  0.00    -0.277 OA
ATOM      2  N   UNL     1      34.497 -20.516 -19.233  0.00  0.00    -0.275 N 
ATOM      3  C   UNL     1      35.863 -21.015 -19.387  0.00  0.00    +0.152 C 
ATOM      4  C   UNL     1      36.329 -20.444 -20.722  0.00  0.00    +0.031 C 
ATOM      5  C   UNL     1      34.205 -19.478 -20.213  0.00  0.00    +0.094 C 
ATOM      6  C   UNL     1      35.546 -19.138 -20.842  0.00  0.00    +0.024 C 
ATOM      7  C   UNL     1      33.508 -21.014 -18.399  0.00  0.00    +0.204 C 
ENDROOT
BRANCH   3  10
ATOM      8  O   UNL     1      37.221 -19.363 -18.325  0.00  0.00    -0.273 OA
ATOM      9  N   UNL     1      36.768 -21.348 -17.196  0.00  0.00    -0.299 N 
ATOM     10  C   UNL     1      36.685 -20.466 -18.260  0.00  0.00    +0.241 C 
ATOM     11  H   UNL     1      36.292 -22.207 -17.260  0.00  0.00    +0.150 HD
BRANCH   9  12
ATOM     12  C   UNL     1      37.520 -21.068 -15.994  0.00  0.00    +0.116 C 
BRANCH  12  13
ATOM     13  C   UNL     1      37.399 -22.174 -14.985  0.00  0.00    -0.003 C 
ATOM     14  C   UNL     1      38.396 -23.146 -14.894  0.00  0.00    -0.003 C 
ATOM     15  C   UNL     1      36.291 -22.230 -14.141  0.00  0.00    -0.003 C 
ATOM     16  C   UNL     1      38.284 -24.174 -13.957  0.00  0.00    +0.002 C 
ATOM     17  C   UNL     1      36.179 -23.258 -13.204  0.00  0.00    +0.002 C 
ATOM     18  C   UNL     1      37.176 -24.229 -13.112  0.00  0.00    +0.031 C 
BRANCH  18  21
ATOM     19  N   UNL     1      37.451 -26.602 -12.437  0.00  0.00    -0.343 N 
ATOM     20  N   UNL     1      36.568 -25.046 -10.935  0.00  0.00    -0.285 NA
ATOM     21  C   UNL     1      37.059 -25.300 -12.135  0.00  0.00    +0.117 C 
ATOM     22  H   UNL     1      37.364 -27.312 -11.759  0.00  0.00    +0.144 HD
ATOM     23  H   UNL     1      37.817 -26.813 -13.326  0.00  0.00    +0.144 HD
ATOM     24  H   UNL     1      36.487 -25.769 -10.272  0.00  0.00    +0.188 HD
ENDBRANCH  18  21
ENDBRANCH  12  13
ENDBRANCH   9  12
ENDBRANCH   3  10
BRANCH   7  25
ATOM     25  C   UNL     1      33.937 -22.087 -17.430  0.00  0.00    +0.006 C 
BRANCH  25  26
ATOM     26  N   UNL     1      32.739 -22.815 -17.045  0.00  0.00    +0.391 N 
ATOM     27  H   UNL     1      31.989 -22.599 -17.703  0.00  0.00    -0.084 HD
ATOM     28  H   UNL     1      32.942 -23.814 -17.058  0.00  0.00    -0.084 HD
BRANCH  26  29
ATOM     29  C   UNL     1      32.317 -22.435 -15.693  0.00  0.00    -0.061 C 
ATOM     30  C   UNL     1      30.792 -22.282 -15.631  0.00  0.00    -0.021 C 
ATOM     31  C   UNL     1      32.958 -23.401 -14.684  0.00  0.00    -0.021 C 
ATOM     32  C   UNL     1      32.451 -23.260 -13.247  0.00  0.00    -0.002 C 
ATOM     33  C   UNL     1      29.943 -23.523 -15.911  0.00  0.00    -0.002 C 
ATOM     34  C   UNL     1      31.470 -24.351 -12.811  0.00  0.00    -0.000 C 
ATOM     35  C   UNL     1      30.079 -24.703 -14.949  0.00  0.00    -0.000 C 
ATOM     36  C   UNL     1      30.086 -24.336 -13.465  0.00  0.00    -0.000 C 
ENDBRANCH  26  29
ENDBRANCH  25  26
ENDBRANCH   7  25
TORSDOF 7
ENDMDL
MODEL 5
REMARK VINA RESULT:      -9.8      2.851      5.618
REMARK  Name = 46937030
REMARK  7 active torsions:
REMARK  status: ('A' for Active; 'I' for Inactive)
REMARK    1  A    between atoms: C_3  and  C_10
REMARK    2  A    between atoms: C_7  and  C_25
REMARK    3  A    between atoms: N_9  and  C_12
REMARK    4  A    between atoms: C_12  and  C_13
REMARK    5  A    between atoms: C_18  and  C_21
REMARK    6  A    between atoms: C_25  and  N_26
REMARK    7  A    between atoms: N_26  and  C_29
REMARK                            x       y       z     vdW  Elec       q    Type
REMARK                         _______ _______ _______ _____ _____    ______ ____
ROOT
ATOM      1  O   UNL     1      34.228 -22.416 -14.702  0.00  0.00    -0.277 OA
ATOM      2  N   UNL     1      34.468 -22.027 -16.966  0.00  0.00    -0.275 N 
ATOM      3  C   UNL     1      35.206 -22.069 -18.228  0.00  0.00    +0.152 C 
ATOM      4  C   UNL     1      34.123 -22.106 -19.301  0.00  0.00    +0.031 C 
ATOM      5  C   UNL     1      33.055 -21.754 -17.195  0.00  0.00    +0.094 C 
ATOM      6  C   UNL     1      32.960 -21.354 -18.658  0.00  0.00    +0.024 C 
ATOM      7  C   UNL     1      34.942 -22.343 -15.703  0.00  0.00    +0.204 C 
ENDROOT
BRANCH   3  10
ATOM      8  O   UNL     1      36.748 -20.434 -17.423  0.00  0.00    -0.273 OA
ATOM      9  N   UNL     1      35.807 -20.155 -19.534  0.00  0.00    -0.299 N 
ATOM     10  C   UNL     1      36.014 -20.811 -18.333  0.00  0.00    +0.241 C 
ATOM     11  H   UNL     1      35.192 -20.558 -20.189  0.00  0.00    +0.150 HD
BRANCH   9  12
ATOM     12  C   UNL     1      36.450 -18.906 -19.875  0.00  0.00    +0.116 C 
BRANCH  12  13
ATOM     13  C   UNL     1      35.875 -18.300 -21.122  0.00  0.00    -0.003 C 
ATOM     14  C   UNL     1      36.149 -16.970 -21.440  0.00  0.00    -0.003 C 
ATOM     15  C   UNL     1      35.066 -19.066 -21.961  0.00  0.00    -0.003 C 
ATOM     16  C   UNL     1      35.615 -16.406 -22.599  0.00  0.00    +0.002 C 
ATOM     17  C   UNL     1      34.531 -18.502 -23.120  0.00  0.00    +0.002 C 
ATOM     18  C   UNL     1      34.806 -17.172 -23.439  0.00  0.00    +0.031 C 
BRANCH  18  21
ATOM     19  N   UNL     1      33.064 -17.060 -25.205  0.00  0.00    -0.343 N 
ATOM     20  N   UNL     1      34.874 -15.582 -25.241  0.00  0.00    -0.285 NA
ATOM     21  C   UNL     1      34.250 -16.585 -24.647  0.00  0.00    +0.117 C 
ATOM     22  H   UNL     1      32.706 -16.647 -26.023  0.00  0.00    +0.144 HD
ATOM     23  H   UNL     1      32.586 -17.808 -24.780  0.00  0.00    +0.144 HD
ATOM     24  H   UNL     1      34.499 -15.184 -26.059  0.00  0.00    +0.188 HD
ENDBRANCH  18  21
ENDBRANCH  12  13
ENDBRANCH   9  12
ENDBRANCH   3  10
BRANCH   7  25
ATOM     25  C   UNL     1      36.423 -22.605 -15.598  0.00  0.00    +0.006 C 
BRANCH  25  26
ATOM     26  N   UNL     1      36.944 -21.701 -14.585  0.00  0.00    +0.391 N 
ATOM     27  H   UNL     1      37.360 -20.889 -15.042  0.00  0.00    -0.084 HD
ATOM     28  H   UNL     1      36.178 -21.410 -13.979  0.00  0.00    -0.084 HD
BRANCH  26  29
ATOM     29  C   UNL     1      37.963 -22.371 -13.771  0.00  0.00    -0.061 C 
ATOM     30  C   UNL     1      37.554 -22.366 -12.292  0.00  0.00    -0.021 C 
ATOM     31  C   UNL     1      38.280 -23.738 -14.397  0.00  0.00    -0.021 C 
ATOM     32  C   UNL     1      39.176 -24.642 -13.549  0.00  0.00    -0.002 C 
ATOM     33  C   UNL     1      36.275 -23.111 -11.908  0.00  0.00    -0.002 C 
ATOM     34  C   UNL     1      38.436 -25.775 -12.833  0.00  0.00    -0.000 C 
ATOM     35  C   UNL     1      36.242 -24.622 -12.134  0.00  0.00    -0.000 C 
ATOM     36  C   UNL     1      37.498 -25.374 -11.691  0.00  0.00    -0.000 C 
ENDBRANCH  26  29
ENDBRANCH  25  26
ENDBRANCH   7  25
TORSDOF 7
ENDMDL
MODEL 6
REMARK VINA RESULT:      -9.7      6.995     12.887
REMARK  Name = 46937030
REMARK  7 active torsions:
REMARK  status: ('A' for Active; 'I' for Inactive)
REMARK    1  A    between atoms: C_3  and  C_10
REMARK    2  A    between atoms: C_7  and  C_25
REMARK    3  A    between atoms: N_9  and  C_12
REMARK    4  A    between atoms: C_12  and  C_13
REMARK    5  A    between atoms: C_18  and  C_21
REMARK    6  A    between atoms: C_25  and  N_26
REMARK    7  A    between atoms: N_26  and  C_29
REMARK                            x       y       z     vdW  Elec       q    Type
REMARK                         _______ _______ _______ _____ _____    ______ ____
ROOT
ATOM      1  O   UNL     1      31.956 -12.026 -22.489  0.00  0.00    -0.277 OA
ATOM      2  N   UNL     1      33.520 -13.365 -21.441  0.00  0.00    -0.275 N 
ATOM      3  C   UNL     1      34.857 -13.935 -21.287  0.00  0.00    +0.152 C 
ATOM      4  C   UNL     1      34.966 -14.255 -19.800  0.00  0.00    +0.031 C 
ATOM      5  C   UNL     1      32.721 -13.571 -20.240  0.00  0.00    +0.094 C 
ATOM      6  C   UNL     1      33.523 -14.545 -19.393  0.00  0.00    +0.024 C 
ATOM      7  C   UNL     1      33.053 -12.588 -22.490  0.00  0.00    +0.204 C 
ENDROOT
BRANCH   3  10
ATOM      8  O   UNL     1      34.508 -15.232 -23.261  0.00  0.00    -0.273 OA
ATOM      9  N   UNL     1      35.466 -16.248 -21.398  0.00  0.00    -0.299 N 
ATOM     10  C   UNL     1      34.921 -15.190 -22.105  0.00  0.00    +0.241 C 
ATOM     11  H   UNL     1      35.765 -16.091 -20.473  0.00  0.00    +0.150 HD
BRANCH   9  12
ATOM     12  C   UNL     1      35.619 -17.574 -21.952  0.00  0.00    +0.116 C 
BRANCH  12  13
ATOM     13  C   UNL     1      35.286 -18.643 -20.951  0.00  0.00    -0.003 C 
ATOM     14  C   UNL     1      33.957 -19.014 -20.745  0.00  0.00    -0.003 C 
ATOM     15  C   UNL     1      36.304 -19.264 -20.228  0.00  0.00    -0.003 C 
ATOM     16  C   UNL     1      33.646 -20.006 -19.815  0.00  0.00    +0.002 C 
ATOM     17  C   UNL     1      35.993 -20.256 -19.298  0.00  0.00    +0.002 C 
ATOM     18  C   UNL     1      34.665 -20.628 -19.092  0.00  0.00    +0.031 C 
BRANCH  18  21
ATOM     19  N   UNL     1      33.069 -22.227 -18.063  0.00  0.00    -0.343 N 
ATOM     20  N   UNL     1      35.264 -22.082 -17.275  0.00  0.00    -0.285 NA
ATOM     21  C   UNL     1      34.341 -21.663 -18.123  0.00  0.00    +0.117 C 
ATOM     22  H   UNL     1      32.872 -22.927 -17.399  0.00  0.00    +0.144 HD
ATOM     23  H   UNL     1      32.367 -21.927 -18.684  0.00  0.00    +0.144 HD
ATOM     24  H   UNL     1      35.047 -22.783 -16.618  0.00  0.00    +0.188 HD
ENDBRANCH  18  21
ENDBRANCH  12  13
ENDBRANCH   9  12
ENDBRANCH   3  10
BRANCH   7  25
ATOM     25  C   UNL     1      33.974 -12.450 -23.675  0.00  0.00    +0.006 C 
BRANCH  25  26
ATOM     26  N   UNL     1      34.770 -11.253 -23.458  0.00  0.00    +0.391 N 
ATOM     27  H   UNL     1      34.512 -10.837 -22.563  0.00  0.00    -0.084 HD
ATOM     28  H   UNL     1      35.757 -11.511 -23.455  0.00  0.00    -0.084 HD
BRANCH  26  29
ATOM     29  C   UNL     1      34.539 -10.279 -24.528  0.00  0.00    -0.061 C 
ATOM     30  C   UNL     1      33.272  -9.461 -24.242  0.00  0.00    -0.021 C 
ATOM     31  C   UNL     1      35.833  -9.488 -24.768  0.00  0.00    -0.021 C 
ATOM     32  C   UNL     1      35.692  -8.294 -25.715  0.00  0.00    -0.002 C 
ATOM     33  C   UNL     1      33.260  -8.590 -22.986  0.00  0.00    -0.002 C 
ATOM     34  C   UNL     1      35.658  -6.932 -25.017  0.00  0.00    -0.000 C 
ATOM     35  C   UNL     1      34.273  -7.448 -22.908  0.00  0.00    -0.000 C 
ATOM     36  C   UNL     1      34.414  -6.615 -24.183  0.00  0.00    -0.000 C 
ENDBRANCH  26  29
ENDBRANCH  25  26
ENDBRANCH   7  25
TORSDOF 7
ENDMDL
MODEL 7
REMARK VINA RESULT:      -9.7      2.234      7.623
REMARK  Name = 46937030
REMARK  7 active torsions:
REMARK  status: ('A' for Active; 'I' for Inactive)
REMARK    1  A    between atoms: C_3  and  C_10
REMARK    2  A    between atoms: C_7  and  C_25
REMARK    3  A    between atoms: N_9  and  C_12
REMARK    4  A    between atoms: C_12  and  C_13
REMARK    5  A    between atoms: C_18  and  C_21
REMARK    6  A    between atoms: C_25  and  N_26
REMARK    7  A    between atoms: N_26  and  C_29
REMARK                            x       y       z     vdW  Elec       q    Type
REMARK                         _______ _______ _______ _____ _____    ______ ____
ROOT
ATOM      1  O   UNL     1      32.738 -23.439 -17.570  0.00  0.00    -0.277 OA
ATOM      2  N   UNL     1      32.258 -22.907 -15.374  0.00  0.00    -0.275 N 
ATOM      3  C   UNL     1      32.580 -22.332 -14.069  0.00  0.00    +0.152 C 
ATOM      4  C   UNL     1      31.227 -21.957 -13.473  0.00  0.00    +0.031 C 
ATOM      5  C   UNL     1      30.829 -23.165 -15.494  0.00  0.00    +0.094 C 
ATOM      6  C   UNL     1      30.272 -22.975 -14.092  0.00  0.00    +0.024 C 
ATOM      7  C   UNL     1      33.110 -23.072 -16.454  0.00  0.00    +0.204 C 
ENDROOT
BRANCH   3  10
ATOM      8  O   UNL     1      32.805 -24.539 -13.187  0.00  0.00    -0.273 OA
ATOM      9  N   UNL     1      34.360 -22.918 -12.579  0.00  0.00    -0.299 N 
ATOM     10  C   UNL     1      33.245 -23.395 -13.247  0.00  0.00    +0.241 C 
ATOM     11  H   UNL     1      34.617 -21.976 -12.706  0.00  0.00    +0.150 HD
BRANCH   9  12
ATOM     12  C   UNL     1      35.166 -23.736 -11.701  0.00  0.00    +0.116 C 
BRANCH  12  13
ATOM     13  C   UNL     1      36.514 -24.033 -12.292  0.00  0.00    -0.003 C 
ATOM     14  C   UNL     1      37.031 -23.213 -13.295  0.00  0.00    -0.003 C 
ATOM     15  C   UNL     1      37.248 -25.129 -11.839  0.00  0.00    -0.003 C 
ATOM     16  C   UNL     1      38.284 -23.490 -13.845  0.00  0.00    +0.002 C 
ATOM     17  C   UNL     1      38.501 -25.405 -12.388  0.00  0.00    +0.002 C 
ATOM     18  C   UNL     1      39.018 -24.585 -13.391  0.00  0.00    +0.031 C 
BRANCH  18  21
ATOM     19  N   UNL     1      40.828 -26.172 -14.002  0.00  0.00    -0.343 N 
ATOM     20  N   UNL     1      41.059 -23.891 -14.455  0.00  0.00    -0.285 NA
ATOM     21  C   UNL     1      40.324 -24.873 -13.963  0.00  0.00    +0.117 C 
ATOM     22  H   UNL     1      41.715 -26.343 -14.394  0.00  0.00    +0.144 HD
ATOM     23  H   UNL     1      40.298 -26.917 -13.638  0.00  0.00    +0.144 HD
ATOM     24  H   UNL     1      41.943 -24.084 -14.842  0.00  0.00    +0.188 HD
ENDBRANCH  18  21
ENDBRANCH  12  13
ENDBRANCH   9  12
ENDBRANCH   3  10
BRANCH   7  25
ATOM     25  C   UNL     1      34.566 -22.772 -16.202  0.00  0.00    +0.006 C 
BRANCH  25  26
ATOM     26  N   UNL     1      34.834 -21.460 -16.770  0.00  0.00    +0.391 N 
ATOM     27  H   UNL     1      33.951 -20.964 -16.899  0.00  0.00    -0.084 HD
ATOM     28  H   UNL     1      35.438 -20.943 -16.132  0.00  0.00    -0.084 HD
BRANCH  26  29
ATOM     29  C   UNL     1      35.510 -21.587 -18.064  0.00  0.00    -0.061 C 
ATOM     30  C   UNL     1      34.481 -21.703 -19.196  0.00  0.00    -0.021 C 
ATOM     31  C   UNL     1      36.555 -20.467 -18.191  0.00  0.00    -0.021 C 
ATOM     32  C   UNL     1      37.200 -20.343 -19.572  0.00  0.00    -0.002 C 
ATOM     33  C   UNL     1      33.540 -20.519 -19.423  0.00  0.00    -0.002 C 
ATOM     34  C   UNL     1      36.677 -19.177 -20.414  0.00  0.00    -0.000 C 
ATOM     35  C   UNL     1      34.167 -19.189 -19.840  0.00  0.00    -0.000 C 
ATOM     36  C   UNL     1      35.239 -19.286 -20.927  0.00  0.00    -0.000 C 
ENDBRANCH  26  29
ENDBRANCH  25  26
ENDBRANCH   7  25
TORSDOF 7
ENDMDL
MODEL 8
REMARK VINA RESULT:      -9.5      1.657      2.602
REMARK  Name = 46937030
REMARK  7 active torsions:
REMARK  status: ('A' for Active; 'I' for Inactive)
REMARK    1  A    between atoms: C_3  and  C_10
REMARK    2  A    between atoms: C_7  and  C_25
REMARK    3  A    between atoms: N_9  and  C_12
REMARK    4  A    between atoms: C_12  and  C_13
REMARK    5  A    between atoms: C_18  and  C_21
REMARK    6  A    between atoms: C_25  and  N_26
REMARK    7  A    between atoms: N_26  and  C_29
REMARK                            x       y       z     vdW  Elec       q    Type
REMARK                         _______ _______ _______ _____ _____    ______ ____
ROOT
ATOM      1  O   UNL     1      33.712 -24.366 -12.069  0.00  0.00    -0.277 OA
ATOM      2  N   UNL     1      35.841 -23.491 -12.266  0.00  0.00    -0.275 N 
ATOM      3  C   UNL     1      36.801 -22.473 -12.689  0.00  0.00    +0.152 C 
ATOM      4  C   UNL     1      37.962 -22.613 -11.709  0.00  0.00    +0.031 C 
ATOM      5  C   UNL     1      36.440 -24.408 -11.303  0.00  0.00    +0.094 C 
ATOM      6  C   UNL     1      37.926 -24.091 -11.325  0.00  0.00    +0.024 C 
ATOM      7  C   UNL     1      34.491 -23.554 -12.572  0.00  0.00    +0.204 C 
ENDROOT
BRANCH   3  10
ATOM      8  O   UNL     1      37.402 -23.963 -14.455  0.00  0.00    -0.273 OA
ATOM      9  N   UNL     1      37.452 -21.670 -14.848  0.00  0.00    -0.299 N 
ATOM     10  C   UNL     1      37.241 -22.804 -14.083  0.00  0.00    +0.241 C 
ATOM     11  H   UNL     1      37.288 -20.789 -14.437  0.00  0.00    +0.150 HD
BRANCH   9  12
ATOM     12  C   UNL     1      37.902 -21.713 -16.221  0.00  0.00    +0.116 C 
BRANCH  12  13
ATOM     13  C   UNL     1      36.813 -21.329 -17.181  0.00  0.00    -0.003 C 
ATOM     14  C   UNL     1      35.519 -21.816 -16.998  0.00  0.00    -0.003 C 
ATOM     15  C   UNL     1      37.096 -20.487 -18.256  0.00  0.00    -0.003 C 
ATOM     16  C   UNL     1      34.507 -21.460 -17.890  0.00  0.00    +0.002 C 
ATOM     17  C   UNL     1      36.084 -20.131 -19.148  0.00  0.00    +0.002 C 
ATOM     18  C   UNL     1      34.790 -20.617 -18.964  0.00  0.00    +0.031 C 
BRANCH  18  21
ATOM     19  N   UNL     1      33.946 -19.285 -20.882  0.00  0.00    -0.343 N 
ATOM     20  N   UNL     1      32.548 -20.817 -19.807  0.00  0.00    -0.285 NA
ATOM     21  C   UNL     1      33.736 -20.244 -19.894  0.00  0.00    +0.117 C 
ATOM     22  H   UNL     1      33.218 -19.048 -21.501  0.00  0.00    +0.144 HD
ATOM     23  H   UNL     1      34.822 -18.844 -20.962  0.00  0.00    +0.144 HD
ATOM     24  H   UNL     1      31.833 -20.566 -20.435  0.00  0.00    +0.188 HD
ENDBRANCH  18  21
ENDBRANCH  12  13
ENDBRANCH   9  12
ENDBRANCH   3  10
BRANCH   7  25
ATOM     25  C   UNL     1      33.993 -22.550 -13.581  0.00  0.00    +0.006 C 
BRANCH  25  26
ATOM     26  N   UNL     1      32.542 -22.541 -13.490  0.00  0.00    +0.391 N 
ATOM     27  H   UNL     1      32.241 -23.276 -12.850  0.00  0.00    -0.084 HD
ATOM     28  H   UNL     1      32.239 -21.629 -13.147  0.00  0.00    -0.084 HD
BRANCH  26  29
ATOM     29  C   UNL     1      31.942 -22.773 -14.808  0.00  0.00    -0.061 C 
ATOM     30  C   UNL     1      31.646 -24.266 -15.005  0.00  0.00    -0.021 C 
ATOM     31  C   UNL     1      30.765 -21.804 -14.995  0.00  0.00    -0.021 C 
ATOM     32  C   UNL     1      29.910 -22.063 -16.237  0.00  0.00    -0.002 C 
ATOM     33  C   UNL     1      30.640 -24.920 -14.057  0.00  0.00    -0.002 C 
ATOM     34  C   UNL     1      28.568 -22.743 -15.953  0.00  0.00    -0.000 C 
ATOM     35  C   UNL     1      29.200 -24.410 -14.095  0.00  0.00    -0.000 C 
ATOM     36  C   UNL     1      28.618 -24.202 -15.494  0.00  0.00    -0.000 C 
ENDBRANCH  26  29
ENDBRANCH  25  26
ENDBRANCH   7  25
TORSDOF 7
ENDMDL
MODEL 9
REMARK VINA RESULT:      -9.5      1.598      5.063
REMARK  Name = 46937030
REMARK  7 active torsions:
REMARK  status: ('A' for Active; 'I' for Inactive)
REMARK    1  A    between atoms: C_3  and  C_10
REMARK    2  A    between atoms: C_7  and  C_25
REMARK    3  A    between atoms: N_9  and  C_12
REMARK    4  A    between atoms: C_12  and  C_13
REMARK    5  A    between atoms: C_18  and  C_21
REMARK    6  A    between atoms: C_25  and  N_26
REMARK    7  A    between atoms: N_26  and  C_29
REMARK                            x       y       z     vdW  Elec       q    Type
REMARK                         _______ _______ _______ _____ _____    ______ ____
ROOT
ATOM      1  O   UNL     1      32.012 -24.314 -12.364  0.00  0.00    -0.277 OA
ATOM      2  N   UNL     1      32.091 -23.357 -14.465  0.00  0.00    -0.275 N 
ATOM      3  C   UNL     1      32.579 -23.264 -15.840  0.00  0.00    +0.152 C 
ATOM      4  C   UNL     1      31.443 -22.589 -16.602  0.00  0.00    +0.031 C 
ATOM      5  C   UNL     1      30.890 -22.553 -14.280  0.00  0.00    +0.094 C 
ATOM      6  C   UNL     1      30.774 -21.716 -15.543  0.00  0.00    +0.024 C 
ATOM      7  C   UNL     1      32.559 -24.190 -13.461  0.00  0.00    +0.204 C 
ENDROOT
BRANCH   3  10
ATOM      8  O   UNL     1      34.137 -21.749 -14.852  0.00  0.00    -0.273 OA
ATOM      9  N   UNL     1      34.459 -22.419 -17.057  0.00  0.00    -0.299 N 
ATOM     10  C   UNL     1      33.803 -22.399 -15.839  0.00  0.00    +0.241 C 
ATOM     11  H   UNL     1      34.094 -22.983 -17.778  0.00  0.00    +0.150 HD
BRANCH   9  12
ATOM     12  C   UNL     1      35.655 -21.653 -17.325  0.00  0.00    +0.116 C 
BRANCH  12  13
ATOM     13  C   UNL     1      35.491 -20.752 -18.515  0.00  0.00    -0.003 C 
ATOM     14  C   UNL     1      36.606 -20.131 -19.078  0.00  0.00    -0.003 C 
ATOM     15  C   UNL     1      34.224 -20.536 -19.057  0.00  0.00    -0.003 C 
ATOM     16  C   UNL     1      36.454 -19.294 -20.184  0.00  0.00    +0.002 C 
ATOM     17  C   UNL     1      34.072 -19.699 -20.163  0.00  0.00    +0.002 C 
ATOM     18  C   UNL     1      35.187 -19.079 -20.726  0.00  0.00    +0.031 C 
BRANCH  18  21
ATOM     19  N   UNL     1      34.425 -18.659 -23.052  0.00  0.00    -0.343 N 
ATOM     20  N   UNL     1      35.464 -16.961 -21.828  0.00  0.00    -0.285 NA
ATOM     21  C   UNL     1      35.028 -18.207 -21.879  0.00  0.00    +0.117 C 
ATOM     22  H   UNL     1      34.328 -18.051 -23.820  0.00  0.00    +0.144 HD
ATOM     23  H   UNL     1      34.097 -19.584 -23.112  0.00  0.00    +0.144 HD
ATOM     24  H   UNL     1      35.358 -16.369 -22.607  0.00  0.00    +0.188 HD
ENDBRANCH  18  21
ENDBRANCH  12  13
ENDBRANCH   9  12
ENDBRANCH   3  10
BRANCH   7  25
ATOM     25  C   UNL     1      33.809 -24.971 -13.777  0.00  0.00    +0.006 C 
BRANCH  25  26
ATOM     26  N   UNL     1      34.908 -24.306 -13.095  0.00  0.00    +0.391 N 
ATOM     27  H   UNL     1      34.644 -23.341 -12.893  0.00  0.00    -0.084 HD
ATOM     28  H   UNL     1      35.109 -24.805 -12.229  0.00  0.00    -0.084 HD
BRANCH  26  29
ATOM     29  C   UNL     1      36.112 -24.310 -13.933  0.00  0.00    -0.061 C 
ATOM     30  C   UNL     1      36.933 -23.036 -13.695  0.00  0.00    -0.021 C 
ATOM     31  C   UNL     1      36.842 -25.649 -13.747  0.00  0.00    -0.021 C 
ATOM     32  C   UNL     1      38.224 -25.724 -14.399  0.00  0.00    -0.002 C 
ATOM     33  C   UNL     1      37.501 -22.810 -12.293  0.00  0.00    -0.002 C 
ATOM     34  C   UNL     1      39.394 -25.597 -13.420  0.00  0.00    -0.000 C 
ATOM     35  C   UNL     1      38.520 -23.822 -11.772  0.00  0.00    -0.000 C 
ATOM     36  C   UNL     1      39.605 -24.227 -12.771  0.00  0.00    -0.000 C 
ENDBRANCH  26  29
ENDBRANCH  25  26
ENDBRANCH   7  25
TORSDOF 7
ENDMDL
