MODEL 1
REMARK VINA RESULT:     -11.3      0.000      0.000
REMARK  Name = 445770
REMARK  5 active torsions:
REMARK  status: ('A' for Active; 'I' for Inactive)
REMARK    1  A    between atoms: N_2  and  C_17
REMARK    2  A    between atoms: C_3  and  C_5
REMARK    3  A    between atoms: C_6  and  S_11
REMARK    4  A    between atoms: S_11  and  N_14
REMARK    5  A    between atoms: C_17  and  C_23
REMARK                            x       y       z     vdW  Elec       q    Type
REMARK                         _______ _______ _______ _____ _____    ______ ____
ROOT
ATOM      1  O   UNL     1      37.411 -18.046 -21.090  0.00  0.00    -0.270 OA
ATOM      2  N   UNL     1      35.323 -17.515 -21.945  0.00  0.00    -0.297 N 
ATOM      3  C   UNL     1      36.182 -18.234 -21.106  0.00  0.00    +0.246 C 
ATOM      4  H   UNL     1      34.359 -17.716 -21.908  0.00  0.00    +0.150 HD
ENDROOT
BRANCH   3   5
ATOM      5  C   UNL     1      35.579 -19.249 -20.256  0.00  0.00    +0.053 C 
ATOM      6  C   UNL     1      34.423 -21.194 -18.626  0.00  0.00    +0.122 C 
ATOM      7  C   UNL     1      34.192 -19.387 -20.213  0.00  0.00    +0.006 C 
ATOM      8  C   UNL     1      36.389 -20.082 -19.484  0.00  0.00    +0.006 C 
ATOM      9  C   UNL     1      33.614 -20.360 -19.398  0.00  0.00    +0.020 C 
ATOM     10  C   UNL     1      35.810 -21.056 -18.670  0.00  0.00    +0.020 C 
BRANCH   6  11
ATOM     11  S   UNL     1      33.699 -22.413 -17.607  0.00  0.00    +0.057 S 
ATOM     12  O   UNL     1      33.804 -23.701 -18.279  0.00  0.00    -0.153 OA
ATOM     13  O   UNL     1      32.398 -21.931 -17.167  0.00  0.00    -0.153 OA
BRANCH  11  14
ATOM     14  N   UNL     1      34.770 -22.401 -16.275  0.00  0.00    -0.203 NA
ATOM     15  H   UNL     1      34.831 -23.338 -15.879  0.00  0.00    +0.144 HD
ATOM     16  H   UNL     1      34.423 -21.754 -15.566  0.00  0.00    +0.144 HD
ENDBRANCH  11  14
ENDBRANCH   6  11
ENDBRANCH   3   5
BRANCH   2  17
ATOM     17  C   UNL     1      35.773 -16.493 -22.864  0.00  0.00    +0.121 C 
BRANCH  17  23
ATOM     18  F   UNL     1      34.519 -15.283 -25.086  0.00  0.00    -0.202 F 
ATOM     19  F   UNL     1      35.356 -15.156 -20.414  0.00  0.00    -0.202 F 
ATOM     20  F   UNL     1      33.865 -12.882 -20.216  0.00  0.00    -0.199 F 
ATOM     21  F   UNL     1      33.026 -13.012 -24.875  0.00  0.00    -0.199 F 
ATOM     22  F   UNL     1      32.698 -11.807 -22.442  0.00  0.00    -0.199 F 
ATOM     23  C   UNL     1      34.949 -15.238 -22.752  0.00  0.00    +0.057 A 
ATOM     24  C   UNL     1      34.362 -14.701 -23.890  0.00  0.00    +0.170 A 
ATOM     25  C   UNL     1      34.788 -14.636 -21.512  0.00  0.00    +0.170 A 
ATOM     26  C   UNL     1      34.025 -13.473 -21.407  0.00  0.00    +0.197 A 
ATOM     27  C   UNL     1      33.600 -13.538 -23.784  0.00  0.00    +0.197 A 
ATOM     28  C   UNL     1      33.430 -12.923 -22.543  0.00  0.00    +0.199 A 
ENDBRANCH  17  23
ENDBRANCH   2  17
TORSDOF 5
ENDMDL
MODEL 2
REMARK VINA RESULT:     -11.2      0.040      2.129
REMARK  Name = 445770
REMARK  5 active torsions:
REMARK  status: ('A' for Active; 'I' for Inactive)
REMARK    1  A    between atoms: N_2  and  C_17
REMARK    2  A    between atoms: C_3  and  C_5
REMARK    3  A    between atoms: C_6  and  S_11
REMARK    4  A    between atoms: S_11  and  N_14
REMARK    5  A    between atoms: C_17  and  C_23
REMARK                            x       y       z     vdW  Elec       q    Type
REMARK                         _______ _______ _______ _____ _____    ______ ____
ROOT
ATOM      1  O   UNL     1      37.399 -18.043 -21.077  0.00  0.00    -0.270 OA
ATOM      2  N   UNL     1      35.322 -17.529 -21.967  0.00  0.00    -0.297 N 
ATOM      3  C   UNL     1      36.172 -18.240 -21.114  0.00  0.00    +0.246 C 
ATOM      4  H   UNL     1      34.359 -17.736 -21.945  0.00  0.00    +0.150 HD
ENDROOT
BRANCH   3   5
ATOM      5  C   UNL     1      35.563 -19.259 -20.273  0.00  0.00    +0.053 C 
ATOM      6  C   UNL     1      34.395 -21.213 -18.661  0.00  0.00    +0.122 C 
ATOM      7  C   UNL     1      34.175 -19.397 -20.239  0.00  0.00    +0.006 C 
ATOM      8  C   UNL     1      36.367 -20.098 -19.501  0.00  0.00    +0.006 C 
ATOM      9  C   UNL     1      33.591 -20.374 -19.433  0.00  0.00    +0.020 C 
ATOM     10  C   UNL     1      35.782 -21.076 -18.695  0.00  0.00    +0.020 C 
BRANCH   6  11
ATOM     11  S   UNL     1      33.664 -22.437 -17.654  0.00  0.00    +0.057 S 
ATOM     12  O   UNL     1      33.800 -23.726 -18.317  0.00  0.00    -0.153 OA
ATOM     13  O   UNL     1      32.346 -21.970 -17.246  0.00  0.00    -0.153 OA
BRANCH  11  14
ATOM     14  N   UNL     1      34.703 -22.405 -16.298  0.00  0.00    -0.203 NA
ATOM     15  H   UNL     1      35.316 -21.593 -16.358  0.00  0.00    +0.144 HD
ATOM     16  H   UNL     1      35.266 -23.256 -16.281  0.00  0.00    +0.144 HD
ENDBRANCH  11  14
ENDBRANCH   6  11
ENDBRANCH   3   5
BRANCH   2  17
ATOM     17  C   UNL     1      35.779 -16.503 -22.878  0.00  0.00    +0.121 C 
BRANCH  17  23
ATOM     18  F   UNL     1      35.357 -15.179 -20.419  0.00  0.00    -0.202 F 
ATOM     19  F   UNL     1      34.544 -15.272 -25.096  0.00  0.00    -0.202 F 
ATOM     20  F   UNL     1      33.063 -12.993 -24.877  0.00  0.00    -0.199 F 
ATOM     21  F   UNL     1      33.878 -12.898 -20.213  0.00  0.00    -0.199 F 
ATOM     22  F   UNL     1      32.728 -11.803 -22.440  0.00  0.00    -0.199 F 
ATOM     23  C   UNL     1      34.962 -15.244 -22.760  0.00  0.00    +0.057 A 
ATOM     24  C   UNL     1      34.799 -14.648 -21.516  0.00  0.00    +0.170 A 
ATOM     25  C   UNL     1      34.385 -14.696 -23.896  0.00  0.00    +0.170 A 
ATOM     26  C   UNL     1      33.627 -13.530 -23.788  0.00  0.00    +0.197 A 
ATOM     27  C   UNL     1      34.041 -13.483 -21.408  0.00  0.00    +0.197 A 
ATOM     28  C   UNL     1      33.455 -12.922 -22.543  0.00  0.00    +0.199 A 
ENDBRANCH  17  23
ENDBRANCH   2  17
TORSDOF 5
ENDMDL
MODEL 3
REMARK VINA RESULT:     -10.9      4.907      7.322
REMARK  Name = 445770
REMARK  5 active torsions:
REMARK  status: ('A' for Active; 'I' for Inactive)
REMARK    1  A    between atoms: N_2  and  C_17
REMARK    2  A    between atoms: C_3  and  C_5
REMARK    3  A    between atoms: C_6  and  S_11
REMARK    4  A    between atoms: S_11  and  N_14
REMARK    5  A    between atoms: C_17  and  C_23
REMARK                            x       y       z     vdW  Elec       q    Type
REMARK                         _______ _______ _______ _____ _____    ______ ____
ROOT
ATOM      1  O   UNL     1      32.443 -23.029 -15.716  0.00  0.00    -0.270 OA
ATOM      2  N   UNL     1      34.257 -22.089 -16.811  0.00  0.00    -0.297 N 
ATOM      3  C   UNL     1      33.638 -22.686 -15.707  0.00  0.00    +0.246 C 
ATOM      4  H   UNL     1      35.208 -21.841 -16.735  0.00  0.00    +0.150 HD
ENDROOT
BRANCH   3   5
ATOM      5  C   UNL     1      34.450 -22.869 -14.514  0.00  0.00    +0.053 C 
ATOM      6  C   UNL     1      36.007 -23.221 -12.226  0.00  0.00    +0.122 C 
ATOM      7  C   UNL     1      35.785 -22.464 -14.510  0.00  0.00    +0.006 C 
ATOM      8  C   UNL     1      33.893 -23.451 -13.375  0.00  0.00    +0.006 C 
ATOM      9  C   UNL     1      36.563 -22.640 -13.366  0.00  0.00    +0.020 C 
ATOM     10  C   UNL     1      34.672 -23.626 -12.230  0.00  0.00    +0.020 C 
BRANCH   6  11
ATOM     11  S   UNL     1      36.980 -23.440 -10.794  0.00  0.00    +0.057 S 
ATOM     12  O   UNL     1      37.554 -22.154 -10.423  0.00  0.00    -0.153 OA
ATOM     13  O   UNL     1      37.852 -24.587 -11.002  0.00  0.00    -0.153 OA
BRANCH  11  14
ATOM     14  N   UNL     1      35.784 -23.859  -9.648  0.00  0.00    -0.203 NA
ATOM     15  H   UNL     1      35.235 -23.032  -9.413  0.00  0.00    +0.144 HD
ATOM     16  H   UNL     1      36.232 -24.220  -8.806  0.00  0.00    +0.144 HD
ENDBRANCH  11  14
ENDBRANCH   6  11
ENDBRANCH   3   5
BRANCH   2  17
ATOM     17  C   UNL     1      33.578 -21.819 -18.059  0.00  0.00    +0.121 C 
BRANCH  17  23
ATOM     18  F   UNL     1      32.405 -20.283 -20.118  0.00  0.00    -0.202 F 
ATOM     19  F   UNL     1      36.366 -21.478 -17.789  0.00  0.00    -0.202 F 
ATOM     20  F   UNL     1      37.804 -19.803 -19.389  0.00  0.00    -0.199 F 
ATOM     21  F   UNL     1      33.853 -18.608 -21.710  0.00  0.00    -0.199 F 
ATOM     22  F   UNL     1      36.553 -18.367 -21.349  0.00  0.00    -0.199 F 
ATOM     23  C   UNL     1      34.374 -20.894 -18.940  0.00  0.00    +0.057 A 
ATOM     24  C   UNL     1      33.727 -20.169 -19.933  0.00  0.00    +0.170 A 
ATOM     25  C   UNL     1      35.743 -20.778 -18.748  0.00  0.00    +0.170 A 
ATOM     26  C   UNL     1      36.482 -19.921 -19.564  0.00  0.00    +0.197 A 
ATOM     27  C   UNL     1      34.466 -19.314 -20.749  0.00  0.00    +0.197 A 
ATOM     28  C   UNL     1      35.844 -19.189 -20.565  0.00  0.00    +0.199 A 
ENDBRANCH  17  23
ENDBRANCH   2  17
TORSDOF 5
ENDMDL
MODEL 4
REMARK VINA RESULT:     -10.9      4.901      7.503
REMARK  Name = 445770
REMARK  5 active torsions:
REMARK  status: ('A' for Active; 'I' for Inactive)
REMARK    1  A    between atoms: N_2  and  C_17
REMARK    2  A    between atoms: C_3  and  C_5
REMARK    3  A    between atoms: C_6  and  S_11
REMARK    4  A    between atoms: S_11  and  N_14
REMARK    5  A    between atoms: C_17  and  C_23
REMARK                            x       y       z     vdW  Elec       q    Type
REMARK                         _______ _______ _______ _____ _____    ______ ____
ROOT
ATOM      1  O   UNL     1      32.455 -23.099 -15.740  0.00  0.00    -0.270 OA
ATOM      2  N   UNL     1      34.228 -22.051 -16.802  0.00  0.00    -0.297 N 
ATOM      3  C   UNL     1      33.634 -22.705 -15.717  0.00  0.00    +0.246 C 
ATOM      4  H   UNL     1      35.167 -21.764 -16.716  0.00  0.00    +0.150 HD
ENDROOT
BRANCH   3   5
ATOM      5  C   UNL     1      34.451 -22.887 -14.528  0.00  0.00    +0.053 C 
ATOM      6  C   UNL     1      36.017 -23.237 -12.246  0.00  0.00    +0.122 C 
ATOM      7  C   UNL     1      35.789 -22.494 -14.534  0.00  0.00    +0.006 C 
ATOM      8  C   UNL     1      33.896 -23.456 -13.381  0.00  0.00    +0.006 C 
ATOM      9  C   UNL     1      36.572 -22.669 -13.393  0.00  0.00    +0.020 C 
ATOM     10  C   UNL     1      34.679 -23.631 -12.240  0.00  0.00    +0.020 C 
BRANCH   6  11
ATOM     11  S   UNL     1      36.997 -23.455 -10.818  0.00  0.00    +0.057 S 
ATOM     12  O   UNL     1      37.591 -22.174 -10.464  0.00  0.00    -0.153 OA
ATOM     13  O   UNL     1      37.851 -24.617 -11.019  0.00  0.00    -0.153 OA
BRANCH  11  14
ATOM     14  N   UNL     1      35.802 -23.845  -9.660  0.00  0.00    -0.203 NA
ATOM     15  H   UNL     1      35.260 -23.011  -9.437  0.00  0.00    +0.144 HD
ATOM     16  H   UNL     1      36.251 -24.195  -8.813  0.00  0.00    +0.144 HD
ENDBRANCH  11  14
ENDBRANCH   6  11
ENDBRANCH   3   5
BRANCH   2  17
ATOM     17  C   UNL     1      33.541 -21.774 -18.044  0.00  0.00    +0.121 C 
BRANCH  17  23
ATOM     18  F   UNL     1      36.338 -21.468 -17.800  0.00  0.00    -0.202 F 
ATOM     19  F   UNL     1      32.371 -20.240 -20.103  0.00  0.00    -0.202 F 
ATOM     20  F   UNL     1      33.827 -18.598 -21.721  0.00  0.00    -0.199 F 
ATOM     21  F   UNL     1      37.784 -19.825 -19.425  0.00  0.00    -0.199 F 
ATOM     22  F   UNL     1      36.532 -18.388 -21.387  0.00  0.00    -0.199 F 
ATOM     23  C   UNL     1      34.343 -20.868 -18.938  0.00  0.00    +0.057 A 
ATOM     24  C   UNL     1      35.716 -20.768 -18.759  0.00  0.00    +0.170 A 
ATOM     25  C   UNL     1      33.697 -20.144 -19.931  0.00  0.00    +0.170 A 
ATOM     26  C   UNL     1      34.439 -19.303 -20.761  0.00  0.00    +0.197 A 
ATOM     27  C   UNL     1      36.457 -19.928 -19.588  0.00  0.00    +0.197 A 
ATOM     28  C   UNL     1      35.820 -19.195 -20.590  0.00  0.00    +0.199 A 
ENDBRANCH  17  23
ENDBRANCH   2  17
TORSDOF 5
ENDMDL
MODEL 5
REMARK VINA RESULT:     -10.8      6.614     10.509
REMARK  Name = 445770
REMARK  5 active torsions:
REMARK  status: ('A' for Active; 'I' for Inactive)
REMARK    1  A    between atoms: N_2  and  C_17
REMARK    2  A    between atoms: C_3  and  C_5
REMARK    3  A    between atoms: C_6  and  S_11
REMARK    4  A    between atoms: S_11  and  N_14
REMARK    5  A    between atoms: C_17  and  C_23
REMARK                            x       y       z     vdW  Elec       q    Type
REMARK                         _______ _______ _______ _____ _____    ______ ____
ROOT
ATOM      1  O   UNL     1      33.440 -23.260 -17.787  0.00  0.00    -0.270 OA
ATOM      2  N   UNL     1      34.992 -22.522 -16.231  0.00  0.00    -0.297 N 
ATOM      3  C   UNL     1      34.318 -22.444 -17.455  0.00  0.00    +0.246 C 
ATOM      4  H   UNL     1      35.677 -21.843 -16.032  0.00  0.00    +0.150 HD
ENDROOT
BRANCH   3   5
ATOM      5  C   UNL     1      34.706 -21.370 -18.356  0.00  0.00    +0.053 C 
ATOM      6  C   UNL     1      35.452 -19.310 -20.082  0.00  0.00    +0.122 C 
ATOM      7  C   UNL     1      33.734 -20.681 -19.079  0.00  0.00    +0.006 C 
ATOM      8  C   UNL     1      36.052 -21.030 -18.495  0.00  0.00    +0.006 C 
ATOM      9  C   UNL     1      34.107 -19.651 -19.943  0.00  0.00    +0.020 C 
ATOM     10  C   UNL     1      36.425 -19.999 -19.359  0.00  0.00    +0.020 C 
BRANCH   6  11
ATOM     11  S   UNL     1      35.919 -18.020 -21.162  0.00  0.00    +0.057 S 
ATOM     12  O   UNL     1      35.095 -18.098 -22.360  0.00  0.00    -0.153 OA
ATOM     13  O   UNL     1      37.370 -18.023 -21.281  0.00  0.00    -0.153 OA
BRANCH  11  14
ATOM     14  N   UNL     1      35.443 -16.650 -20.257  0.00  0.00    -0.203 NA
ATOM     15  H   UNL     1      34.714 -16.916 -19.596  0.00  0.00    +0.144 HD
ATOM     16  H   UNL     1      35.085 -15.933 -20.888  0.00  0.00    +0.144 HD
ENDBRANCH  11  14
ENDBRANCH   6  11
ENDBRANCH   3   5
BRANCH   2  17
ATOM     17  C   UNL     1      34.736 -23.545 -15.241  0.00  0.00    +0.121 C 
BRANCH  17  23
ATOM     18  F   UNL     1      36.105 -26.008 -15.427  0.00  0.00    -0.202 F 
ATOM     19  F   UNL     1      35.860 -21.717 -13.409  0.00  0.00    -0.202 F 
ATOM     20  F   UNL     1      38.084 -22.290 -11.938  0.00  0.00    -0.199 F 
ATOM     21  F   UNL     1      38.330 -26.568 -13.954  0.00  0.00    -0.199 F 
ATOM     22  F   UNL     1      39.322 -24.711 -12.208  0.00  0.00    -0.199 F 
ATOM     23  C   UNL     1      35.964 -23.858 -14.430  0.00  0.00    +0.057 A 
ATOM     24  C   UNL     1      36.585 -25.092 -14.575  0.00  0.00    +0.170 A 
ATOM     25  C   UNL     1      36.460 -22.908 -13.548  0.00  0.00    +0.170 A 
ATOM     26  C   UNL     1      37.598 -23.197 -12.795  0.00  0.00    +0.197 A 
ATOM     27  C   UNL     1      37.722 -25.381 -13.821  0.00  0.00    +0.197 A 
ATOM     28  C   UNL     1      38.230 -24.434 -12.931  0.00  0.00    +0.199 A 
ENDBRANCH  17  23
ENDBRANCH   2  17
TORSDOF 5
ENDMDL
MODEL 6
REMARK VINA RESULT:     -10.8      6.613     10.646
REMARK  Name = 445770
REMARK  5 active torsions:
REMARK  status: ('A' for Active; 'I' for Inactive)
REMARK    1  A    between atoms: N_2  and  C_17
REMARK    2  A    between atoms: C_3  and  C_5
REMARK    3  A    between atoms: C_6  and  S_11
REMARK    4  A    between atoms: S_11  and  N_14
REMARK    5  A    between atoms: C_17  and  C_23
REMARK                            x       y       z     vdW  Elec       q    Type
REMARK                         _______ _______ _______ _____ _____    ______ ____
ROOT
ATOM      1  O   UNL     1      33.437 -23.260 -17.784  0.00  0.00    -0.270 OA
ATOM      2  N   UNL     1      34.993 -22.524 -16.231  0.00  0.00    -0.297 N 
ATOM      3  C   UNL     1      34.316 -22.444 -17.453  0.00  0.00    +0.246 C 
ATOM      4  H   UNL     1      35.679 -21.845 -16.033  0.00  0.00    +0.150 HD
ENDROOT
BRANCH   3   5
ATOM      5  C   UNL     1      34.702 -21.369 -18.353  0.00  0.00    +0.053 C 
ATOM      6  C   UNL     1      35.442 -19.307 -20.080  0.00  0.00    +0.122 C 
ATOM      7  C   UNL     1      36.047 -21.023 -18.490  0.00  0.00    +0.006 C 
ATOM      8  C   UNL     1      33.727 -20.684 -19.079  0.00  0.00    +0.006 C 
ATOM      9  C   UNL     1      36.416 -19.992 -19.353  0.00  0.00    +0.020 C 
ATOM     10  C   UNL     1      34.098 -19.653 -19.943  0.00  0.00    +0.020 C 
BRANCH   6  11
ATOM     11  S   UNL     1      35.905 -18.017 -21.162  0.00  0.00    +0.057 S 
ATOM     12  O   UNL     1      35.077 -18.095 -22.357  0.00  0.00    -0.153 OA
ATOM     13  O   UNL     1      37.356 -18.020 -21.286  0.00  0.00    -0.153 OA
BRANCH  11  14
ATOM     14  N   UNL     1      35.433 -16.647 -20.255  0.00  0.00    -0.203 NA
ATOM     15  H   UNL     1      34.746 -16.924 -19.555  0.00  0.00    +0.144 HD
ATOM     16  H   UNL     1      35.022 -15.953 -20.879  0.00  0.00    +0.144 HD
ENDBRANCH  11  14
ENDBRANCH   6  11
ENDBRANCH   3   5
BRANCH   2  17
ATOM     17  C   UNL     1      34.740 -23.548 -15.242  0.00  0.00    +0.121 C 
BRANCH  17  23
ATOM     18  F   UNL     1      35.869 -21.718 -13.410  0.00  0.00    -0.202 F 
ATOM     19  F   UNL     1      36.106 -26.009 -15.428  0.00  0.00    -0.202 F 
ATOM     20  F   UNL     1      38.334 -26.569 -13.959  0.00  0.00    -0.199 F 
ATOM     21  F   UNL     1      38.094 -22.290 -11.944  0.00  0.00    -0.199 F 
ATOM     22  F   UNL     1      39.331 -24.715 -12.216  0.00  0.00    -0.199 F 
ATOM     23  C   UNL     1      35.969 -23.859 -14.431  0.00  0.00    +0.057 A 
ATOM     24  C   UNL     1      36.467 -22.909 -13.549  0.00  0.00    +0.170 A 
ATOM     25  C   UNL     1      36.588 -25.093 -14.576  0.00  0.00    +0.170 A 
ATOM     26  C   UNL     1      37.727 -25.383 -13.825  0.00  0.00    +0.197 A 
ATOM     27  C   UNL     1      37.606 -23.199 -12.799  0.00  0.00    +0.197 A 
ATOM     28  C   UNL     1      38.237 -24.436 -12.936  0.00  0.00    +0.199 A 
ENDBRANCH  17  23
ENDBRANCH   2  17
TORSDOF 5
ENDMDL
MODEL 7
REMARK VINA RESULT:     -10.5      6.411     10.350
REMARK  Name = 445770
REMARK  5 active torsions:
REMARK  status: ('A' for Active; 'I' for Inactive)
REMARK    1  A    between atoms: N_2  and  C_17
REMARK    2  A    between atoms: C_3  and  C_5
REMARK    3  A    between atoms: C_6  and  S_11
REMARK    4  A    between atoms: S_11  and  N_14
REMARK    5  A    between atoms: C_17  and  C_23
REMARK                            x       y       z     vdW  Elec       q    Type
REMARK                         _______ _______ _______ _____ _____    ______ ____
ROOT
ATOM      1  O   UNL     1      33.733 -23.466 -18.011  0.00  0.00    -0.270 OA
ATOM      2  N   UNL     1      34.428 -22.240 -16.171  0.00  0.00    -0.297 N 
ATOM      3  C   UNL     1      34.224 -22.424 -17.543  0.00  0.00    +0.246 C 
ATOM      4  H   UNL     1      34.822 -21.389 -15.868  0.00  0.00    +0.150 HD
ENDROOT
BRANCH   3   5
ATOM      5  C   UNL     1      34.641 -21.344 -18.424  0.00  0.00    +0.053 C 
ATOM      6  C   UNL     1      35.439 -19.272 -20.112  0.00  0.00    +0.122 C 
ATOM      7  C   UNL     1      35.994 -21.035 -18.557  0.00  0.00    +0.006 C 
ATOM      8  C   UNL     1      33.685 -20.617 -19.134  0.00  0.00    +0.006 C 
ATOM      9  C   UNL     1      36.393 -19.999 -19.401  0.00  0.00    +0.020 C 
ATOM     10  C   UNL     1      34.085 -19.581 -19.979  0.00  0.00    +0.020 C 
BRANCH   6  11
ATOM     11  S   UNL     1      35.938 -17.976 -21.170  0.00  0.00    +0.057 S 
ATOM     12  O   UNL     1      35.120 -18.020 -22.374  0.00  0.00    -0.153 OA
ATOM     13  O   UNL     1      37.389 -18.006 -21.280  0.00  0.00    -0.153 OA
BRANCH  11  14
ATOM     14  N   UNL     1      35.484 -16.611 -20.249  0.00  0.00    -0.203 NA
ATOM     15  H   UNL     1      36.192 -16.429 -19.538  0.00  0.00    +0.144 HD
ATOM     16  H   UNL     1      34.586 -16.789 -19.797  0.00  0.00    +0.144 HD
ENDBRANCH  11  14
ENDBRANCH   6  11
ENDBRANCH   3   5
BRANCH   2  17
ATOM     17  C   UNL     1      34.089 -23.229 -15.172  0.00  0.00    +0.121 C 
BRANCH  17  23
ATOM     18  F   UNL     1      36.824 -22.916 -15.803  0.00  0.00    -0.202 F 
ATOM     19  F   UNL     1      33.578 -23.879 -12.475  0.00  0.00    -0.202 F 
ATOM     20  F   UNL     1      35.566 -24.182 -10.633  0.00  0.00    -0.199 F 
ATOM     21  F   UNL     1      38.803 -23.217 -13.952  0.00  0.00    -0.199 F 
ATOM     22  F   UNL     1      38.178 -23.850 -11.366  0.00  0.00    -0.199 F 
ATOM     23  C   UNL     1      35.185 -23.395 -14.154  0.00  0.00    +0.057 A 
ATOM     24  C   UNL     1      36.508 -23.225 -14.538  0.00  0.00    +0.170 A 
ATOM     25  C   UNL     1      34.856 -23.716 -12.844  0.00  0.00    +0.170 A 
ATOM     26  C   UNL     1      35.871 -23.870 -11.899  0.00  0.00    +0.197 A 
ATOM     27  C   UNL     1      37.522 -23.380 -13.593  0.00  0.00    +0.197 A 
ATOM     28  C   UNL     1      37.204 -23.702 -12.273  0.00  0.00    +0.199 A 
ENDBRANCH  17  23
ENDBRANCH   2  17
TORSDOF 5
ENDMDL
MODEL 8
REMARK VINA RESULT:     -10.5      6.399     10.461
REMARK  Name = 445770
REMARK  5 active torsions:
REMARK  status: ('A' for Active; 'I' for Inactive)
REMARK    1  A    between atoms: N_2  and  C_17
REMARK    2  A    between atoms: C_3  and  C_5
REMARK    3  A    between atoms: C_6  and  S_11
REMARK    4  A    between atoms: S_11  and  N_14
REMARK    5  A    between atoms: C_17  and  C_23
REMARK                            x       y       z     vdW  Elec       q    Type
REMARK                         _______ _______ _______ _____ _____    ______ ____
ROOT
ATOM      1  O   UNL     1      33.731 -23.462 -18.024  0.00  0.00    -0.270 OA
ATOM      2  N   UNL     1      34.402 -22.227 -16.181  0.00  0.00    -0.297 N 
ATOM      3  C   UNL     1      34.212 -22.416 -17.554  0.00  0.00    +0.246 C 
ATOM      4  H   UNL     1      34.789 -21.373 -15.876  0.00  0.00    +0.150 HD
ENDROOT
BRANCH   3   5
ATOM      5  C   UNL     1      34.629 -21.334 -18.433  0.00  0.00    +0.053 C 
ATOM      6  C   UNL     1      35.428 -19.261 -20.119  0.00  0.00    +0.122 C 
ATOM      7  C   UNL     1      35.982 -21.021 -18.559  0.00  0.00    +0.006 C 
ATOM      8  C   UNL     1      33.674 -20.612 -19.149  0.00  0.00    +0.006 C 
ATOM      9  C   UNL     1      36.381 -19.984 -19.402  0.00  0.00    +0.020 C 
ATOM     10  C   UNL     1      34.074 -19.575 -19.993  0.00  0.00    +0.020 C 
BRANCH   6  11
ATOM     11  S   UNL     1      35.927 -17.964 -21.176  0.00  0.00    +0.057 S 
ATOM     12  O   UNL     1      35.110 -18.007 -22.380  0.00  0.00    -0.153 OA
ATOM     13  O   UNL     1      37.379 -17.994 -21.285  0.00  0.00    -0.153 OA
BRANCH  11  14
ATOM     14  N   UNL     1      35.473 -16.599 -20.253  0.00  0.00    -0.203 NA
ATOM     15  H   UNL     1      36.291 -16.227 -19.771  0.00  0.00    +0.144 HD
ATOM     16  H   UNL     1      34.769 -16.872 -19.567  0.00  0.00    +0.144 HD
ENDBRANCH  11  14
ENDBRANCH   6  11
ENDBRANCH   3   5
BRANCH   2  17
ATOM     17  C   UNL     1      34.061 -23.216 -15.183  0.00  0.00    +0.121 C 
BRANCH  17  23
ATOM     18  F   UNL     1      33.550 -23.867 -12.482  0.00  0.00    -0.202 F 
ATOM     19  F   UNL     1      36.794 -22.904 -15.813  0.00  0.00    -0.202 F 
ATOM     20  F   UNL     1      38.773 -23.204 -13.962  0.00  0.00    -0.199 F 
ATOM     21  F   UNL     1      35.538 -24.169 -10.641  0.00  0.00    -0.199 F 
ATOM     22  F   UNL     1      38.151 -23.838 -11.377  0.00  0.00    -0.199 F 
ATOM     23  C   UNL     1      35.156 -23.383 -14.162  0.00  0.00    +0.057 A 
ATOM     24  C   UNL     1      34.827 -23.704 -12.852  0.00  0.00    +0.170 A 
ATOM     25  C   UNL     1      36.478 -23.214 -14.547  0.00  0.00    +0.170 A 
ATOM     26  C   UNL     1      37.494 -23.368 -13.603  0.00  0.00    +0.197 A 
ATOM     27  C   UNL     1      35.842 -23.858 -11.908  0.00  0.00    +0.197 A 
ATOM     28  C   UNL     1      37.176 -23.690 -12.283  0.00  0.00    +0.199 A 
ENDBRANCH  17  23
ENDBRANCH   2  17
TORSDOF 5
ENDMDL
MODEL 9
REMARK VINA RESULT:     -10.5      1.563      2.731
REMARK  Name = 445770
REMARK  5 active torsions:
REMARK  status: ('A' for Active; 'I' for Inactive)
REMARK    1  A    between atoms: N_2  and  C_17
REMARK    2  A    between atoms: C_3  and  C_5
REMARK    3  A    between atoms: C_6  and  S_11
REMARK    4  A    between atoms: S_11  and  N_14
REMARK    5  A    between atoms: C_17  and  C_23
REMARK                            x       y       z     vdW  Elec       q    Type
REMARK                         _______ _______ _______ _____ _____    ______ ____
ROOT
ATOM      1  O   UNL     1      36.426 -17.505 -22.477  0.00  0.00    -0.270 OA
ATOM      2  N   UNL     1      35.070 -16.154 -21.169  0.00  0.00    -0.297 N 
ATOM      3  C   UNL     1      35.651 -17.380 -21.512  0.00  0.00    +0.246 C 
ATOM      4  H   UNL     1      34.464 -16.126 -20.393  0.00  0.00    +0.150 HD
ENDROOT
BRANCH   3   5
ATOM      5  C   UNL     1      35.289 -18.532 -20.701  0.00  0.00    +0.053 C 
ATOM      6  C   UNL     1      34.595 -20.742 -19.147  0.00  0.00    +0.122 C 
ATOM      7  C   UNL     1      33.953 -18.918 -20.595  0.00  0.00    +0.006 C 
ATOM      8  C   UNL     1      36.278 -19.251 -20.030  0.00  0.00    +0.006 C 
ATOM      9  C   UNL     1      33.606 -20.023 -19.818  0.00  0.00    +0.020 C 
ATOM     10  C   UNL     1      35.931 -20.356 -19.253  0.00  0.00    +0.020 C 
BRANCH   6  11
ATOM     11  S   UNL     1      34.161 -22.126 -18.175  0.00  0.00    +0.057 S 
ATOM     12  O   UNL     1      35.009 -22.144 -16.991  0.00  0.00    -0.153 OA
ATOM     13  O   UNL     1      34.101 -23.295 -19.040  0.00  0.00    -0.153 OA
BRANCH  11  14
ATOM     14  N   UNL     1      32.572 -21.707 -17.705  0.00  0.00    -0.203 NA
ATOM     15  H   UNL     1      32.425 -21.969 -16.730  0.00  0.00    +0.144 HD
ATOM     16  H   UNL     1      31.902 -22.202 -18.294  0.00  0.00    +0.144 HD
ENDBRANCH  11  14
ENDBRANCH   6  11
ENDBRANCH   3   5
BRANCH   2  17
ATOM     17  C   UNL     1      35.312 -14.925 -21.892  0.00  0.00    +0.121 C 
BRANCH  17  23
ATOM     18  F   UNL     1      33.840 -14.963 -19.482  0.00  0.00    -0.202 F 
ATOM     19  F   UNL     1      34.763 -12.719 -23.563  0.00  0.00    -0.202 F 
ATOM     20  F   UNL     1      32.957 -10.787 -22.902  0.00  0.00    -0.199 F 
ATOM     21  F   UNL     1      32.039 -13.022 -18.829  0.00  0.00    -0.199 F 
ATOM     22  F   UNL     1      31.594 -10.933 -20.537  0.00  0.00    -0.199 F 
ATOM     23  C   UNL     1      34.316 -13.857 -21.528  0.00  0.00    +0.057 A 
ATOM     24  C   UNL     1      33.629 -13.942 -20.324  0.00  0.00    +0.170 A 
ATOM     25  C   UNL     1      34.099 -12.800 -22.401  0.00  0.00    +0.170 A 
ATOM     26  C   UNL     1      33.177 -11.809 -22.066  0.00  0.00    +0.197 A 
ATOM     27  C   UNL     1      32.707 -12.951 -19.989  0.00  0.00    +0.197 A 
ATOM     28  C   UNL     1      32.480 -11.884 -20.859  0.00  0.00    +0.199 A 
ENDBRANCH  17  23
ENDBRANCH   2  17
TORSDOF 5
ENDMDL
