MODEL 1
REMARK VINA RESULT:     -13.0      0.000      0.000
REMARK  Name = 16040294
REMARK  4 active torsions:
REMARK  status: ('A' for Active; 'I' for Inactive)
REMARK    1  A    between atoms: N_6  and  C_21
REMARK    2  A    between atoms: C_7  and  C_30
REMARK    3  A    between atoms: C_24  and  C_27
REMARK    4  A    between atoms: C_27  and  C_29
REMARK                            x       y       z     vdW  Elec       q    Type
REMARK                         _______ _______ _______ _____ _____    ______ ____
ROOT
ATOM      1  N   UNL     1      31.354 -22.944 -16.064  0.00  0.00    -0.239 N 
ATOM      2  N   UNL     1      32.671 -22.881 -15.807  0.00  0.00    -0.166 NA
ATOM      3  N   UNL     1      33.841 -22.703 -13.720  0.00  0.00    -0.271 N 
ATOM      4  N   UNL     1      35.542 -22.144 -15.247  0.00  0.00    -0.312 NA
ATOM      5  N   UNL     1      37.851 -22.612 -14.741  0.00  0.00    -0.332 NA
ATOM      6  N   UNL     1      37.240 -21.592 -16.763  0.00  0.00    -0.238 N 
ATOM      7  C   UNL     1      30.571 -22.896 -14.947  0.00  0.00    +0.045 C 
ATOM      8  C   UNL     1      31.438 -22.795 -13.886  0.00  0.00    +0.048 C 
ATOM      9  C   UNL     1      32.678 -22.794 -14.501  0.00  0.00    +0.152 C 
ATOM     10  C   UNL     1      35.219 -22.679 -14.054  0.00  0.00    +0.201 C 
ATOM     11  C   UNL     1      36.148 -23.197 -13.157  0.00  0.00    +0.072 C 
ATOM     12  C   UNL     1      37.493 -23.139 -13.557  0.00  0.00    +0.131 C 
ATOM     13  C   UNL     1      36.856 -22.143 -15.522  0.00  0.00    +0.204 C 
ATOM     14  C   UNL     1      35.785 -23.750 -11.917  0.00  0.00    +0.006 C 
ATOM     15  C   UNL     1      38.453 -23.647 -12.684  0.00  0.00    +0.086 C 
ATOM     16  C   UNL     1      36.765 -24.250 -11.065  0.00  0.00    -0.004 C 
ATOM     17  C   UNL     1      38.100 -24.199 -11.449  0.00  0.00    -0.019 C 
ATOM     18  H   UNL     1      30.987 -23.017 -16.975  0.00  0.00    +0.174 HD
ATOM     19  H   UNL     1      33.667 -22.644 -12.753  0.00  0.00    +0.156 HD
ATOM     20  H   UNL     1      38.211 -21.613 -16.922  0.00  0.00    +0.166 HD
ENDROOT
BRANCH   6  21
ATOM     21  C   UNL     1      36.506 -21.018 -17.818  0.00  0.00    +0.058 C 
ATOM     22  C   UNL     1      37.116 -20.108 -18.684  0.00  0.00    +0.015 C 
ATOM     23  C   UNL     1      35.164 -21.357 -18.002  0.00  0.00    +0.015 C 
ATOM     24  C   UNL     1      35.048 -19.882 -19.911  0.00  0.00    -0.007 C 
ATOM     25  C   UNL     1      36.388 -19.541 -19.729  0.00  0.00    -0.002 C 
ATOM     26  C   UNL     1      34.436 -20.789 -19.047  0.00  0.00    -0.002 C 
BRANCH  24  27
ATOM     27  C   UNL     1      34.269 -19.274 -21.029  0.00  0.00    +0.132 C 
BRANCH  27  29
ATOM     28  N   UNL     1      35.755 -17.798 -22.625  0.00  0.00    -0.196 NA
ATOM     29  C   UNL     1      35.105 -18.451 -21.921  0.00  0.00    +0.078 C 
ENDBRANCH  27  29
ENDBRANCH  24  27
ENDBRANCH   6  21
BRANCH   7  30
ATOM     30  C   UNL     1      29.050 -22.945 -14.899  0.00  0.00    +0.037 C 
ATOM     31  C   UNL     1      28.274 -22.972 -16.191  0.00  0.00    +0.006 C 
ATOM     32  C   UNL     1      28.261 -21.738 -15.338  0.00  0.00    +0.006 C 
ENDBRANCH   7  30
TORSDOF 4
ENDMDL
MODEL 2
REMARK VINA RESULT:     -12.3      2.035      7.417
REMARK  Name = 16040294
REMARK  4 active torsions:
REMARK  status: ('A' for Active; 'I' for Inactive)
REMARK    1  A    between atoms: N_6  and  C_21
REMARK    2  A    between atoms: C_7  and  C_30
REMARK    3  A    between atoms: C_24  and  C_27
REMARK    4  A    between atoms: C_27  and  C_29
REMARK                            x       y       z     vdW  Elec       q    Type
REMARK                         _______ _______ _______ _____ _____    ______ ____
ROOT
ATOM      1  N   UNL     1      35.291 -21.647 -19.011  0.00  0.00    -0.239 N 
ATOM      2  N   UNL     1      34.587 -22.198 -18.007  0.00  0.00    -0.166 NA
ATOM      3  N   UNL     1      32.468 -21.576 -17.070  0.00  0.00    -0.271 N 
ATOM      4  N   UNL     1      33.294 -23.028 -15.412  0.00  0.00    -0.312 NA
ATOM      5  N   UNL     1      31.785 -24.320 -14.046  0.00  0.00    -0.332 NA
ATOM      6  N   UNL     1      34.108 -24.476 -13.761  0.00  0.00    -0.238 N 
ATOM      7  C   UNL     1      34.689 -20.560 -19.575  0.00  0.00    +0.045 C 
ATOM      8  C   UNL     1      33.509 -20.390 -18.892  0.00  0.00    +0.048 C 
ATOM      9  C   UNL     1      33.535 -21.421 -17.969  0.00  0.00    +0.152 C 
ATOM     10  C   UNL     1      32.217 -22.514 -16.037  0.00  0.00    +0.201 C 
ATOM     11  C   UNL     1      30.904 -22.851 -15.725  0.00  0.00    +0.072 C 
ATOM     12  C   UNL     1      30.733 -23.786 -14.691  0.00  0.00    +0.131 C 
ATOM     13  C   UNL     1      33.009 -23.912 -14.442  0.00  0.00    +0.204 C 
ATOM     14  C   UNL     1      29.796 -22.299 -16.392  0.00  0.00    +0.006 C 
ATOM     15  C   UNL     1      29.431 -24.147 -14.350  0.00  0.00    +0.086 C 
ATOM     16  C   UNL     1      28.507 -22.679 -16.030  0.00  0.00    -0.004 C 
ATOM     17  C   UNL     1      28.325 -23.603 -15.009  0.00  0.00    -0.019 C 
ATOM     18  H   UNL     1      36.162 -21.996 -19.312  0.00  0.00    +0.174 HD
ATOM     19  H   UNL     1      31.757 -20.905 -17.178  0.00  0.00    +0.156 HD
ATOM     20  H   UNL     1      33.853 -25.118 -13.060  0.00  0.00    +0.166 HD
ENDROOT
BRANCH   6  21
ATOM     21  C   UNL     1      35.499 -24.301 -13.889  0.00  0.00    +0.058 C 
ATOM     22  C   UNL     1      36.110 -23.150 -13.386  0.00  0.00    +0.015 C 
ATOM     23  C   UNL     1      36.273 -25.278 -14.518  0.00  0.00    +0.015 C 
ATOM     24  C   UNL     1      38.259 -23.955 -14.141  0.00  0.00    -0.007 C 
ATOM     25  C   UNL     1      37.488 -22.978 -13.512  0.00  0.00    -0.002 C 
ATOM     26  C   UNL     1      37.651 -25.105 -14.644  0.00  0.00    -0.002 C 
BRANCH  24  27
ATOM     27  C   UNL     1      39.732 -23.770 -14.277  0.00  0.00    +0.132 C 
BRANCH  27  29
ATOM     28  N   UNL     1      41.053 -26.049 -14.253  0.00  0.00    -0.196 NA
ATOM     29  C   UNL     1      40.468 -25.047 -14.260  0.00  0.00    +0.078 C 
ENDBRANCH  27  29
ENDBRANCH  24  27
ENDBRANCH   6  21
BRANCH   7  30
ATOM     30  C   UNL     1      35.223 -19.718 -20.726  0.00  0.00    +0.037 C 
ATOM     31  C   UNL     1      36.440 -18.856 -20.502  0.00  0.00    +0.006 C 
ATOM     32  C   UNL     1      35.092 -18.217 -20.661  0.00  0.00    +0.006 C 
ENDBRANCH   7  30
TORSDOF 4
ENDMDL
MODEL 3
REMARK VINA RESULT:     -11.7      1.415      5.854
REMARK  Name = 16040294
REMARK  4 active torsions:
REMARK  status: ('A' for Active; 'I' for Inactive)
REMARK    1  A    between atoms: N_6  and  C_21
REMARK    2  A    between atoms: C_7  and  C_30
REMARK    3  A    between atoms: C_24  and  C_27
REMARK    4  A    between atoms: C_27  and  C_29
REMARK                            x       y       z     vdW  Elec       q    Type
REMARK                         _______ _______ _______ _____ _____    ______ ____
ROOT
ATOM      1  N   UNL     1      37.265 -22.415 -14.465  0.00  0.00    -0.239 N 
ATOM      2  N   UNL     1      35.988 -22.371 -14.880  0.00  0.00    -0.166 NA
ATOM      3  N   UNL     1      34.208 -23.955 -14.605  0.00  0.00    -0.271 N 
ATOM      4  N   UNL     1      33.330 -22.569 -16.292  0.00  0.00    -0.312 NA
ATOM      5  N   UNL     1      30.951 -22.252 -16.511  0.00  0.00    -0.332 NA
ATOM      6  N   UNL     1      32.450 -21.190 -17.969  0.00  0.00    -0.238 N 
ATOM      7  C   UNL     1      37.583 -23.551 -13.779  0.00  0.00    +0.045 C 
ATOM      8  C   UNL     1      36.432 -24.301 -13.744  0.00  0.00    +0.048 C 
ATOM      9  C   UNL     1      35.528 -23.511 -14.431  0.00  0.00    +0.152 C 
ATOM     10  C   UNL     1      33.081 -23.380 -15.247  0.00  0.00    +0.201 C 
ATOM     11  C   UNL     1      31.805 -23.674 -14.778  0.00  0.00    +0.072 C 
ATOM     12  C   UNL     1      30.739 -23.068 -15.463  0.00  0.00    +0.131 C 
ATOM     13  C   UNL     1      32.235 -22.047 -16.869  0.00  0.00    +0.204 C 
ATOM     14  C   UNL     1      31.571 -24.525 -13.684  0.00  0.00    +0.006 C 
ATOM     15  C   UNL     1      29.446 -23.339 -15.022  0.00  0.00    +0.086 C 
ATOM     16  C   UNL     1      30.268 -24.778 -13.265  0.00  0.00    -0.004 C 
ATOM     17  C   UNL     1      29.205 -24.184 -13.935  0.00  0.00    -0.019 C 
ATOM     18  H   UNL     1      37.912 -21.694 -14.639  0.00  0.00    +0.174 HD
ATOM     19  H   UNL     1      34.029 -24.836 -14.205  0.00  0.00    +0.156 HD
ATOM     20  H   UNL     1      31.621 -20.830 -18.358  0.00  0.00    +0.166 HD
ENDROOT
BRANCH   6  21
ATOM     21  C   UNL     1      33.619 -20.748 -18.618  0.00  0.00    +0.058 C 
ATOM     22  C   UNL     1      33.537 -19.802 -19.642  0.00  0.00    +0.015 C 
ATOM     23  C   UNL     1      34.864 -21.254 -18.239  0.00  0.00    +0.015 C 
ATOM     24  C   UNL     1      35.937 -19.871 -19.903  0.00  0.00    -0.007 C 
ATOM     25  C   UNL     1      34.695 -19.364 -20.284  0.00  0.00    -0.002 C 
ATOM     26  C   UNL     1      36.021 -20.816 -18.881  0.00  0.00    -0.002 C 
BRANCH  24  27
ATOM     27  C   UNL     1      37.176 -19.403 -20.591  0.00  0.00    +0.132 C 
BRANCH  27  29
ATOM     28  N   UNL     1      36.779 -17.230 -22.025  0.00  0.00    -0.196 NA
ATOM     29  C   UNL     1      36.955 -18.184 -21.389  0.00  0.00    +0.078 C 
ENDBRANCH  27  29
ENDBRANCH  24  27
ENDBRANCH   6  21
BRANCH   7  30
ATOM     30  C   UNL     1      38.938 -23.905 -13.180  0.00  0.00    +0.037 C 
ATOM     31  C   UNL     1      40.040 -24.387 -14.089  0.00  0.00    +0.006 C 
ATOM     32  C   UNL     1      39.374 -25.348 -13.148  0.00  0.00    +0.006 C 
ENDBRANCH   7  30
TORSDOF 4
ENDMDL
MODEL 4
REMARK VINA RESULT:     -10.5      1.687      6.304
REMARK  Name = 16040294
REMARK  4 active torsions:
REMARK  status: ('A' for Active; 'I' for Inactive)
REMARK    1  A    between atoms: N_6  and  C_21
REMARK    2  A    between atoms: C_7  and  C_30
REMARK    3  A    between atoms: C_24  and  C_27
REMARK    4  A    between atoms: C_27  and  C_29
REMARK                            x       y       z     vdW  Elec       q    Type
REMARK                         _______ _______ _______ _____ _____    ______ ____
ROOT
ATOM      1  N   UNL     1      34.197 -20.854 -17.928  0.00  0.00    -0.239 N 
ATOM      2  N   UNL     1      34.198 -21.441 -16.719  0.00  0.00    -0.166 NA
ATOM      3  N   UNL     1      35.891 -22.741 -15.624  0.00  0.00    -0.271 N 
ATOM      4  N   UNL     1      34.006 -23.243 -14.308  0.00  0.00    -0.312 NA
ATOM      5  N   UNL     1      34.246 -23.789 -11.973  0.00  0.00    -0.332 NA
ATOM      6  N   UNL     1      32.134 -23.743 -12.992  0.00  0.00    -0.238 N 
ATOM      7  C   UNL     1      35.352 -21.038 -18.631  0.00  0.00    +0.045 C 
ATOM      8  C   UNL     1      36.164 -21.799 -17.826  0.00  0.00    +0.048 C 
ATOM      9  C   UNL     1      35.386 -21.991 -16.698  0.00  0.00    +0.152 C 
ATOM     10  C   UNL     1      35.344 -23.101 -14.366  0.00  0.00    +0.201 C 
ATOM     11  C   UNL     1      36.193 -23.285 -13.280  0.00  0.00    +0.072 C 
ATOM     12  C   UNL     1      35.579 -23.639 -12.067  0.00  0.00    +0.131 C 
ATOM     13  C   UNL     1      33.532 -23.583 -13.099  0.00  0.00    +0.204 C 
ATOM     14  C   UNL     1      37.588 -23.131 -13.366  0.00  0.00    +0.006 C 
ATOM     15  C   UNL     1      36.398 -23.833 -10.957  0.00  0.00    +0.086 C 
ATOM     16  C   UNL     1      38.381 -23.330 -12.241  0.00  0.00    -0.004 C 
ATOM     17  C   UNL     1      37.785 -23.681 -11.035  0.00  0.00    -0.019 C 
ATOM     18  H   UNL     1      33.433 -20.338 -18.274  0.00  0.00    +0.174 HD
ATOM     19  H   UNL     1      36.802 -23.084 -15.772  0.00  0.00    +0.156 HD
ATOM     20  H   UNL     1      31.831 -23.990 -12.089  0.00  0.00    +0.166 HD
ENDROOT
BRANCH   6  21
ATOM     21  C   UNL     1      31.087 -23.616 -13.924  0.00  0.00    +0.058 C 
ATOM     22  C   UNL     1      30.347 -24.737 -14.305  0.00  0.00    +0.015 C 
ATOM     23  C   UNL     1      30.785 -22.367 -14.472  0.00  0.00    +0.015 C 
ATOM     24  C   UNL     1      29.009 -23.362 -15.773  0.00  0.00    -0.007 C 
ATOM     25  C   UNL     1      29.310 -24.611 -15.228  0.00  0.00    -0.002 C 
ATOM     26  C   UNL     1      29.748 -22.241 -15.395  0.00  0.00    -0.002 C 
BRANCH  24  27
ATOM     27  C   UNL     1      27.901 -23.227 -16.762  0.00  0.00    +0.132 C 
BRANCH  27  29
ATOM     28  N   UNL     1      26.839 -20.817 -16.783  0.00  0.00    -0.196 NA
ATOM     29  C   UNL     1      27.309 -21.877 -16.769  0.00  0.00    +0.078 C 
ENDBRANCH  27  29
ENDBRANCH  24  27
ENDBRANCH   6  21
BRANCH   7  30
ATOM     30  C   UNL     1      35.665 -20.505 -20.023  0.00  0.00    +0.037 C 
ATOM     31  C   UNL     1      36.465 -19.235 -20.161  0.00  0.00    +0.006 C 
ATOM     32  C   UNL     1      35.001 -19.234 -20.490  0.00  0.00    +0.006 C 
ENDBRANCH   7  30
TORSDOF 4
ENDMDL
