MODEL 1
REMARK VINA RESULT:     -12.4      0.000      0.000
REMARK  Name = 24812758
REMARK  9 active torsions:
REMARK  status: ('A' for Active; 'I' for Inactive)
REMARK    1  A    between atoms: C_1  and  C_11
REMARK    2  A    between atoms: C_4  and  C_23
REMARK    3  A    between atoms: C_9  and  O_14
REMARK    4  A    between atoms: C_10  and  O_16
REMARK    5  A    between atoms: C_12  and  O_18
REMARK    6  A    between atoms: C_13  and  C_20
REMARK    7  A    between atoms: C_20  and  O_21
REMARK    8  A    between atoms: C_23  and  C_25
REMARK    9  A    between atoms: C_27  and  C_30
REMARK                            x       y       z     vdW  Elec       q    Type
REMARK                         _______ _______ _______ _____ _____    ______ ____
ROOT
ATOM      1  C   UNL     1      34.364 -23.569 -13.715  0.00  0.00    +0.007 C 
ATOM      2  C   UNL     1      34.115 -23.365 -15.072  0.00  0.00    -0.006 C 
ATOM      3  C   UNL     1      33.369 -23.300 -12.775  0.00  0.00    -0.002 C 
ATOM      4  C   UNL     1      32.872 -22.890 -15.490  0.00  0.00    -0.021 C 
ATOM      5  C   UNL     1      31.877 -22.621 -14.550  0.00  0.00    -0.025 C 
ATOM      6  C   UNL     1      32.126 -22.826 -13.193  0.00  0.00    -0.005 C 
ATOM      7  C   UNL     1      30.538 -22.113 -14.972  0.00  0.00    +0.031 C 
ENDROOT
BRANCH   1  11
ATOM      8  O   UNL     1      36.452 -22.973 -12.741  0.00  0.00    -0.347 OA
ATOM      9  C   UNL     1      36.486 -24.763 -14.405  0.00  0.00    +0.171 C 
ATOM     10  C   UNL     1      37.906 -25.131 -13.967  0.00  0.00    +0.169 C 
ATOM     11  C   UNL     1      35.716 -24.085 -13.262  0.00  0.00    +0.167 C 
ATOM     12  C   UNL     1      38.602 -23.951 -13.290  0.00  0.00    +0.169 C 
ATOM     13  C   UNL     1      37.716 -23.354 -12.195  0.00  0.00    +0.174 C 
BRANCH   9  14
ATOM     14  O   UNL     1      35.793 -25.954 -14.779  0.00  0.00    -0.379 OA
ATOM     15  H   UNL     1      35.505 -25.884 -15.702  0.00  0.00    +0.211 HD
ENDBRANCH   9  14
BRANCH  10  16
ATOM     16  O   UNL     1      38.676 -25.498 -15.113  0.00  0.00    -0.379 OA
ATOM     17  H   UNL     1      38.082 -25.788 -15.823  0.00  0.00    +0.211 HD
ENDBRANCH  10  16
BRANCH  12  18
ATOM     18  O   UNL     1      39.827 -24.396 -12.712  0.00  0.00    -0.379 OA
ATOM     19  H   UNL     1      40.217 -25.085 -13.272  0.00  0.00    +0.211 HD
ENDBRANCH  12  18
BRANCH  13  20
ATOM     20  C   UNL     1      38.342 -22.107 -11.578  0.00  0.00    +0.169 C 
BRANCH  20  21
ATOM     21  O   UNL     1      37.553 -21.707 -10.471  0.00  0.00    -0.379 OA
ATOM     22  H   UNL     1      37.818 -22.212  -9.686  0.00  0.00    +0.211 HD
ENDBRANCH  20  21
ENDBRANCH  13  20
ENDBRANCH   1  11
BRANCH   4  23
ATOM     23  C   UNL     1      32.629 -22.679 -16.948  0.00  0.00    +0.059 C 
BRANCH  23  25
ATOM     24  S   UNL     1      33.321 -20.852 -18.939  0.00  0.00    -0.091 S 
ATOM     25  C   UNL     1      33.724 -21.899 -17.645  0.00  0.00    +0.012 C 
ATOM     26  C   UNL     1      35.076 -21.898 -17.382  0.00  0.00    +0.003 C 
ATOM     27  C   UNL     1      34.957 -20.396 -19.151  0.00  0.00    +0.029 C 
ATOM     28  C   UNL     1      35.791 -21.028 -18.255  0.00  0.00    +0.007 C 
BRANCH  27  30
ATOM     29  F   UNL     1      36.239 -16.743 -23.160  0.00  0.00    -0.204 F 
ATOM     30  C   UNL     1      35.289 -19.449 -20.190  0.00  0.00    +0.006 C 
ATOM     31  C   UNL     1      36.529 -18.809 -20.181  0.00  0.00    +0.003 C 
ATOM     32  C   UNL     1      34.371 -19.175 -21.204  0.00  0.00    +0.003 C 
ATOM     33  C   UNL     1      36.850 -17.895 -21.183  0.00  0.00    +0.030 C 
ATOM     34  C   UNL     1      34.692 -18.261 -22.206  0.00  0.00    +0.030 C 
ATOM     35  C   UNL     1      35.931 -17.621 -22.197  0.00  0.00    +0.140 C 
ENDBRANCH  27  30
ENDBRANCH  23  25
ENDBRANCH   4  23
TORSDOF 9
ENDMDL
MODEL 2
REMARK VINA RESULT:     -11.9      1.203      2.471
REMARK  Name = 24812758
REMARK  9 active torsions:
REMARK  status: ('A' for Active; 'I' for Inactive)
REMARK    1  A    between atoms: C_1  and  C_11
REMARK    2  A    between atoms: C_4  and  C_23
REMARK    3  A    between atoms: C_9  and  O_14
REMARK    4  A    between atoms: C_10  and  O_16
REMARK    5  A    between atoms: C_12  and  O_18
REMARK    6  A    between atoms: C_13  and  C_20
REMARK    7  A    between atoms: C_20  and  O_21
REMARK    8  A    between atoms: C_23  and  C_25
REMARK    9  A    between atoms: C_27  and  C_30
REMARK                            x       y       z     vdW  Elec       q    Type
REMARK                         _______ _______ _______ _____ _____    ______ ____
ROOT
ATOM      1  C   UNL     1      34.700 -23.153 -14.565  0.00  0.00    +0.007 C 
ATOM      2  C   UNL     1      34.369 -22.892 -15.894  0.00  0.00    -0.006 C 
ATOM      3  C   UNL     1      33.725 -23.060 -13.572  0.00  0.00    -0.002 C 
ATOM      4  C   UNL     1      33.064 -22.536 -16.232  0.00  0.00    -0.021 C 
ATOM      5  C   UNL     1      32.088 -22.443 -15.238  0.00  0.00    -0.025 C 
ATOM      6  C   UNL     1      32.419 -22.704 -13.909  0.00  0.00    -0.005 C 
ATOM      7  C   UNL     1      30.683 -22.064 -15.574  0.00  0.00    +0.031 C 
ENDROOT
BRANCH   1  11
ATOM      8  O   UNL     1      36.344 -24.871 -14.675  0.00  0.00    -0.347 OA
ATOM      9  C   UNL     1      36.368 -23.452 -12.685  0.00  0.00    +0.171 C 
ATOM     10  C   UNL     1      37.751 -23.998 -12.323  0.00  0.00    +0.169 C 
ATOM     11  C   UNL     1      36.120 -23.540 -14.199  0.00  0.00    +0.167 C 
ATOM     12  C   UNL     1      37.998 -25.359 -12.971  0.00  0.00    +0.169 C 
ATOM     13  C   UNL     1      37.686 -25.313 -14.468  0.00  0.00    +0.174 C 
BRANCH   9  14
ATOM     14  O   UNL     1      36.291 -22.083 -12.289  0.00  0.00    -0.379 OA
ATOM     15  H   UNL     1      37.171 -21.680 -12.343  0.00  0.00    +0.211 HD
ENDBRANCH   9  14
BRANCH  10  16
ATOM     16  O   UNL     1      37.841 -24.160 -10.906  0.00  0.00    -0.379 OA
ATOM     17  H   UNL     1      38.576 -24.757 -10.695  0.00  0.00    +0.211 HD
ENDBRANCH  10  16
BRANCH  12  18
ATOM     18  O   UNL     1      39.363 -25.728 -12.787  0.00  0.00    -0.379 OA
ATOM     19  H   UNL     1      39.493 -26.043 -11.878  0.00  0.00    +0.211 HD
ENDBRANCH  12  18
BRANCH  13  20
ATOM     20  C   UNL     1      37.820 -26.687 -15.116  0.00  0.00    +0.169 C 
BRANCH  20  21
ATOM     21  O   UNL     1      36.914 -26.764 -16.201  0.00  0.00    -0.379 OA
ATOM     22  H   UNL     1      36.150 -27.306 -15.947  0.00  0.00    +0.211 HD
ENDBRANCH  20  21
ENDBRANCH  13  20
ENDBRANCH   1  11
BRANCH   4  23
ATOM     23  C   UNL     1      32.733 -22.261 -17.661  0.00  0.00    +0.059 C 
BRANCH  23  25
ATOM     24  S   UNL     1      33.204 -20.221 -19.505  0.00  0.00    -0.091 S 
ATOM     25  C   UNL     1      33.744 -21.380 -18.365  0.00  0.00    +0.012 C 
ATOM     26  C   UNL     1      35.113 -21.362 -18.220  0.00  0.00    +0.003 C 
ATOM     27  C   UNL     1      34.804 -19.694 -19.808  0.00  0.00    +0.029 C 
ATOM     28  C   UNL     1      35.728 -20.385 -19.056  0.00  0.00    +0.007 C 
BRANCH  27  30
ATOM     29  F   UNL     1      35.641 -15.615 -23.513  0.00  0.00    -0.204 F 
ATOM     30  C   UNL     1      35.021 -18.637 -20.768  0.00  0.00    +0.006 C 
ATOM     31  C   UNL     1      35.371 -17.359 -20.332  0.00  0.00    +0.003 C 
ATOM     32  C   UNL     1      34.880 -18.894 -22.132  0.00  0.00    +0.003 C 
ATOM     33  C   UNL     1      35.580 -16.338 -21.259  0.00  0.00    +0.030 C 
ATOM     34  C   UNL     1      35.090 -17.873 -23.059  0.00  0.00    +0.030 C 
ATOM     35  C   UNL     1      35.440 -16.595 -22.622  0.00  0.00    +0.140 C 
ENDBRANCH  27  30
ENDBRANCH  23  25
ENDBRANCH   4  23
TORSDOF 9
ENDMDL
MODEL 3
REMARK VINA RESULT:     -10.8     11.113     15.820
REMARK  Name = 24812758
REMARK  9 active torsions:
REMARK  status: ('A' for Active; 'I' for Inactive)
REMARK    1  A    between atoms: C_1  and  C_11
REMARK    2  A    between atoms: C_4  and  C_23
REMARK    3  A    between atoms: C_9  and  O_14
REMARK    4  A    between atoms: C_10  and  O_16
REMARK    5  A    between atoms: C_12  and  O_18
REMARK    6  A    between atoms: C_13  and  C_20
REMARK    7  A    between atoms: C_20  and  O_21
REMARK    8  A    between atoms: C_23  and  C_25
REMARK    9  A    between atoms: C_27  and  C_30
REMARK                            x       y       z     vdW  Elec       q    Type
REMARK                         _______ _______ _______ _____ _____    ______ ____
ROOT
ATOM      1  C   UNL     1      33.505  -7.739 -23.225  0.00  0.00    +0.007 C 
ATOM      2  C   UNL     1      33.216  -9.064 -23.551  0.00  0.00    -0.006 C 
ATOM      3  C   UNL     1      34.599  -7.099 -23.808  0.00  0.00    -0.002 C 
ATOM      4  C   UNL     1      34.021  -9.750 -24.460  0.00  0.00    -0.021 C 
ATOM      5  C   UNL     1      35.116  -9.111 -25.043  0.00  0.00    -0.025 C 
ATOM      6  C   UNL     1      35.404  -7.786 -24.716  0.00  0.00    -0.005 C 
ATOM      7  C   UNL     1      35.993  -9.824 -26.019  0.00  0.00    +0.031 C 
ENDROOT
BRANCH   1  11
ATOM      8  O   UNL     1      32.707  -5.599 -22.553  0.00  0.00    -0.347 OA
ATOM      9  C   UNL     1      33.056  -7.248 -20.784  0.00  0.00    +0.171 C 
ATOM     10  C   UNL     1      32.265  -6.364 -19.816  0.00  0.00    +0.169 C 
ATOM     11  C   UNL     1      32.629  -6.993 -22.237  0.00  0.00    +0.167 C 
ATOM     12  C   UNL     1      32.260  -4.906 -20.273  0.00  0.00    +0.169 C 
ATOM     13  C   UNL     1      31.846  -4.799 -21.742  0.00  0.00    +0.174 C 
BRANCH   9  14
ATOM     14  O   UNL     1      32.808  -8.618 -20.469  0.00  0.00    -0.379 OA
ATOM     15  H   UNL     1      31.875  -8.731 -20.227  0.00  0.00    +0.211 HD
ENDBRANCH   9  14
BRANCH  10  16
ATOM     16  O   UNL     1      32.868  -6.418 -18.522  0.00  0.00    -0.379 OA
ATOM     17  H   UNL     1      33.612  -5.797 -18.485  0.00  0.00    +0.211 HD
ENDBRANCH  10  16
BRANCH  12  18
ATOM     18  O   UNL     1      31.343  -4.165 -19.472  0.00  0.00    -0.379 OA
ATOM     19  H   UNL     1      30.676  -4.766 -19.104  0.00  0.00    +0.211 HD
ENDBRANCH  12  18
BRANCH  13  20
ATOM     20  C   UNL     1      31.938  -3.365 -22.253  0.00  0.00    +0.169 C 
BRANCH  20  21
ATOM     21  O   UNL     1      30.876  -2.616 -21.690  0.00  0.00    -0.379 OA
ATOM     22  H   UNL     1      30.171  -2.510 -22.348  0.00  0.00    +0.211 HD
ENDBRANCH  20  21
ENDBRANCH  13  20
ENDBRANCH   1  11
BRANCH   4  23
ATOM     23  C   UNL     1      33.693 -11.168 -24.794  0.00  0.00    +0.059 C 
BRANCH  23  25
ATOM     24  S   UNL     1      34.280 -13.807 -24.108  0.00  0.00    -0.091 S 
ATOM     25  C   UNL     1      34.066 -12.155 -23.708  0.00  0.00    +0.012 C 
ATOM     26  C   UNL     1      34.275 -11.917 -22.368  0.00  0.00    +0.003 C 
ATOM     27  C   UNL     1      34.653 -14.207 -22.485  0.00  0.00    +0.029 C 
ATOM     28  C   UNL     1      34.615 -13.105 -21.659  0.00  0.00    +0.007 C 
BRANCH  27  30
ATOM     29  F   UNL     1      35.806 -19.509 -21.213  0.00  0.00    -0.204 F 
ATOM     30  C   UNL     1      34.952 -15.581 -22.156  0.00  0.00    +0.006 C 
ATOM     31  C   UNL     1      35.228 -15.937 -20.835  0.00  0.00    +0.003 C 
ATOM     32  C   UNL     1      34.965 -16.552 -23.157  0.00  0.00    +0.003 C 
ATOM     33  C   UNL     1      35.516 -17.264 -20.517  0.00  0.00    +0.030 C 
ATOM     34  C   UNL     1      35.254 -17.878 -22.839  0.00  0.00    +0.030 C 
ATOM     35  C   UNL     1      35.529 -18.235 -21.518  0.00  0.00    +0.140 C 
ENDBRANCH  27  30
ENDBRANCH  23  25
ENDBRANCH   4  23
TORSDOF 9
ENDMDL
MODEL 4
REMARK VINA RESULT:     -10.8      7.620     12.095
REMARK  Name = 24812758
REMARK  9 active torsions:
REMARK  status: ('A' for Active; 'I' for Inactive)
REMARK    1  A    between atoms: C_1  and  C_11
REMARK    2  A    between atoms: C_4  and  C_23
REMARK    3  A    between atoms: C_9  and  O_14
REMARK    4  A    between atoms: C_10  and  O_16
REMARK    5  A    between atoms: C_12  and  O_18
REMARK    6  A    between atoms: C_13  and  C_20
REMARK    7  A    between atoms: C_20  and  O_21
REMARK    8  A    between atoms: C_23  and  C_25
REMARK    9  A    between atoms: C_27  and  C_30
REMARK                            x       y       z     vdW  Elec       q    Type
REMARK                         _______ _______ _______ _____ _____    ______ ____
ROOT
ATOM      1  C   UNL     1      34.174 -13.901 -22.947  0.00  0.00    +0.007 C 
ATOM      2  C   UNL     1      35.034 -14.850 -22.394  0.00  0.00    -0.006 C 
ATOM      3  C   UNL     1      33.495 -14.182 -24.133  0.00  0.00    -0.002 C 
ATOM      4  C   UNL     1      35.217 -16.079 -23.027  0.00  0.00    -0.021 C 
ATOM      5  C   UNL     1      34.538 -16.359 -24.214  0.00  0.00    -0.025 C 
ATOM      6  C   UNL     1      33.678 -15.411 -24.766  0.00  0.00    -0.005 C 
ATOM      7  C   UNL     1      34.717 -17.668 -24.911  0.00  0.00    +0.031 C 
ENDROOT
BRANCH   1  11
ATOM      8  O   UNL     1      32.869 -12.699 -21.360  0.00  0.00    -0.347 OA
ATOM      9  C   UNL     1      33.729 -11.430 -23.264  0.00  0.00    +0.171 C 
ATOM     10  C   UNL     1      33.373 -10.126 -22.545  0.00  0.00    +0.169 C 
ATOM     11  C   UNL     1      33.976 -12.565 -22.258  0.00  0.00    +0.167 C 
ATOM     12  C   UNL     1      32.285 -10.350 -21.496  0.00  0.00    +0.169 C 
ATOM     13  C   UNL     1      32.643 -11.523 -20.582  0.00  0.00    +0.174 C 
BRANCH   9  14
ATOM     14  O   UNL     1      34.919 -11.230 -24.027  0.00  0.00    -0.379 OA
ATOM     15  H   UNL     1      34.985 -10.297 -24.284  0.00  0.00    +0.211 HD
ENDBRANCH   9  14
BRANCH  10  16
ATOM     16  O   UNL     1      32.884  -9.179 -23.494  0.00  0.00    -0.379 OA
ATOM     17  H   UNL     1      33.344  -9.300 -24.340  0.00  0.00    +0.211 HD
ENDBRANCH  10  16
BRANCH  12  18
ATOM     18  O   UNL     1      32.139  -9.170 -20.710  0.00  0.00    -0.379 OA
ATOM     19  H   UNL     1      31.909  -9.415 -19.800  0.00  0.00    +0.211 HD
ENDBRANCH  12  18
BRANCH  13  20
ATOM     20  C   UNL     1      31.521 -11.835 -19.597  0.00  0.00    +0.169 C 
BRANCH  20  21
ATOM     21  O   UNL     1      30.346 -11.170 -20.026  0.00  0.00    -0.379 OA
ATOM     22  H   UNL     1      30.277 -10.313 -19.575  0.00  0.00    +0.211 HD
ENDBRANCH  20  21
ENDBRANCH  13  20
ENDBRANCH   1  11
BRANCH   4  23
ATOM     23  C   UNL     1      36.143 -17.079 -22.418  0.00  0.00    +0.059 C 
BRANCH  23  25
ATOM     24  S   UNL     1      36.295 -18.799 -20.227  0.00  0.00    -0.091 S 
ATOM     25  C   UNL     1      35.448 -18.102 -21.543  0.00  0.00    +0.012 C 
ATOM     26  C   UNL     1      34.163 -18.586 -21.645  0.00  0.00    +0.003 C 
ATOM     27  C   UNL     1      34.941 -19.752 -19.792  0.00  0.00    +0.029 C 
ATOM     28  C   UNL     1      33.869 -19.542 -20.630  0.00  0.00    +0.007 C 
BRANCH  27  30
ATOM     29  F   UNL     1      35.347 -23.160 -15.401  0.00  0.00    -0.204 F 
ATOM     30  C   UNL     1      35.046 -20.636 -18.654  0.00  0.00    +0.006 C 
ATOM     31  C   UNL     1      36.260 -20.759 -17.976  0.00  0.00    +0.003 C 
ATOM     32  C   UNL     1      33.935 -21.365 -18.232  0.00  0.00    +0.003 C 
ATOM     33  C   UNL     1      36.361 -21.612 -16.878  0.00  0.00    +0.030 C 
ATOM     34  C   UNL     1      34.037 -22.218 -17.133  0.00  0.00    +0.030 C 
ATOM     35  C   UNL     1      35.250 -22.341 -16.456  0.00  0.00    +0.140 C 
ENDBRANCH  27  30
ENDBRANCH  23  25
ENDBRANCH   4  23
TORSDOF 9
ENDMDL
MODEL 5
REMARK VINA RESULT:     -10.7      3.106      5.547
REMARK  Name = 24812758
REMARK  9 active torsions:
REMARK  status: ('A' for Active; 'I' for Inactive)
REMARK    1  A    between atoms: C_1  and  C_11
REMARK    2  A    between atoms: C_4  and  C_23
REMARK    3  A    between atoms: C_9  and  O_14
REMARK    4  A    between atoms: C_10  and  O_16
REMARK    5  A    between atoms: C_12  and  O_18
REMARK    6  A    between atoms: C_13  and  C_20
REMARK    7  A    between atoms: C_20  and  O_21
REMARK    8  A    between atoms: C_23  and  C_25
REMARK    9  A    between atoms: C_27  and  C_30
REMARK                            x       y       z     vdW  Elec       q    Type
REMARK                         _______ _______ _______ _____ _____    ______ ____
ROOT
ATOM      1  C   UNL     1      33.773 -22.792 -15.549  0.00  0.00    +0.007 C 
ATOM      2  C   UNL     1      34.247 -22.589 -16.845  0.00  0.00    -0.006 C 
ATOM      3  C   UNL     1      34.536 -22.382 -14.455  0.00  0.00    -0.002 C 
ATOM      4  C   UNL     1      35.484 -21.976 -17.048  0.00  0.00    -0.021 C 
ATOM      5  C   UNL     1      36.246 -21.566 -15.954  0.00  0.00    -0.025 C 
ATOM      6  C   UNL     1      35.772 -21.770 -14.658  0.00  0.00    -0.005 C 
ATOM      7  C   UNL     1      37.573 -20.908 -16.145  0.00  0.00    +0.031 C 
ENDROOT
BRANCH   1  11
ATOM      8  O   UNL     1      31.417 -22.555 -15.787  0.00  0.00    -0.347 OA
ATOM      9  C   UNL     1      32.205 -23.828 -13.855  0.00  0.00    +0.171 C 
ATOM     10  C   UNL     1      30.783 -24.350 -13.630  0.00  0.00    +0.169 C 
ATOM     11  C   UNL     1      32.429 -23.458 -15.329  0.00  0.00    +0.167 C 
ATOM     12  C   UNL     1      29.745 -23.423 -14.260  0.00  0.00    +0.169 C 
ATOM     13  C   UNL     1      30.104 -23.114 -15.715  0.00  0.00    +0.174 C 
BRANCH   9  14
ATOM     14  O   UNL     1      33.136 -24.848 -13.494  0.00  0.00    -0.379 OA
ATOM     15  H   UNL     1      32.670 -25.563 -13.033  0.00  0.00    +0.211 HD
ENDBRANCH   9  14
BRANCH  10  16
ATOM     16  O   UNL     1      30.520 -24.419 -12.228  0.00  0.00    -0.379 OA
ATOM     17  H   UNL     1      31.237 -23.984 -11.742  0.00  0.00    +0.211 HD
ENDBRANCH  10  16
BRANCH  12  18
ATOM     18  O   UNL     1      28.466 -24.050 -14.216  0.00  0.00    -0.379 OA
ATOM     19  H   UNL     1      27.919 -23.621 -13.537  0.00  0.00    +0.211 HD
ENDBRANCH  12  18
BRANCH  13  20
ATOM     20  C   UNL     1      29.143 -22.103 -16.332  0.00  0.00    +0.169 C 
BRANCH  20  21
ATOM     21  O   UNL     1      28.221 -22.801 -17.151  0.00  0.00    -0.379 OA
ATOM     22  H   UNL     1      27.511 -22.198 -17.425  0.00  0.00    +0.211 HD
ENDBRANCH  20  21
ENDBRANCH  13  20
ENDBRANCH   1  11
BRANCH   4  23
ATOM     23  C   UNL     1      35.970 -21.769 -18.444  0.00  0.00    +0.059 C 
BRANCH  23  25
ATOM     24  S   UNL     1      36.195 -19.368 -19.847  0.00  0.00    -0.091 S 
ATOM     25  C   UNL     1      35.269 -20.643 -19.176  0.00  0.00    +0.012 C 
ATOM     26  C   UNL     1      33.921 -20.477 -19.403  0.00  0.00    +0.003 C 
ATOM     27  C   UNL     1      34.792 -18.590 -20.441  0.00  0.00    +0.029 C 
ATOM     28  C   UNL     1      33.644 -19.287 -20.136  0.00  0.00    +0.007 C 
BRANCH  27  30
ATOM     29  F   UNL     1      35.347 -13.794 -23.227  0.00  0.00    -0.204 F 
ATOM     30  C   UNL     1      34.935 -17.347 -21.164  0.00  0.00    +0.006 C 
ATOM     31  C   UNL     1      34.973 -16.137 -20.469  0.00  0.00    +0.003 C 
ATOM     32  C   UNL     1      35.037 -17.356 -22.555  0.00  0.00    +0.003 C 
ATOM     33  C   UNL     1      35.113 -14.937 -21.166  0.00  0.00    +0.030 C 
ATOM     34  C   UNL     1      35.176 -16.156 -23.251  0.00  0.00    +0.030 C 
ATOM     35  C   UNL     1      35.214 -14.946 -22.557  0.00  0.00    +0.140 C 
ENDBRANCH  27  30
ENDBRANCH  23  25
ENDBRANCH   4  23
TORSDOF 9
ENDMDL
MODEL 6
REMARK VINA RESULT:     -10.7     10.724     15.574
REMARK  Name = 24812758
REMARK  9 active torsions:
REMARK  status: ('A' for Active; 'I' for Inactive)
REMARK    1  A    between atoms: C_1  and  C_11
REMARK    2  A    between atoms: C_4  and  C_23
REMARK    3  A    between atoms: C_9  and  O_14
REMARK    4  A    between atoms: C_10  and  O_16
REMARK    5  A    between atoms: C_12  and  O_18
REMARK    6  A    between atoms: C_13  and  C_20
REMARK    7  A    between atoms: C_20  and  O_21
REMARK    8  A    between atoms: C_23  and  C_25
REMARK    9  A    between atoms: C_27  and  C_30
REMARK                            x       y       z     vdW  Elec       q    Type
REMARK                         _______ _______ _______ _____ _____    ______ ____
ROOT
ATOM      1  C   UNL     1      34.470  -8.130 -24.026  0.00  0.00    +0.007 C 
ATOM      2  C   UNL     1      33.872  -9.389 -24.077  0.00  0.00    -0.006 C 
ATOM      3  C   UNL     1      35.491  -7.807 -24.921  0.00  0.00    -0.002 C 
ATOM      4  C   UNL     1      34.292 -10.324 -25.022  0.00  0.00    -0.021 C 
ATOM      5  C   UNL     1      35.313 -10.001 -25.917  0.00  0.00    -0.025 C 
ATOM      6  C   UNL     1      35.911  -8.742 -25.866  0.00  0.00    -0.005 C 
ATOM      7  C   UNL     1      35.780 -10.985 -26.938  0.00  0.00    +0.031 C 
ENDROOT
BRANCH   1  11
ATOM      8  O   UNL     1      33.511  -7.834 -21.868  0.00  0.00    -0.347 OA
ATOM      9  C   UNL     1      32.941  -6.168 -23.563  0.00  0.00    +0.171 C 
ATOM     10  C   UNL     1      32.380  -5.258 -22.467  0.00  0.00    +0.169 C 
ATOM     11  C   UNL     1      34.013  -7.114 -22.999  0.00  0.00    +0.167 C 
ATOM     12  C   UNL     1      31.990  -6.059 -21.226  0.00  0.00    +0.169 C 
ATOM     13  C   UNL     1      33.133  -6.977 -20.790  0.00  0.00    +0.174 C 
BRANCH   9  14
ATOM     14  O   UNL     1      33.535  -5.360 -24.579  0.00  0.00    -0.379 OA
ATOM     15  H   UNL     1      33.251  -4.439 -24.466  0.00  0.00    +0.211 HD
ENDBRANCH   9  14
BRANCH  10  16
ATOM     16  O   UNL     1      31.210  -4.598 -22.952  0.00  0.00    -0.379 OA
ATOM     17  H   UNL     1      30.706  -4.241 -22.204  0.00  0.00    +0.211 HD
ENDBRANCH  10  16
BRANCH  12  18
ATOM     18  O   UNL     1      31.678  -5.160 -20.164  0.00  0.00    -0.379 OA
ATOM     19  H   UNL     1      31.976  -5.541 -19.322  0.00  0.00    +0.211 HD
ENDBRANCH  12  18
BRANCH  13  20
ATOM     20  C   UNL     1      32.729  -7.867 -19.619  0.00  0.00    +0.169 C 
BRANCH  20  21
ATOM     21  O   UNL     1      32.714  -7.082 -18.440  0.00  0.00    -0.379 OA
ATOM     22  H   UNL     1      33.617  -6.790 -18.234  0.00  0.00    +0.211 HD
ENDBRANCH  20  21
ENDBRANCH  13  20
ENDBRANCH   1  11
BRANCH   4  23
ATOM     23  C   UNL     1      33.636 -11.665 -25.058  0.00  0.00    +0.059 C 
BRANCH  23  25
ATOM     24  S   UNL     1      34.243 -14.255 -24.217  0.00  0.00    -0.091 S 
ATOM     25  C   UNL     1      34.048 -12.579 -23.922  0.00  0.00    +0.012 C 
ATOM     26  C   UNL     1      34.309 -12.251 -22.610  0.00  0.00    +0.003 C 
ATOM     27  C   UNL     1      34.677 -14.546 -22.587  0.00  0.00    +0.029 C 
ATOM     28  C   UNL     1      34.673 -13.392 -21.836  0.00  0.00    +0.007 C 
BRANCH  27  30
ATOM     29  F   UNL     1      35.868 -19.756 -21.004  0.00  0.00    -0.204 F 
ATOM     30  C   UNL     1      34.986 -15.896 -22.177  0.00  0.00    +0.006 C 
ATOM     31  C   UNL     1      35.307 -16.165 -20.846  0.00  0.00    +0.003 C 
ATOM     32  C   UNL     1      34.963 -16.932 -23.111  0.00  0.00    +0.003 C 
ATOM     33  C   UNL     1      35.604 -17.468 -20.450  0.00  0.00    +0.030 C 
ATOM     34  C   UNL     1      35.261 -18.235 -22.715  0.00  0.00    +0.030 C 
ATOM     35  C   UNL     1      35.582 -18.504 -21.384  0.00  0.00    +0.140 C 
ENDBRANCH  27  30
ENDBRANCH  23  25
ENDBRANCH   4  23
TORSDOF 9
ENDMDL
MODEL 7
REMARK VINA RESULT:     -10.7      8.171     12.691
REMARK  Name = 24812758
REMARK  9 active torsions:
REMARK  status: ('A' for Active; 'I' for Inactive)
REMARK    1  A    between atoms: C_1  and  C_11
REMARK    2  A    between atoms: C_4  and  C_23
REMARK    3  A    between atoms: C_9  and  O_14
REMARK    4  A    between atoms: C_10  and  O_16
REMARK    5  A    between atoms: C_12  and  O_18
REMARK    6  A    between atoms: C_13  and  C_20
REMARK    7  A    between atoms: C_20  and  O_21
REMARK    8  A    between atoms: C_23  and  C_25
REMARK    9  A    between atoms: C_27  and  C_30
REMARK                            x       y       z     vdW  Elec       q    Type
REMARK                         _______ _______ _______ _____ _____    ______ ____
ROOT
ATOM      1  C   UNL     1      33.818 -12.730 -22.894  0.00  0.00    +0.007 C 
ATOM      2  C   UNL     1      34.785 -13.643 -22.474  0.00  0.00    -0.006 C 
ATOM      3  C   UNL     1      33.067 -12.987 -24.042  0.00  0.00    -0.002 C 
ATOM      4  C   UNL     1      35.004 -14.812 -23.201  0.00  0.00    -0.021 C 
ATOM      5  C   UNL     1      34.253 -15.070 -24.349  0.00  0.00    -0.025 C 
ATOM      6  C   UNL     1      33.286 -14.157 -24.769  0.00  0.00    -0.005 C 
ATOM      7  C   UNL     1      34.468 -16.315 -25.145  0.00  0.00    +0.031 C 
ENDROOT
BRANCH   1  11
ATOM      8  O   UNL     1      32.308 -11.578 -21.459  0.00  0.00    -0.347 OA
ATOM      9  C   UNL     1      33.627 -10.209 -22.996  0.00  0.00    +0.171 C 
ATOM     10  C   UNL     1      33.227  -8.958 -22.209  0.00  0.00    +0.169 C 
ATOM     11  C   UNL     1      33.581 -11.459 -22.103  0.00  0.00    +0.167 C 
ATOM     12  C   UNL     1      31.935  -9.182 -21.426  0.00  0.00    +0.169 C 
ATOM     13  C   UNL     1      32.014 -10.472 -20.606  0.00  0.00    +0.174 C 
BRANCH   9  14
ATOM     14  O   UNL     1      34.958 -10.045 -23.484  0.00  0.00    -0.379 OA
ATOM     15  H   UNL     1      35.474  -9.526 -22.848  0.00  0.00    +0.211 HD
ENDBRANCH   9  14
BRANCH  10  16
ATOM     16  O   UNL     1      33.011  -7.876 -23.116  0.00  0.00    -0.379 OA
ATOM     17  H   UNL     1      33.740  -7.241 -23.043  0.00  0.00    +0.211 HD
ENDBRANCH  10  16
BRANCH  12  18
ATOM     18  O   UNL     1      31.718  -8.080 -20.548  0.00  0.00    -0.379 OA
ATOM     19  H   UNL     1      32.075  -7.272 -20.951  0.00  0.00    +0.211 HD
ENDBRANCH  12  18
BRANCH  13  20
ATOM     20  C   UNL     1      30.696 -10.775 -19.901  0.00  0.00    +0.169 C 
BRANCH  20  21
ATOM     21  O   UNL     1      30.654 -10.043 -18.689  0.00  0.00    -0.379 OA
ATOM     22  H   UNL     1      30.216 -10.575 -18.005  0.00  0.00    +0.211 HD
ENDBRANCH  20  21
ENDBRANCH  13  20
ENDBRANCH   1  11
BRANCH   4  23
ATOM     23  C   UNL     1      36.044 -15.775 -22.733  0.00  0.00    +0.059 C 
BRANCH  23  25
ATOM     24  S   UNL     1      35.728 -17.575 -20.626  0.00  0.00    -0.091 S 
ATOM     25  C   UNL     1      35.483 -17.097 -22.252  0.00  0.00    +0.012 C 
ATOM     26  C   UNL     1      34.759 -18.030 -22.961  0.00  0.00    +0.003 C 
ATOM     27  C   UNL     1      34.866 -19.034 -20.868  0.00  0.00    +0.029 C 
ATOM     28  C   UNL     1      34.402 -19.153 -22.159  0.00  0.00    +0.007 C 
BRANCH  27  30
ATOM     29  F   UNL     1      34.295 -22.567 -16.596  0.00  0.00    -0.204 F 
ATOM     30  C   UNL     1      34.718 -19.950 -19.761  0.00  0.00    +0.006 C 
ATOM     31  C   UNL     1      35.847 -20.426 -19.093  0.00  0.00    +0.003 C 
ATOM     32  C   UNL     1      33.446 -20.359 -19.359  0.00  0.00    +0.003 C 
ATOM     33  C   UNL     1      35.704 -21.310 -18.024  0.00  0.00    +0.030 C 
ATOM     34  C   UNL     1      33.304 -21.242 -18.290  0.00  0.00    +0.030 C 
ATOM     35  C   UNL     1      34.433 -21.718 -17.622  0.00  0.00    +0.140 C 
ENDBRANCH  27  30
ENDBRANCH  23  25
ENDBRANCH   4  23
TORSDOF 9
ENDMDL
MODEL 8
REMARK VINA RESULT:     -10.3      2.650      4.720
REMARK  Name = 24812758
REMARK  9 active torsions:
REMARK  status: ('A' for Active; 'I' for Inactive)
REMARK    1  A    between atoms: C_1  and  C_11
REMARK    2  A    between atoms: C_4  and  C_23
REMARK    3  A    between atoms: C_9  and  O_14
REMARK    4  A    between atoms: C_10  and  O_16
REMARK    5  A    between atoms: C_12  and  O_18
REMARK    6  A    between atoms: C_13  and  C_20
REMARK    7  A    between atoms: C_20  and  O_21
REMARK    8  A    between atoms: C_23  and  C_25
REMARK    9  A    between atoms: C_27  and  C_30
REMARK                            x       y       z     vdW  Elec       q    Type
REMARK                         _______ _______ _______ _____ _____    ______ ____
ROOT
ATOM      1  C   UNL     1      34.619 -21.880 -17.308  0.00  0.00    +0.007 C 
ATOM      2  C   UNL     1      35.489 -21.364 -18.268  0.00  0.00    -0.006 C 
ATOM      3  C   UNL     1      33.247 -21.652 -17.416  0.00  0.00    -0.002 C 
ATOM      4  C   UNL     1      34.989 -20.619 -19.336  0.00  0.00    -0.021 C 
ATOM      5  C   UNL     1      33.617 -20.391 -19.443  0.00  0.00    -0.025 C 
ATOM      6  C   UNL     1      32.746 -20.907 -18.484  0.00  0.00    -0.005 C 
ATOM      7  C   UNL     1      33.056 -19.597 -20.578  0.00  0.00    +0.031 C 
ENDROOT
BRANCH   1  11
ATOM      8  O   UNL     1      34.126 -22.797 -15.168  0.00  0.00    -0.347 OA
ATOM      9  C   UNL     1      36.423 -22.051 -15.542  0.00  0.00    +0.171 C 
ATOM     10  C   UNL     1      36.860 -22.793 -14.276  0.00  0.00    +0.169 C 
ATOM     11  C   UNL     1      35.164 -22.689 -16.148  0.00  0.00    +0.167 C 
ATOM     12  C   UNL     1      35.685 -23.008 -13.324  0.00  0.00    +0.169 C 
ATOM     13  C   UNL     1      34.493 -23.621 -14.061  0.00  0.00    +0.174 C 
BRANCH   9  14
ATOM     14  O   UNL     1      37.475 -22.113 -16.504  0.00  0.00    -0.379 OA
ATOM     15  H   UNL     1      37.104 -22.323 -17.376  0.00  0.00    +0.211 HD
ENDBRANCH   9  14
BRANCH  10  16
ATOM     16  O   UNL     1      37.848 -22.022 -13.591  0.00  0.00    -0.379 OA
ATOM     17  H   UNL     1      37.425 -21.502 -12.891  0.00  0.00    +0.211 HD
ENDBRANCH  10  16
BRANCH  12  18
ATOM     18  O   UNL     1      36.086 -23.882 -12.272  0.00  0.00    -0.379 OA
ATOM     19  H   UNL     1      37.018 -23.720 -12.054  0.00  0.00    +0.211 HD
ENDBRANCH  12  18
BRANCH  13  20
ATOM     20  C   UNL     1      33.271 -23.745 -13.157  0.00  0.00    +0.169 C 
BRANCH  20  21
ATOM     21  O   UNL     1      33.341 -22.736 -12.165  0.00  0.00    -0.379 OA
ATOM     22  H   UNL     1      32.810 -23.000 -11.397  0.00  0.00    +0.211 HD
ENDBRANCH  20  21
ENDBRANCH  13  20
ENDBRANCH   1  11
BRANCH   4  23
ATOM     23  C   UNL     1      35.939 -20.077 -20.352  0.00  0.00    +0.059 C 
BRANCH  23  25
ATOM     24  S   UNL     1      35.190 -18.185 -22.258  0.00  0.00    -0.091 S 
ATOM     25  C   UNL     1      35.712 -18.617 -20.686  0.00  0.00    +0.012 C 
ATOM     26  C   UNL     1      35.865 -17.518 -19.871  0.00  0.00    +0.003 C 
ATOM     27  C   UNL     1      35.169 -16.522 -21.852  0.00  0.00    +0.029 C 
ATOM     28  C   UNL     1      35.551 -16.303 -20.547  0.00  0.00    +0.007 C 
BRANCH  27  30
ATOM     29  F   UNL     1      33.660 -12.819 -25.735  0.00  0.00    -0.204 F 
ATOM     30  C   UNL     1      34.778 -15.562 -22.858  0.00  0.00    +0.006 C 
ATOM     31  C   UNL     1      34.652 -15.959 -24.190  0.00  0.00    +0.003 C 
ATOM     32  C   UNL     1      34.527 -14.238 -22.499  0.00  0.00    +0.003 C 
ATOM     33  C   UNL     1      34.274 -15.033 -25.161  0.00  0.00    +0.030 C 
ATOM     34  C   UNL     1      34.149 -13.312 -23.471  0.00  0.00    +0.030 C 
ATOM     35  C   UNL     1      34.023 -13.709 -24.802  0.00  0.00    +0.140 C 
ENDBRANCH  27  30
ENDBRANCH  23  25
ENDBRANCH   4  23
TORSDOF 9
ENDMDL
MODEL 9
REMARK VINA RESULT:     -10.3      4.472      7.953
REMARK  Name = 24812758
REMARK  9 active torsions:
REMARK  status: ('A' for Active; 'I' for Inactive)
REMARK    1  A    between atoms: C_1  and  C_11
REMARK    2  A    between atoms: C_4  and  C_23
REMARK    3  A    between atoms: C_9  and  O_14
REMARK    4  A    between atoms: C_10  and  O_16
REMARK    5  A    between atoms: C_12  and  O_18
REMARK    6  A    between atoms: C_13  and  C_20
REMARK    7  A    between atoms: C_20  and  O_21
REMARK    8  A    between atoms: C_23  and  C_25
REMARK    9  A    between atoms: C_27  and  C_30
REMARK                            x       y       z     vdW  Elec       q    Type
REMARK                         _______ _______ _______ _____ _____    ______ ____
ROOT
ATOM      1  C   UNL     1      35.822 -21.626 -17.059  0.00  0.00    +0.007 C 
ATOM      2  C   UNL     1      35.047 -22.550 -16.358  0.00  0.00    -0.006 C 
ATOM      3  C   UNL     1      36.964 -21.083 -16.469  0.00  0.00    -0.002 C 
ATOM      4  C   UNL     1      35.412 -22.930 -15.066  0.00  0.00    -0.021 C 
ATOM      5  C   UNL     1      36.554 -22.386 -14.476  0.00  0.00    -0.025 C 
ATOM      6  C   UNL     1      37.329 -21.463 -15.178  0.00  0.00    -0.005 C 
ATOM      7  C   UNL     1      36.966 -22.777 -13.095  0.00  0.00    +0.031 C 
ENDROOT
BRANCH   1  11
ATOM      8  O   UNL     1      36.198 -20.061 -18.812  0.00  0.00    -0.347 OA
ATOM      9  C   UNL     1      33.922 -20.916 -18.571  0.00  0.00    +0.171 C 
ATOM     10  C   UNL     1      33.572 -20.349 -19.949  0.00  0.00    +0.169 C 
ATOM     11  C   UNL     1      35.425 -21.214 -18.462  0.00  0.00    +0.167 C 
ATOM     12  C   UNL     1      34.516 -19.212 -20.338  0.00  0.00    +0.169 C 
ATOM     13  C   UNL     1      35.976 -19.632 -20.156  0.00  0.00    +0.174 C 
BRANCH   9  14
ATOM     14  O   UNL     1      33.200 -22.132 -18.373  0.00  0.00    -0.379 OA
ATOM     15  H   UNL     1      33.192 -22.641 -19.198  0.00  0.00    +0.211 HD
ENDBRANCH   9  14
BRANCH  10  16
ATOM     16  O   UNL     1      32.242 -19.829 -19.925  0.00  0.00    -0.379 OA
ATOM     17  H   UNL     1      31.782 -20.078 -20.742  0.00  0.00    +0.211 HD
ENDBRANCH  10  16
BRANCH  12  18
ATOM     18  O   UNL     1      34.295 -18.862 -21.702  0.00  0.00    -0.379 OA
ATOM     19  H   UNL     1      35.143 -18.644 -22.121  0.00  0.00    +0.211 HD
ENDBRANCH  12  18
BRANCH  13  20
ATOM     20  C   UNL     1      36.935 -18.479 -20.433  0.00  0.00    +0.169 C 
BRANCH  20  21
ATOM     21  O   UNL     1      36.185 -17.281 -20.527  0.00  0.00    -0.379 OA
ATOM     22  H   UNL     1      36.384 -16.840 -21.368  0.00  0.00    +0.211 HD
ENDBRANCH  20  21
ENDBRANCH  13  20
ENDBRANCH   1  11
BRANCH   4  23
ATOM     23  C   UNL     1      34.567 -23.920 -14.335  0.00  0.00    +0.059 C 
BRANCH  23  25
ATOM     24  S   UNL     1      32.088 -23.249 -15.423  0.00  0.00    -0.091 S 
ATOM     25  C   UNL     1      33.147 -23.452 -14.092  0.00  0.00    +0.012 C 
ATOM     26  C   UNL     1      32.537 -23.150 -12.895  0.00  0.00    +0.003 C 
ATOM     27  C   UNL     1      30.810 -22.754 -14.398  0.00  0.00    +0.029 C 
ATOM     28  C   UNL     1      31.183 -22.745 -13.072  0.00  0.00    +0.007 C 
BRANCH  27  30
ATOM     29  F   UNL     1      25.895 -21.428 -16.667  0.00  0.00    -0.204 F 
ATOM     30  C   UNL     1      29.536 -22.410 -14.986  0.00  0.00    +0.006 C 
ATOM     31  C   UNL     1      28.598 -21.688 -14.247  0.00  0.00    +0.003 C 
ATOM     32  C   UNL     1      29.243 -22.801 -16.293  0.00  0.00    +0.003 C 
ATOM     33  C   UNL     1      27.369 -21.356 -14.815  0.00  0.00    +0.030 C 
ATOM     34  C   UNL     1      28.014 -22.469 -16.860  0.00  0.00    +0.030 C 
ATOM     35  C   UNL     1      27.076 -21.746 -16.122  0.00  0.00    +0.140 C 
ENDBRANCH  27  30
ENDBRANCH  23  25
ENDBRANCH   4  23
TORSDOF 9
ENDMDL
