MODEL 1
REMARK VINA RESULT:     -12.3      0.000      0.000
REMARK  Name = 24779724
REMARK  3 active torsions:
REMARK  status: ('A' for Active; 'I' for Inactive)
REMARK    1  A    between atoms: C_5  and  C_12
REMARK    2  A    between atoms: C_7  and  S_16
REMARK    3  A    between atoms: S_16  and  C_19
REMARK                            x       y       z     vdW  Elec       q    Type
REMARK                         _______ _______ _______ _____ _____    ______ ____
ROOT
ATOM      1  N   UNL     1      34.795 -21.020 -18.394  0.00  0.00    -0.186 N 
ATOM      2  N   UNL     1      35.770 -21.385 -17.525  0.00  0.00    -0.162 NA
ATOM      3  N   UNL     1      32.836 -20.793 -19.360  0.00  0.00    -0.126 NA
ATOM      4  N   UNL     1      33.774 -20.107 -20.105  0.00  0.00    -0.120 NA
ATOM      5  C   UNL     1      35.344 -22.115 -16.533  0.00  0.00    +0.104 C 
ATOM      6  C   UNL     1      33.459 -21.337 -18.336  0.00  0.00    +0.187 A 
ATOM      7  C   UNL     1      34.939 -20.254 -19.515  0.00  0.00    +0.217 A 
ATOM      8  C   UNL     1      33.922 -22.553 -16.352  0.00  0.00    +0.024 C 
ATOM      9  C   UNL     1      33.030 -22.143 -17.263  0.00  0.00    +0.042 C 
ENDROOT
BRANCH   5  12
ATOM     10  N   UNL     1      37.252 -23.639 -13.845  0.00  0.00    -0.208 N 
ATOM     11  N   UNL     1      38.211 -22.788 -14.249  0.00  0.00    -0.176 NA
ATOM     12  C   UNL     1      36.317 -22.575 -15.508  0.00  0.00    +0.056 C 
ATOM     13  C   UNL     1      36.098 -23.550 -14.567  0.00  0.00    +0.087 C 
ATOM     14  C   UNL     1      37.635 -22.141 -15.265  0.00  0.00    +0.121 C 
ATOM     15  C   UNL     1      37.504 -24.531 -12.739  0.00  0.00    +0.140 C 
ENDBRANCH   5  12
BRANCH   7  16
ATOM     16  S   UNL     1      36.501 -19.575 -20.052  0.00  0.00    -0.051 S 
BRANCH  16  19
ATOM     17  N   UNL     1      34.729 -14.637 -22.855  0.00  0.00    -0.248 NA
ATOM     18  C   UNL     1      35.210 -15.788 -20.794  0.00  0.00    -0.003 C 
ATOM     19  C   UNL     1      35.970 -18.091 -20.882  0.00  0.00    +0.011 C 
ATOM     20  C   UNL     1      35.128 -15.744 -22.201  0.00  0.00    +0.060 C 
ATOM     21  C   UNL     1      35.631 -16.961 -20.144  0.00  0.00    +0.060 C 
ATOM     22  C   UNL     1      35.891 -18.055 -22.268  0.00  0.00    -0.017 C 
ATOM     23  C   UNL     1      35.473 -16.889 -22.914  0.00  0.00    +0.072 C 
ATOM     24  C   UNL     1      34.863 -14.636 -20.077  0.00  0.00    -0.001 C 
ATOM     25  C   UNL     1      34.451 -13.493 -20.747  0.00  0.00    +0.020 C 
ATOM     26  C   UNL     1      34.403 -13.546 -22.126  0.00  0.00    +0.098 C 
ENDBRANCH  16  19
ENDBRANCH   7  16
TORSDOF 3
ENDMDL
MODEL 2
REMARK VINA RESULT:     -11.9      1.095      2.002
REMARK  Name = 24779724
REMARK  3 active torsions:
REMARK  status: ('A' for Active; 'I' for Inactive)
REMARK    1  A    between atoms: C_5  and  C_12
REMARK    2  A    between atoms: C_7  and  S_16
REMARK    3  A    between atoms: S_16  and  C_19
REMARK                            x       y       z     vdW  Elec       q    Type
REMARK                         _______ _______ _______ _____ _____    ______ ____
ROOT
ATOM      1  N   UNL     1      34.761 -21.279 -18.055  0.00  0.00    -0.186 N 
ATOM      2  N   UNL     1      35.749 -21.639 -17.198  0.00  0.00    -0.162 NA
ATOM      3  N   UNL     1      32.787 -21.056 -18.992  0.00  0.00    -0.126 NA
ATOM      4  N   UNL     1      33.715 -20.379 -19.758  0.00  0.00    -0.120 NA
ATOM      5  C   UNL     1      35.337 -22.359 -16.193  0.00  0.00    +0.104 C 
ATOM      6  C   UNL     1      33.425 -21.592 -17.973  0.00  0.00    +0.187 A 
ATOM      7  C   UNL     1      34.889 -20.524 -19.185  0.00  0.00    +0.217 A 
ATOM      8  C   UNL     1      33.917 -22.790 -15.985  0.00  0.00    +0.024 C 
ATOM      9  C   UNL     1      33.012 -22.387 -16.885  0.00  0.00    +0.042 C 
ENDROOT
BRANCH   5  12
ATOM     10  N   UNL     1      37.289 -23.874 -13.532  0.00  0.00    -0.208 N 
ATOM     11  N   UNL     1      38.233 -23.008 -13.939  0.00  0.00    -0.176 NA
ATOM     12  C   UNL     1      36.325 -22.811 -15.180  0.00  0.00    +0.056 C 
ATOM     13  C   UNL     1      36.127 -23.795 -14.242  0.00  0.00    +0.087 C 
ATOM     14  C   UNL     1      37.639 -22.363 -14.946  0.00  0.00    +0.121 C 
ATOM     15  C   UNL     1      37.563 -24.769 -12.433  0.00  0.00    +0.140 C 
ENDBRANCH   5  12
BRANCH   7  16
ATOM     16  S   UNL     1      36.444 -19.855 -19.754  0.00  0.00    -0.051 S 
BRANCH  16  19
ATOM     17  N   UNL     1      34.604 -15.576 -23.455  0.00  0.00    -0.248 NA
ATOM     18  C   UNL     1      34.885 -17.921 -22.978  0.00  0.00    -0.003 C 
ATOM     19  C   UNL     1      35.889 -18.582 -20.869  0.00  0.00    +0.011 C 
ATOM     20  C   UNL     1      35.013 -16.560 -22.632  0.00  0.00    +0.060 C 
ATOM     21  C   UNL     1      35.324 -18.922 -22.094  0.00  0.00    +0.060 C 
ATOM     22  C   UNL     1      36.019 -17.243 -20.522  0.00  0.00    -0.017 C 
ATOM     23  C   UNL     1      35.583 -16.248 -21.400  0.00  0.00    +0.072 C 
ATOM     24  C   UNL     1      34.312 -18.235 -24.217  0.00  0.00    -0.001 C 
ATOM     25  C   UNL     1      33.889 -17.224 -25.068  0.00  0.00    +0.020 C 
ATOM     26  C   UNL     1      34.056 -15.922 -24.642  0.00  0.00    +0.098 C 
ENDBRANCH  16  19
ENDBRANCH   7  16
TORSDOF 3
ENDMDL
MODEL 3
REMARK VINA RESULT:     -10.9      2.653      4.158
REMARK  Name = 24779724
REMARK  3 active torsions:
REMARK  status: ('A' for Active; 'I' for Inactive)
REMARK    1  A    between atoms: C_5  and  C_12
REMARK    2  A    between atoms: C_7  and  S_16
REMARK    3  A    between atoms: S_16  and  C_19
REMARK                            x       y       z     vdW  Elec       q    Type
REMARK                         _______ _______ _______ _____ _____    ______ ____
ROOT
ATOM      1  N   UNL     1      34.058 -23.239 -15.454  0.00  0.00    -0.186 N 
ATOM      2  N   UNL     1      35.258 -23.864 -15.355  0.00  0.00    -0.162 NA
ATOM      3  N   UNL     1      32.187 -22.214 -14.931  0.00  0.00    -0.126 NA
ATOM      4  N   UNL     1      32.249 -22.340 -16.304  0.00  0.00    -0.120 NA
ATOM      5  C   UNL     1      35.683 -23.995 -14.130  0.00  0.00    +0.104 C 
ATOM      6  C   UNL     1      33.277 -22.756 -14.430  0.00  0.00    +0.187 A 
ATOM      7  C   UNL     1      33.371 -22.956 -16.599  0.00  0.00    +0.217 A 
ATOM      8  C   UNL     1      34.931 -23.534 -12.917  0.00  0.00    +0.024 C 
ATOM      9  C   UNL     1      33.754 -22.927 -13.116  0.00  0.00    +0.042 C 
ENDROOT
BRANCH   5  12
ATOM     10  N   UNL     1      39.131 -25.079 -13.784  0.00  0.00    -0.208 N 
ATOM     11  N   UNL     1      38.571 -26.193 -13.284  0.00  0.00    -0.176 NA
ATOM     12  C   UNL     1      36.990 -24.659 -13.889  0.00  0.00    +0.056 C 
ATOM     13  C   UNL     1      38.227 -24.129 -14.162  0.00  0.00    +0.087 C 
ATOM     14  C   UNL     1      37.263 -25.931 -13.350  0.00  0.00    +0.121 C 
ATOM     15  C   UNL     1      40.568 -24.978 -13.879  0.00  0.00    +0.140 C 
ENDBRANCH   5  12
BRANCH   7  16
ATOM     16  S   UNL     1      33.959 -23.380 -18.232  0.00  0.00    -0.051 S 
BRANCH  16  19
ATOM     17  N   UNL     1      34.813 -17.985 -20.586  0.00  0.00    -0.248 NA
ATOM     18  C   UNL     1      35.736 -20.027 -19.701  0.00  0.00    -0.003 C 
ATOM     19  C   UNL     1      34.226 -21.767 -18.937  0.00  0.00    +0.011 C 
ATOM     20  C   UNL     1      34.642 -19.209 -20.053  0.00  0.00    +0.060 C 
ATOM     21  C   UNL     1      35.520 -21.300 -19.146  0.00  0.00    +0.060 C 
ATOM     22  C   UNL     1      33.144 -20.966 -19.281  0.00  0.00    -0.017 C 
ATOM     23  C   UNL     1      33.358 -19.701 -19.833  0.00  0.00    +0.072 C 
ATOM     24  C   UNL     1      37.028 -19.532 -19.922  0.00  0.00    -0.001 C 
ATOM     25  C   UNL     1      37.208 -18.271 -20.472  0.00  0.00    +0.020 C 
ATOM     26  C   UNL     1      36.077 -17.544 -20.784  0.00  0.00    +0.098 C 
ENDBRANCH  16  19
ENDBRANCH   7  16
TORSDOF 3
ENDMDL
MODEL 4
REMARK VINA RESULT:     -10.8      2.792      9.581
REMARK  Name = 24779724
REMARK  3 active torsions:
REMARK  status: ('A' for Active; 'I' for Inactive)
REMARK    1  A    between atoms: C_5  and  C_12
REMARK    2  A    between atoms: C_7  and  S_16
REMARK    3  A    between atoms: S_16  and  C_19
REMARK                            x       y       z     vdW  Elec       q    Type
REMARK                         _______ _______ _______ _____ _____    ______ ____
ROOT
ATOM      1  N   UNL     1      34.848 -16.835 -23.460  0.00  0.00    -0.186 N 
ATOM      2  N   UNL     1      34.901 -15.508 -23.186  0.00  0.00    -0.162 NA
ATOM      3  N   UNL     1      34.338 -18.756 -24.394  0.00  0.00    -0.126 NA
ATOM      4  N   UNL     1      35.217 -18.993 -23.357  0.00  0.00    -0.120 NA
ATOM      5  C   UNL     1      34.169 -14.777 -23.978  0.00  0.00    +0.104 C 
ATOM      6  C   UNL     1      34.123 -17.459 -24.448  0.00  0.00    +0.187 A 
ATOM      7  C   UNL     1      35.510 -17.836 -22.809  0.00  0.00    +0.217 A 
ATOM      8  C   UNL     1      33.314 -15.321 -25.084  0.00  0.00    +0.024 C 
ATOM      9  C   UNL     1      33.326 -16.645 -25.278  0.00  0.00    +0.042 C 
ENDROOT
BRANCH   5  12
ATOM     10  N   UNL     1      34.006 -11.153 -24.136  0.00  0.00    -0.208 N 
ATOM     11  N   UNL     1      34.238 -11.238 -22.815  0.00  0.00    -0.176 NA
ATOM     12  C   UNL     1      34.147 -13.305 -23.783  0.00  0.00    +0.056 C 
ATOM     13  C   UNL     1      33.943 -12.364 -24.762  0.00  0.00    +0.087 C 
ATOM     14  C   UNL     1      34.323 -12.554 -22.605  0.00  0.00    +0.121 C 
ATOM     15  C   UNL     1      33.850  -9.859 -24.755  0.00  0.00    +0.140 C 
ENDBRANCH   5  12
BRANCH   7  16
ATOM     16  S   UNL     1      36.604 -17.557 -21.425  0.00  0.00    -0.051 S 
BRANCH  16  19
ATOM     17  N   UNL     1      35.082 -22.009 -17.785  0.00  0.00    -0.248 NA
ATOM     18  C   UNL     1      34.420 -20.202 -19.235  0.00  0.00    -0.003 C 
ATOM     19  C   UNL     1      36.137 -18.888 -20.337  0.00  0.00    +0.011 C 
ATOM     20  C   UNL     1      35.404 -20.998 -18.613  0.00  0.00    +0.060 C 
ATOM     21  C   UNL     1      34.793 -19.154 -20.092  0.00  0.00    +0.060 C 
ATOM     22  C   UNL     1      37.112 -19.667 -19.727  0.00  0.00    -0.017 C 
ATOM     23  C   UNL     1      36.741 -20.710 -18.875  0.00  0.00    +0.072 C 
ATOM     24  C   UNL     1      33.075 -20.492 -18.971  0.00  0.00    -0.001 C 
ATOM     25  C   UNL     1      32.738 -21.534 -18.119  0.00  0.00    +0.020 C 
ATOM     26  C   UNL     1      33.772 -22.256 -17.557  0.00  0.00    +0.098 C 
ENDBRANCH  16  19
ENDBRANCH   7  16
TORSDOF 3
ENDMDL
MODEL 5
REMARK VINA RESULT:     -10.7      2.805      9.559
REMARK  Name = 24779724
REMARK  3 active torsions:
REMARK  status: ('A' for Active; 'I' for Inactive)
REMARK    1  A    between atoms: C_5  and  C_12
REMARK    2  A    between atoms: C_7  and  S_16
REMARK    3  A    between atoms: S_16  and  C_19
REMARK                            x       y       z     vdW  Elec       q    Type
REMARK                         _______ _______ _______ _____ _____    ______ ____
ROOT
ATOM      1  N   UNL     1      34.688 -16.808 -23.527  0.00  0.00    -0.186 N 
ATOM      2  N   UNL     1      34.727 -15.542 -23.042  0.00  0.00    -0.162 NA
ATOM      3  N   UNL     1      34.275 -18.542 -24.810  0.00  0.00    -0.126 NA
ATOM      4  N   UNL     1      35.002 -18.969 -23.717  0.00  0.00    -0.120 NA
ATOM      5  C   UNL     1      34.120 -14.671 -23.799  0.00  0.00    +0.104 C 
ATOM      6  C   UNL     1      34.091 -17.244 -24.686  0.00  0.00    +0.187 A 
ATOM      7  C   UNL     1      35.239 -17.921 -22.961  0.00  0.00    +0.217 A 
ATOM      8  C   UNL     1      33.413 -15.004 -25.078  0.00  0.00    +0.024 C 
ATOM      9  C   UNL     1      33.428 -16.283 -25.475  0.00  0.00    +0.042 C 
ENDROOT
BRANCH   5  12
ATOM     10  N   UNL     1      34.055 -11.061 -23.404  0.00  0.00    -0.208 N 
ATOM     11  N   UNL     1      34.080 -11.357 -22.094  0.00  0.00    -0.176 NA
ATOM     12  C   UNL     1      34.098 -13.246 -23.379  0.00  0.00    +0.056 C 
ATOM     13  C   UNL     1      34.065 -12.158 -24.217  0.00  0.00    +0.087 C 
ATOM     14  C   UNL     1      34.105 -12.692 -22.084  0.00  0.00    +0.121 C 
ATOM     15  C   UNL     1      34.021  -9.682 -23.828  0.00  0.00    +0.140 C 
ENDBRANCH   5  12
BRANCH   7  16
ATOM     16  S   UNL     1      36.141 -17.900 -21.419  0.00  0.00    -0.051 S 
BRANCH  16  19
ATOM     17  N   UNL     1      32.866 -21.629 -18.139  0.00  0.00    -0.248 NA
ATOM     18  C   UNL     1      35.017 -20.679 -18.668  0.00  0.00    -0.003 C 
ATOM     19  C   UNL     1      35.169 -19.019 -20.431  0.00  0.00    +0.011 C 
ATOM     20  C   UNL     1      33.625 -20.791 -18.870  0.00  0.00    +0.060 C 
ATOM     21  C   UNL     1      35.778 -19.795 -19.449  0.00  0.00    +0.060 C 
ATOM     22  C   UNL     1      33.800 -19.124 -20.636  0.00  0.00    -0.017 C 
ATOM     23  C   UNL     1      33.042 -20.004 -19.859  0.00  0.00    +0.072 C 
ATOM     24  C   UNL     1      35.604 -21.472 -17.672  0.00  0.00    -0.001 C 
ATOM     25  C   UNL     1      34.824 -22.336 -16.917  0.00  0.00    +0.020 C 
ATOM     26  C   UNL     1      33.471 -22.376 -17.188  0.00  0.00    +0.098 C 
ENDBRANCH  16  19
ENDBRANCH   7  16
TORSDOF 3
ENDMDL
MODEL 6
REMARK VINA RESULT:     -10.7      2.627      9.186
REMARK  Name = 24779724
REMARK  3 active torsions:
REMARK  status: ('A' for Active; 'I' for Inactive)
REMARK    1  A    between atoms: C_5  and  C_12
REMARK    2  A    between atoms: C_7  and  S_16
REMARK    3  A    between atoms: S_16  and  C_19
REMARK                            x       y       z     vdW  Elec       q    Type
REMARK                         _______ _______ _______ _____ _____    ______ ____
ROOT
ATOM      1  N   UNL     1      35.449 -19.563 -20.128  0.00  0.00    -0.186 N 
ATOM      2  N   UNL     1      34.777 -19.061 -21.193  0.00  0.00    -0.162 NA
ATOM      3  N   UNL     1      37.034 -19.985 -18.667  0.00  0.00    -0.126 NA
ATOM      4  N   UNL     1      35.905 -20.691 -18.304  0.00  0.00    -0.120 NA
ATOM      5  C   UNL     1      35.485 -18.246 -21.924  0.00  0.00    +0.104 C 
ATOM      6  C   UNL     1      36.751 -19.312 -19.762  0.00  0.00    +0.187 A 
ATOM      7  C   UNL     1      34.969 -20.429 -19.187  0.00  0.00    +0.217 A 
ATOM      8  C   UNL     1      36.917 -17.894 -21.657  0.00  0.00    +0.024 C 
ATOM      9  C   UNL     1      37.496 -18.441 -20.581  0.00  0.00    +0.042 C 
ENDROOT
BRANCH   5  12
ATOM     10  N   UNL     1      34.181 -16.171 -24.604  0.00  0.00    -0.208 N 
ATOM     11  N   UNL     1      33.718 -17.341 -25.078  0.00  0.00    -0.176 NA
ATOM     12  C   UNL     1      34.858 -17.623 -23.119  0.00  0.00    +0.056 C 
ATOM     13  C   UNL     1      34.871 -16.286 -23.433  0.00  0.00    +0.087 C 
ATOM     14  C   UNL     1      34.134 -18.224 -24.167  0.00  0.00    +0.121 C 
ATOM     15  C   UNL     1      33.927 -14.951 -25.332  0.00  0.00    +0.140 C 
ENDBRANCH   5  12
BRANCH   7  16
ATOM     16  S   UNL     1      33.304 -21.076 -19.202  0.00  0.00    -0.051 S 
BRANCH  16  19
ATOM     17  N   UNL     1      33.033 -23.626 -13.835  0.00  0.00    -0.248 NA
ATOM     18  C   UNL     1      31.920 -22.495 -15.648  0.00  0.00    -0.003 C 
ATOM     19  C   UNL     1      33.212 -21.838 -17.595  0.00  0.00    +0.011 C 
ATOM     20  C   UNL     1      33.072 -23.046 -15.048  0.00  0.00    +0.060 C 
ATOM     21  C   UNL     1      31.998 -21.896 -16.916  0.00  0.00    +0.060 C 
ATOM     22  C   UNL     1      34.350 -22.377 -17.010  0.00  0.00    -0.017 C 
ATOM     23  C   UNL     1      34.273 -22.973 -15.749  0.00  0.00    +0.072 C 
ATOM     24  C   UNL     1      30.712 -22.568 -14.943  0.00  0.00    -0.001 C 
ATOM     25  C   UNL     1      30.668 -23.166 -13.692  0.00  0.00    +0.020 C 
ATOM     26  C   UNL     1      31.847 -23.676 -13.187  0.00  0.00    +0.098 C 
ENDBRANCH  16  19
ENDBRANCH   7  16
TORSDOF 3
ENDMDL
MODEL 7
REMARK VINA RESULT:     -10.4      2.415      9.161
REMARK  Name = 24779724
REMARK  3 active torsions:
REMARK  status: ('A' for Active; 'I' for Inactive)
REMARK    1  A    between atoms: C_5  and  C_12
REMARK    2  A    between atoms: C_7  and  S_16
REMARK    3  A    between atoms: S_16  and  C_19
REMARK                            x       y       z     vdW  Elec       q    Type
REMARK                         _______ _______ _______ _____ _____    ______ ____
ROOT
ATOM      1  N   UNL     1      35.478 -19.540 -20.193  0.00  0.00    -0.186 N 
ATOM      2  N   UNL     1      34.796 -19.039 -21.252  0.00  0.00    -0.162 NA
ATOM      3  N   UNL     1      37.076 -19.955 -18.744  0.00  0.00    -0.126 NA
ATOM      4  N   UNL     1      35.954 -20.669 -18.376  0.00  0.00    -0.120 NA
ATOM      5  C   UNL     1      35.493 -18.217 -21.985  0.00  0.00    +0.104 C 
ATOM      6  C   UNL     1      36.780 -19.280 -19.835  0.00  0.00    +0.187 A 
ATOM      7  C   UNL     1      35.010 -20.411 -19.252  0.00  0.00    +0.217 A 
ATOM      8  C   UNL     1      36.925 -17.855 -21.727  0.00  0.00    +0.024 C 
ATOM      9  C   UNL     1      37.515 -18.402 -20.656  0.00  0.00    +0.042 C 
ENDROOT
BRANCH   5  12
ATOM     10  N   UNL     1      34.155 -16.143 -24.650  0.00  0.00    -0.208 N 
ATOM     11  N   UNL     1      33.702 -17.315 -25.127  0.00  0.00    -0.176 NA
ATOM     12  C   UNL     1      34.854 -17.595 -23.174  0.00  0.00    +0.056 C 
ATOM     13  C   UNL     1      34.851 -16.257 -23.482  0.00  0.00    +0.087 C 
ATOM     14  C   UNL     1      34.133 -18.198 -24.223  0.00  0.00    +0.121 C 
ATOM     15  C   UNL     1      33.883 -14.923 -25.370  0.00  0.00    +0.140 C 
ENDBRANCH   5  12
BRANCH   7  16
ATOM     16  S   UNL     1      33.350 -21.070 -19.258  0.00  0.00    -0.051 S 
BRANCH  16  19
ATOM     17  N   UNL     1      32.965 -23.400 -13.798  0.00  0.00    -0.248 NA
ATOM     18  C   UNL     1      34.325 -22.707 -15.662  0.00  0.00    -0.003 C 
ATOM     19  C   UNL     1      33.246 -21.768 -17.623  0.00  0.00    +0.011 C 
ATOM     20  C   UNL     1      33.074 -22.874 -15.032  0.00  0.00    +0.060 C 
ATOM     21  C   UNL     1      34.402 -22.155 -16.952  0.00  0.00    +0.060 C 
ATOM     22  C   UNL     1      32.011 -21.931 -17.009  0.00  0.00    -0.017 C 
ATOM     23  C   UNL     1      31.934 -22.479 -15.727  0.00  0.00    +0.072 C 
ATOM     24  C   UNL     1      35.473 -23.105 -14.963  0.00  0.00    -0.001 C 
ATOM     25  C   UNL     1      35.364 -23.646 -13.691  0.00  0.00    +0.020 C 
ATOM     26  C   UNL     1      34.097 -23.771 -13.158  0.00  0.00    +0.098 C 
ENDBRANCH  16  19
ENDBRANCH   7  16
TORSDOF 3
ENDMDL
MODEL 8
REMARK VINA RESULT:     -10.3      2.176      9.113
REMARK  Name = 24779724
REMARK  3 active torsions:
REMARK  status: ('A' for Active; 'I' for Inactive)
REMARK    1  A    between atoms: C_5  and  C_12
REMARK    2  A    between atoms: C_7  and  S_16
REMARK    3  A    between atoms: S_16  and  C_19
REMARK                            x       y       z     vdW  Elec       q    Type
REMARK                         _______ _______ _______ _____ _____    ______ ____
ROOT
ATOM      1  N   UNL     1      35.141 -21.037 -18.138  0.00  0.00    -0.186 N 
ATOM      2  N   UNL     1      35.641 -20.076 -18.954  0.00  0.00    -0.162 NA
ATOM      3  N   UNL     1      33.793 -22.518 -17.236  0.00  0.00    -0.126 NA
ATOM      4  N   UNL     1      34.977 -22.514 -16.527  0.00  0.00    -0.120 NA
ATOM      5  C   UNL     1      34.819 -19.705 -19.894  0.00  0.00    +0.104 C 
ATOM      6  C   UNL     1      33.901 -21.628 -18.201  0.00  0.00    +0.187 A 
ATOM      7  C   UNL     1      35.770 -21.623 -17.077  0.00  0.00    +0.217 A 
ATOM      8  C   UNL     1      33.433 -20.248 -20.073  0.00  0.00    +0.024 C 
ATOM      9  C   UNL     1      33.027 -21.195 -19.217  0.00  0.00    +0.042 C 
ENDROOT
BRANCH   5  12
ATOM     10  N   UNL     1      35.342 -17.305 -22.569  0.00  0.00    -0.208 N 
ATOM     11  N   UNL     1      36.457 -17.010 -21.880  0.00  0.00    -0.176 NA
ATOM     12  C   UNL     1      35.253 -18.660 -20.858  0.00  0.00    +0.056 C 
ATOM     13  C   UNL     1      34.586 -18.288 -21.999  0.00  0.00    +0.087 C 
ATOM     14  C   UNL     1      36.397 -17.840 -20.836  0.00  0.00    +0.121 C 
ATOM     15  C   UNL     1      35.047 -16.599 -23.793  0.00  0.00    +0.140 C 
ENDBRANCH   5  12
BRANCH   7  16
ATOM     16  S   UNL     1      37.427 -21.205 -16.559  0.00  0.00    -0.051 S 
BRANCH  16  19
ATOM     17  N   UNL     1      38.200 -24.893 -11.956  0.00  0.00    -0.248 NA
ATOM     18  C   UNL     1      36.944 -23.123 -13.003  0.00  0.00    -0.003 C 
ATOM     19  C   UNL     1      37.649 -22.305 -15.177  0.00  0.00    +0.011 C 
ATOM     20  C   UNL     1      38.007 -24.050 -12.988  0.00  0.00    +0.060 C 
ATOM     21  C   UNL     1      36.772 -22.258 -14.097  0.00  0.00    +0.060 C 
ATOM     22  C   UNL     1      38.698 -23.215 -15.168  0.00  0.00    -0.017 C 
ATOM     23  C   UNL     1      38.869 -24.075 -14.081  0.00  0.00    +0.072 C 
ATOM     24  C   UNL     1      36.076 -23.097 -11.903  0.00  0.00    -0.001 C 
ATOM     25  C   UNL     1      36.272 -23.964 -10.838  0.00  0.00    +0.020 C 
ATOM     26  C   UNL     1      37.340 -24.835 -10.914  0.00  0.00    +0.098 C 
ENDBRANCH  16  19
ENDBRANCH   7  16
TORSDOF 3
ENDMDL
MODEL 9
REMARK VINA RESULT:     -10.2      6.811     11.640
REMARK  Name = 24779724
REMARK  3 active torsions:
REMARK  status: ('A' for Active; 'I' for Inactive)
REMARK    1  A    between atoms: C_5  and  C_12
REMARK    2  A    between atoms: C_7  and  S_16
REMARK    3  A    between atoms: S_16  and  C_19
REMARK                            x       y       z     vdW  Elec       q    Type
REMARK                         _______ _______ _______ _____ _____    ______ ____
ROOT
ATOM      1  N   UNL     1      32.657 -11.309 -21.068  0.00  0.00    -0.186 N 
ATOM      2  N   UNL     1      32.654 -10.036 -21.534  0.00  0.00    -0.162 NA
ATOM      3  N   UNL     1      32.287 -13.078 -19.819  0.00  0.00    -0.126 NA
ATOM      4  N   UNL     1      33.043 -13.461 -20.908  0.00  0.00    -0.120 NA
ATOM      5  C   UNL     1      31.992  -9.202 -20.782  0.00  0.00    +0.104 C 
ATOM      6  C   UNL     1      32.060 -11.785 -19.924  0.00  0.00    +0.187 A 
ATOM      7  C   UNL     1      33.257 -12.393 -21.642  0.00  0.00    +0.217 A 
ATOM      8  C   UNL     1      31.308  -9.575 -19.501  0.00  0.00    +0.024 C 
ATOM      9  C   UNL     1      31.367 -10.858 -19.121  0.00  0.00    +0.042 C 
ENDROOT
BRANCH   5  12
ATOM     10  N   UNL     1      32.028  -5.594 -21.191  0.00  0.00    -0.208 N 
ATOM     11  N   UNL     1      31.531  -5.880 -22.407  0.00  0.00    -0.176 NA
ATOM     12  C   UNL     1      31.910  -7.776 -21.189  0.00  0.00    +0.056 C 
ATOM     13  C   UNL     1      32.271  -6.695 -20.422  0.00  0.00    +0.087 C 
ATOM     14  C   UNL     1      31.462  -7.214 -22.400  0.00  0.00    +0.121 C 
ATOM     15  C   UNL     1      32.252  -4.219 -20.813  0.00  0.00    +0.140 C 
ENDBRANCH   5  12
BRANCH   7  16
ATOM     16  S   UNL     1      34.180 -12.315 -23.169  0.00  0.00    -0.051 S 
BRANCH  16  19
ATOM     17  N   UNL     1      34.121 -18.011 -24.882  0.00  0.00    -0.248 NA
ATOM     18  C   UNL     1      34.800 -16.335 -23.289  0.00  0.00    -0.003 C 
ATOM     19  C   UNL     1      34.168 -14.023 -23.672  0.00  0.00    +0.011 C 
ATOM     20  C   UNL     1      34.146 -16.728 -24.476  0.00  0.00    +0.060 C 
ATOM     21  C   UNL     1      34.806 -14.986 -22.896  0.00  0.00    +0.060 C 
ATOM     22  C   UNL     1      33.523 -14.403 -24.842  0.00  0.00    -0.017 C 
ATOM     23  C   UNL     1      33.517 -15.744 -25.233  0.00  0.00    +0.072 C 
ATOM     24  C   UNL     1      35.434 -17.325 -22.527  0.00  0.00    -0.001 C 
ATOM     25  C   UNL     1      35.410 -18.649 -22.942  0.00  0.00    +0.020 C 
ATOM     26  C   UNL     1      34.745 -18.936 -24.117  0.00  0.00    +0.098 C 
ENDBRANCH  16  19
ENDBRANCH   7  16
TORSDOF 3
ENDMDL
