MODEL 1
REMARK VINA RESULT:     -11.2      0.000      0.000
REMARK  Name = 445018
REMARK  7 active torsions:
REMARK  status: ('A' for Active; 'I' for Inactive)
REMARK    1  A    between atoms: N_2  and  S_14
REMARK    2  A    between atoms: N_3  and  C_25
REMARK    3  A    between atoms: C_4  and  C_10
REMARK    4  A    between atoms: N_9  and  O_12
REMARK    5  A    between atoms: S_14  and  C_17
REMARK    6  A    between atoms: C_22  and  O_23
REMARK    7  A    between atoms: C_25  and  C_26
REMARK                            x       y       z     vdW  Elec       q    Type
REMARK                         _______ _______ _______ _____ _____    ______ ____
ROOT
ATOM      1  O   UNL     1      36.482 -22.042 -16.713  0.00  0.00    -0.275 OA
ATOM      2  N   UNL     1      33.380 -23.320 -14.373  0.00  0.00    -0.128 NA
ATOM      3  N   UNL     1      34.222 -22.581 -16.535  0.00  0.00    -0.260 N 
ATOM      4  C   UNL     1      34.657 -22.908 -13.734  0.00  0.00    +0.168 C 
ATOM      5  C   UNL     1      33.072 -22.621 -15.644  0.00  0.00    +0.192 C 
ATOM      6  C   UNL     1      35.455 -21.900 -14.552  0.00  0.00    +0.112 C 
ATOM      7  C   UNL     1      35.463 -22.192 -16.041  0.00  0.00    +0.229 C 
ENDROOT
BRANCH   4  10
ATOM      8  O   UNL     1      35.560 -24.981 -14.475  0.00  0.00    -0.272 OA
ATOM      9  N   UNL     1      35.931 -24.325 -12.290  0.00  0.00    -0.196 N 
ATOM     10  C   UNL     1      35.421 -24.180 -13.553  0.00  0.00    +0.261 C 
ATOM     11  H   UNL     1      35.789 -23.651 -11.587  0.00  0.00    +0.182 HD
BRANCH   9  12
ATOM     12  O   UNL     1      36.670 -25.494 -12.061  0.00  0.00    -0.295 OA
ATOM     13  H   UNL     1      37.456 -25.496 -12.627  0.00  0.00    +0.241 HD
ENDBRANCH   9  12
ENDBRANCH   4  10
BRANCH   2  14
ATOM     14  S   UNL     1      32.055 -23.623 -13.337  0.00  0.00    +0.065 S 
ATOM     15  O   UNL     1      31.993 -22.586 -12.329  0.00  0.00    -0.153 OA
ATOM     16  O   UNL     1      32.054 -25.022 -12.964  0.00  0.00    -0.153 OA
BRANCH  14  17
ATOM     17  C   UNL     1      30.716 -23.362 -14.459  0.00  0.00    +0.122 C 
ATOM     18  C   UNL     1      30.215 -22.083 -14.630  0.00  0.00    +0.023 C 
ATOM     19  C   UNL     1      30.191 -24.442 -15.149  0.00  0.00    +0.023 C 
ATOM     20  C   UNL     1      29.157 -21.876 -15.516  0.00  0.00    +0.038 C 
ATOM     21  C   UNL     1      29.132 -24.237 -16.036  0.00  0.00    +0.038 C 
ATOM     22  C   UNL     1      28.616 -22.953 -16.218  0.00  0.00    +0.139 C 
BRANCH  22  23
ATOM     23  O   UNL     1      27.585 -22.752 -17.084  0.00  0.00    -0.471 OA
ATOM     24  C   UNL     1      26.902 -21.502 -17.000  0.00  0.00    +0.252 C 
ENDBRANCH  22  23
ENDBRANCH  14  17
ENDBRANCH   2  14
BRANCH   3  25
ATOM     25  C   UNL     1      34.004 -22.820 -17.951  0.00  0.00    +0.121 C 
BRANCH  25  26
ATOM     26  C   UNL     1      34.134 -21.562 -18.760  0.00  0.00    -0.002 C 
ATOM     27  C   UNL     1      35.383 -21.168 -19.224  0.00  0.00    -0.003 C 
ATOM     28  C   UNL     1      33.003 -20.801 -19.036  0.00  0.00    -0.003 C 
ATOM     29  C   UNL     1      35.503 -19.999 -19.975  0.00  0.00    -0.000 C 
ATOM     30  C   UNL     1      33.123 -19.633 -19.787  0.00  0.00    -0.000 C 
ATOM     31  C   UNL     1      34.374 -19.231 -20.256  0.00  0.00    -0.000 C 
ENDBRANCH  25  26
ENDBRANCH   3  25
TORSDOF 7
ENDMDL
MODEL 2
REMARK VINA RESULT:      -9.1      3.200      7.215
REMARK  Name = 445018
REMARK  7 active torsions:
REMARK  status: ('A' for Active; 'I' for Inactive)
REMARK    1  A    between atoms: N_2  and  S_14
REMARK    2  A    between atoms: N_3  and  C_25
REMARK    3  A    between atoms: C_4  and  C_10
REMARK    4  A    between atoms: N_9  and  O_12
REMARK    5  A    between atoms: S_14  and  C_17
REMARK    6  A    between atoms: C_22  and  O_23
REMARK    7  A    between atoms: C_25  and  C_26
REMARK                            x       y       z     vdW  Elec       q    Type
REMARK                         _______ _______ _______ _____ _____    ______ ____
ROOT
ATOM      1  O   UNL     1      32.452 -22.942 -15.849  0.00  0.00    -0.275 OA
ATOM      2  N   UNL     1      34.930 -23.635 -12.670  0.00  0.00    -0.128 NA
ATOM      3  N   UNL     1      32.701 -23.665 -13.648  0.00  0.00    -0.260 N 
ATOM      4  C   UNL     1      35.429 -22.848 -13.827  0.00  0.00    +0.168 C 
ATOM      5  C   UNL     1      33.473 -23.517 -12.424  0.00  0.00    +0.192 C 
ATOM      6  C   UNL     1      34.329 -22.129 -14.599  0.00  0.00    +0.112 C 
ATOM      7  C   UNL     1      33.072 -22.959 -14.788  0.00  0.00    +0.229 C 
ENDROOT
BRANCH   4  10
ATOM      8  O   UNL     1      37.157 -23.553 -15.303  0.00  0.00    -0.272 OA
ATOM      9  N   UNL     1      35.516 -25.068 -14.708  0.00  0.00    -0.196 N 
ATOM     10  C   UNL     1      36.130 -23.844 -14.692  0.00  0.00    +0.261 C 
ATOM     11  H   UNL     1      34.693 -25.248 -14.199  0.00  0.00    +0.182 HD
BRANCH   9  12
ATOM     12  O   UNL     1      36.134 -26.051 -15.494  0.00  0.00    -0.295 OA
ATOM     13  H   UNL     1      35.475 -26.705 -15.772  0.00  0.00    +0.241 HD
ENDBRANCH   9  12
ENDBRANCH   4  10
BRANCH   2  14
ATOM     14  S   UNL     1      35.927 -23.695 -11.283  0.00  0.00    +0.065 S 
ATOM     15  O   UNL     1      35.418 -24.700 -10.374  0.00  0.00    -0.153 OA
ATOM     16  O   UNL     1      36.189 -22.345 -10.828  0.00  0.00    -0.153 OA
BRANCH  14  17
ATOM     17  C   UNL     1      37.417 -24.322 -11.997  0.00  0.00    +0.122 C 
ATOM     18  C   UNL     1      37.481 -25.655 -12.368  0.00  0.00    +0.023 C 
ATOM     19  C   UNL     1      38.494 -23.470 -12.174  0.00  0.00    +0.023 C 
ATOM     20  C   UNL     1      38.657 -26.151 -12.931  0.00  0.00    +0.038 C 
ATOM     21  C   UNL     1      39.671 -23.966 -12.738  0.00  0.00    +0.038 C 
ATOM     22  C   UNL     1      39.752 -25.306 -13.116  0.00  0.00    +0.139 C 
BRANCH  22  23
ATOM     23  O   UNL     1      40.899 -25.790 -13.667  0.00  0.00    -0.471 OA
ATOM     24  C   UNL     1      41.110 -25.534 -15.054  0.00  0.00    +0.252 C 
ENDBRANCH  22  23
ENDBRANCH  14  17
ENDBRANCH   2  14
BRANCH   3  25
ATOM     25  C   UNL     1      31.479 -24.450 -13.601  0.00  0.00    +0.121 C 
BRANCH  25  26
ATOM     26  C   UNL     1      30.342 -23.761 -14.299  0.00  0.00    -0.002 C 
ATOM     27  C   UNL     1      29.624 -24.438 -15.278  0.00  0.00    -0.003 C 
ATOM     28  C   UNL     1      30.018 -22.452 -13.960  0.00  0.00    -0.003 C 
ATOM     29  C   UNL     1      28.569 -23.798 -15.927  0.00  0.00    -0.000 C 
ATOM     30  C   UNL     1      28.962 -21.812 -14.609  0.00  0.00    -0.000 C 
ATOM     31  C   UNL     1      28.238 -22.485 -15.593  0.00  0.00    -0.000 C 
ENDBRANCH  25  26
ENDBRANCH   3  25
TORSDOF 7
ENDMDL
MODEL 3
REMARK VINA RESULT:      -8.9      2.201      3.254
REMARK  Name = 445018
REMARK  7 active torsions:
REMARK  status: ('A' for Active; 'I' for Inactive)
REMARK    1  A    between atoms: N_2  and  S_14
REMARK    2  A    between atoms: N_3  and  C_25
REMARK    3  A    between atoms: C_4  and  C_10
REMARK    4  A    between atoms: N_9  and  O_12
REMARK    5  A    between atoms: S_14  and  C_17
REMARK    6  A    between atoms: C_22  and  O_23
REMARK    7  A    between atoms: C_25  and  C_26
REMARK                            x       y       z     vdW  Elec       q    Type
REMARK                         _______ _______ _______ _____ _____    ______ ____
ROOT
ATOM      1  O   UNL     1      39.369 -23.079 -15.840  0.00  0.00    -0.275 OA
ATOM      2  N   UNL     1      36.073 -23.456 -13.449  0.00  0.00    -0.128 NA
ATOM      3  N   UNL     1      37.573 -22.059 -14.762  0.00  0.00    -0.260 N 
ATOM      4  C   UNL     1      37.026 -24.590 -13.564  0.00  0.00    +0.168 C 
ATOM      5  C   UNL     1      36.684 -22.116 -13.611  0.00  0.00    +0.192 C 
ATOM      6  C   UNL     1      38.447 -24.163 -13.912  0.00  0.00    +0.112 C 
ATOM      7  C   UNL     1      38.516 -23.063 -14.955  0.00  0.00    +0.229 C 
ENDROOT
BRANCH   4  10
ATOM      8  O   UNL     1      35.258 -25.419 -14.925  0.00  0.00    -0.272 OA
ATOM      9  N   UNL     1      37.383 -26.282 -15.215  0.00  0.00    -0.196 N 
ATOM     10  C   UNL     1      36.451 -25.466 -14.630  0.00  0.00    +0.261 C 
ATOM     11  H   UNL     1      38.328 -26.279 -14.939  0.00  0.00    +0.182 HD
BRANCH   9  12
ATOM     12  O   UNL     1      36.907 -27.120 -16.232  0.00  0.00    -0.295 OA
ATOM     13  H   UNL     1      36.237 -27.720 -15.871  0.00  0.00    +0.241 HD
ENDBRANCH   9  12
ENDBRANCH   4  10
BRANCH   2  14
ATOM     14  S   UNL     1      34.847 -23.589 -12.266  0.00  0.00    +0.065 S 
ATOM     15  O   UNL     1      34.834 -22.388 -11.457  0.00  0.00    -0.153 OA
ATOM     16  O   UNL     1      34.920 -24.898 -11.650  0.00  0.00    -0.153 OA
BRANCH  14  17
ATOM     17  C   UNL     1      33.413 -23.557 -13.297  0.00  0.00    +0.122 C 
ATOM     18  C   UNL     1      33.322 -22.608 -14.302  0.00  0.00    +0.023 C 
ATOM     19  C   UNL     1      32.404 -24.482 -13.084  0.00  0.00    +0.023 C 
ATOM     20  C   UNL     1      32.190 -22.582 -15.116  0.00  0.00    +0.038 C 
ATOM     21  C   UNL     1      31.271 -24.457 -13.898  0.00  0.00    +0.038 C 
ATOM     22  C   UNL     1      31.164 -23.506 -14.914  0.00  0.00    +0.139 C 
BRANCH  22  23
ATOM     23  O   UNL     1      30.060 -23.482 -15.710  0.00  0.00    -0.471 OA
ATOM     24  C   UNL     1      29.321 -22.263 -15.757  0.00  0.00    +0.252 C 
ENDBRANCH  22  23
ENDBRANCH  14  17
ENDBRANCH   2  14
BRANCH   3  25
ATOM     25  C   UNL     1      37.534 -20.875 -15.604  0.00  0.00    +0.121 C 
BRANCH  25  26
ATOM     26  C   UNL     1      36.664 -21.073 -16.811  0.00  0.00    -0.002 C 
ATOM     27  C   UNL     1      35.482 -21.797 -16.696  0.00  0.00    -0.003 C 
ATOM     28  C   UNL     1      37.048 -20.532 -18.033  0.00  0.00    -0.003 C 
ATOM     29  C   UNL     1      34.674 -21.981 -17.818  0.00  0.00    -0.000 C 
ATOM     30  C   UNL     1      36.239 -20.716 -19.154  0.00  0.00    -0.000 C 
ATOM     31  C   UNL     1      35.052 -21.441 -19.047  0.00  0.00    -0.000 C 
ENDBRANCH  25  26
ENDBRANCH   3  25
TORSDOF 7
ENDMDL
MODEL 4
REMARK VINA RESULT:      -8.4      3.092      6.510
REMARK  Name = 445018
REMARK  7 active torsions:
REMARK  status: ('A' for Active; 'I' for Inactive)
REMARK    1  A    between atoms: N_2  and  S_14
REMARK    2  A    between atoms: N_3  and  C_25
REMARK    3  A    between atoms: C_4  and  C_10
REMARK    4  A    between atoms: N_9  and  O_12
REMARK    5  A    between atoms: S_14  and  C_17
REMARK    6  A    between atoms: C_22  and  O_23
REMARK    7  A    between atoms: C_25  and  C_26
REMARK                            x       y       z     vdW  Elec       q    Type
REMARK                         _______ _______ _______ _____ _____    ______ ____
ROOT
ATOM      1  O   UNL     1      36.897 -22.150 -12.940  0.00  0.00    -0.275 OA
ATOM      2  N   UNL     1      34.653 -22.589 -16.332  0.00  0.00    -0.128 NA
ATOM      3  N   UNL     1      36.808 -22.198 -15.268  0.00  0.00    -0.260 N 
ATOM      4  C   UNL     1      33.973 -22.403 -15.024  0.00  0.00    +0.168 C 
ATOM      5  C   UNL     1      35.980 -21.937 -16.436  0.00  0.00    +0.192 C 
ATOM      6  C   UNL     1      34.808 -21.643 -14.001  0.00  0.00    +0.112 C 
ATOM      7  C   UNL     1      36.274 -22.037 -13.994  0.00  0.00    +0.229 C 
ENDROOT
BRANCH   4  10
ATOM      8  O   UNL     1      34.433 -24.725 -14.778  0.00  0.00    -0.272 OA
ATOM      9  N   UNL     1      32.496 -23.872 -13.850  0.00  0.00    -0.196 N 
ATOM     10  C   UNL     1      33.671 -23.788 -14.550  0.00  0.00    +0.261 C 
ATOM     11  H   UNL     1      31.921 -23.087 -13.696  0.00  0.00    +0.182 HD
BRANCH   9  12
ATOM     12  O   UNL     1      32.163 -25.145 -13.368  0.00  0.00    -0.295 OA
ATOM     13  H   UNL     1      32.113 -25.121 -12.400  0.00  0.00    +0.241 HD
ENDBRANCH   9  12
ENDBRANCH   4  10
BRANCH   2  14
ATOM     14  S   UNL     1      33.674 -22.538 -17.731  0.00  0.00    +0.065 S 
ATOM     15  O   UNL     1      32.360 -22.044 -17.375  0.00  0.00    -0.153 OA
ATOM     16  O   UNL     1      33.828 -23.777 -18.464  0.00  0.00    -0.153 OA
BRANCH  14  17
ATOM     17  C   UNL     1      34.497 -21.267 -18.641  0.00  0.00    +0.122 C 
ATOM     18  C   UNL     1      35.881 -21.228 -18.652  0.00  0.00    +0.023 C 
ATOM     19  C   UNL     1      33.743 -20.329 -19.327  0.00  0.00    +0.023 C 
ATOM     20  C   UNL     1      36.531 -20.224 -19.369  0.00  0.00    +0.038 C 
ATOM     21  C   UNL     1      34.392 -19.324 -20.046  0.00  0.00    +0.038 C 
ATOM     22  C   UNL     1      35.786 -19.272 -20.067  0.00  0.00    +0.139 C 
BRANCH  22  23
ATOM     23  O   UNL     1      36.420 -18.293 -20.768  0.00  0.00    -0.471 OA
ATOM     24  C   UNL     1      35.786 -17.017 -20.819  0.00  0.00    +0.252 C 
ENDBRANCH  22  23
ENDBRANCH  14  17
ENDBRANCH   2  14
BRANCH   3  25
ATOM     25  C   UNL     1      38.216 -22.491 -15.474  0.00  0.00    +0.121 C 
BRANCH  25  26
ATOM     26  C   UNL     1      38.632 -23.761 -14.789  0.00  0.00    -0.002 C 
ATOM     27  C   UNL     1      39.938 -23.903 -14.336  0.00  0.00    -0.003 C 
ATOM     28  C   UNL     1      37.706 -24.784 -14.616  0.00  0.00    -0.003 C 
ATOM     29  C   UNL     1      40.324 -25.083 -13.700  0.00  0.00    -0.000 C 
ATOM     30  C   UNL     1      38.092 -25.964 -13.980  0.00  0.00    -0.000 C 
ATOM     31  C   UNL     1      39.401 -26.113 -13.522  0.00  0.00    -0.000 C 
ENDBRANCH  25  26
ENDBRANCH   3  25
TORSDOF 7
ENDMDL
MODEL 5
REMARK VINA RESULT:      -8.3     13.388     16.855
REMARK  Name = 445018
REMARK  7 active torsions:
REMARK  status: ('A' for Active; 'I' for Inactive)
REMARK    1  A    between atoms: N_2  and  S_14
REMARK    2  A    between atoms: N_3  and  C_25
REMARK    3  A    between atoms: C_4  and  C_10
REMARK    4  A    between atoms: N_9  and  O_12
REMARK    5  A    between atoms: S_14  and  C_17
REMARK    6  A    between atoms: C_22  and  O_23
REMARK    7  A    between atoms: C_25  and  C_26
REMARK                            x       y       z     vdW  Elec       q    Type
REMARK                         _______ _______ _______ _____ _____    ______ ____
ROOT
ATOM      1  O   UNL     1      32.476  -8.601 -17.964  0.00  0.00    -0.275 OA
ATOM      2  N   UNL     1      32.129  -6.852 -21.645  0.00  0.00    -0.128 NA
ATOM      3  N   UNL     1      31.903  -8.808 -20.213  0.00  0.00    -0.260 N 
ATOM      4  C   UNL     1      32.874  -6.148 -20.569  0.00  0.00    +0.168 C 
ATOM      5  C   UNL     1      32.172  -8.331 -21.562  0.00  0.00    +0.192 C 
ATOM      6  C   UNL     1      33.476  -7.085 -19.528  0.00  0.00    +0.112 C 
ATOM      7  C   UNL     1      32.561  -8.229 -19.133  0.00  0.00    +0.229 C 
ENDROOT
BRANCH   4  10
ATOM      8  O   UNL     1      31.954  -4.893 -18.770  0.00  0.00    -0.272 OA
ATOM      9  N   UNL     1      30.904  -4.819 -20.828  0.00  0.00    -0.196 N 
ATOM     10  C   UNL     1      31.873  -5.229 -19.950  0.00  0.00    +0.261 C 
ATOM     11  H   UNL     1      30.886  -5.120 -21.765  0.00  0.00    +0.182 HD
BRANCH   9  12
ATOM     12  O   UNL     1      29.940  -3.944 -20.309  0.00  0.00    -0.295 OA
ATOM     13  H   UNL     1      29.221  -4.455 -19.908  0.00  0.00    +0.241 HD
ENDBRANCH   9  12
ENDBRANCH   4  10
BRANCH   2  14
ATOM     14  S   UNL     1      32.214  -6.181 -23.215  0.00  0.00    +0.065 S 
ATOM     15  O   UNL     1      32.791  -4.856 -23.135  0.00  0.00    -0.153 OA
ATOM     16  O   UNL     1      30.954  -6.403 -23.895  0.00  0.00    -0.153 OA
BRANCH  14  17
ATOM     17  C   UNL     1      33.417  -7.248 -23.945  0.00  0.00    +0.122 C 
ATOM     18  C   UNL     1      33.125  -8.593 -24.102  0.00  0.00    +0.023 C 
ATOM     19  C   UNL     1      34.633  -6.722 -24.349  0.00  0.00    +0.023 C 
ATOM     20  C   UNL     1      34.075  -9.436 -24.678  0.00  0.00    +0.038 C 
ATOM     21  C   UNL     1      35.584  -7.564 -24.926  0.00  0.00    +0.038 C 
ATOM     22  C   UNL     1      35.305  -8.921 -25.090  0.00  0.00    +0.139 C 
BRANCH  22  23
ATOM     23  O   UNL     1      36.232  -9.743 -25.654  0.00  0.00    -0.471 OA
ATOM     24  C   UNL     1      35.827 -10.485 -26.803  0.00  0.00    +0.252 C 
ENDBRANCH  22  23
ENDBRANCH  14  17
ENDBRANCH   2  14
BRANCH   3  25
ATOM     25  C   UNL     1      31.050  -9.973 -20.052  0.00  0.00    +0.121 C 
BRANCH  25  26
ATOM     26  C   UNL     1      31.794 -11.253 -20.304  0.00  0.00    -0.002 C 
ATOM     27  C   UNL     1      31.868 -12.214 -19.302  0.00  0.00    -0.003 C 
ATOM     28  C   UNL     1      32.402 -11.465 -21.536  0.00  0.00    -0.003 C 
ATOM     29  C   UNL     1      32.559 -13.402 -19.536  0.00  0.00    -0.000 C 
ATOM     30  C   UNL     1      33.093 -12.653 -21.769  0.00  0.00    -0.000 C 
ATOM     31  C   UNL     1      33.172 -13.622 -20.769  0.00  0.00    -0.000 C 
ENDBRANCH  25  26
ENDBRANCH   3  25
TORSDOF 7
ENDMDL
MODEL 6
REMARK VINA RESULT:      -8.3     12.444     16.030
REMARK  Name = 445018
REMARK  7 active torsions:
REMARK  status: ('A' for Active; 'I' for Inactive)
REMARK    1  A    between atoms: N_2  and  S_14
REMARK    2  A    between atoms: N_3  and  C_25
REMARK    3  A    between atoms: C_4  and  C_10
REMARK    4  A    between atoms: N_9  and  O_12
REMARK    5  A    between atoms: S_14  and  C_17
REMARK    6  A    between atoms: C_22  and  O_23
REMARK    7  A    between atoms: C_25  and  C_26
REMARK                            x       y       z     vdW  Elec       q    Type
REMARK                         _______ _______ _______ _____ _____    ______ ____
ROOT
ATOM      1  O   UNL     1      31.097  -9.568 -18.997  0.00  0.00    -0.275 OA
ATOM      2  N   UNL     1      33.305  -7.954 -22.038  0.00  0.00    -0.128 NA
ATOM      3  N   UNL     1      32.305  -9.896 -20.962  0.00  0.00    -0.260 N 
ATOM      4  C   UNL     1      33.004  -7.132 -20.838  0.00  0.00    +0.168 C 
ATOM      5  C   UNL     1      33.406  -9.410 -21.781  0.00  0.00    +0.192 C 
ATOM      6  C   UNL     1      32.772  -7.954 -19.575  0.00  0.00    +0.112 C 
ATOM      7  C   UNL     1      31.951  -9.210 -19.805  0.00  0.00    +0.229 C 
ENDROOT
BRANCH   4  10
ATOM      8  O   UNL     1      31.052  -6.703 -22.129  0.00  0.00    -0.272 OA
ATOM      9  N   UNL     1      31.586  -5.256 -20.407  0.00  0.00    -0.196 N 
ATOM     10  C   UNL     1      31.782  -6.353 -21.204  0.00  0.00    +0.261 C 
ATOM     11  H   UNL     1      32.205  -5.021 -19.678  0.00  0.00    +0.182 HD
BRANCH   9  12
ATOM     12  O   UNL     1      30.448  -4.490 -20.693  0.00  0.00    -0.295 OA
ATOM     13  H   UNL     1      29.687  -5.076 -20.821  0.00  0.00    +0.241 HD
ENDBRANCH   9  12
ENDBRANCH   4  10
BRANCH   2  14
ATOM     14  S   UNL     1      34.416  -7.307 -23.164  0.00  0.00    +0.065 S 
ATOM     15  O   UNL     1      35.713  -7.181 -22.533  0.00  0.00    -0.153 OA
ATOM     16  O   UNL     1      33.806  -6.181 -23.840  0.00  0.00    -0.153 OA
BRANCH  14  17
ATOM     17  C   UNL     1      34.507  -8.644 -24.315  0.00  0.00    +0.122 C 
ATOM     18  C   UNL     1      33.408  -9.470 -24.484  0.00  0.00    +0.023 C 
ATOM     19  C   UNL     1      35.676  -8.842 -25.031  0.00  0.00    +0.023 C 
ATOM     20  C   UNL     1      33.480 -10.525 -25.392  0.00  0.00    +0.038 C 
ATOM     21  C   UNL     1      35.749  -9.898 -25.941  0.00  0.00    +0.038 C 
ATOM     22  C   UNL     1      34.650 -10.740 -26.121  0.00  0.00    +0.139 C 
BRANCH  22  23
ATOM     23  O   UNL     1      34.720 -11.769 -27.009  0.00  0.00    -0.471 OA
ATOM     24  C   UNL     1      34.220 -13.033 -26.577  0.00  0.00    +0.252 C 
ENDBRANCH  22  23
ENDBRANCH  14  17
ENDBRANCH   2  14
BRANCH   3  25
ATOM     25  C   UNL     1      31.695 -11.167 -21.313  0.00  0.00    +0.121 C 
BRANCH  25  26
ATOM     26  C   UNL     1      32.712 -12.267 -21.419  0.00  0.00    -0.002 C 
ATOM     27  C   UNL     1      33.230 -12.840 -20.264  0.00  0.00    -0.003 C 
ATOM     28  C   UNL     1      33.127 -12.702 -22.673  0.00  0.00    -0.003 C 
ATOM     29  C   UNL     1      34.174 -13.861 -20.363  0.00  0.00    -0.000 C 
ATOM     30  C   UNL     1      34.071 -13.723 -22.772  0.00  0.00    -0.000 C 
ATOM     31  C   UNL     1      34.595 -14.303 -21.617  0.00  0.00    -0.000 C 
ENDBRANCH  25  26
ENDBRANCH   3  25
TORSDOF 7
ENDMDL
