MODEL 1
REMARK VINA RESULT:     -11.9      0.000      0.000
REMARK  Name = 4413
REMARK  6 active torsions:
REMARK  status: ('A' for Active; 'I' for Inactive)
REMARK    1  A    between atoms: O_1  and  C_9
REMARK    2  A    between atoms: O_1  and  C_19
REMARK    3  A    between atoms: C_6  and  C_14
REMARK    4  A    between atoms: C_19  and  C_20
REMARK    5  A    between atoms: C_23  and  N_26
REMARK    6  A    between atoms: N_26  and  C_29
REMARK                            x       y       z     vdW  Elec       q    Type
REMARK                         _______ _______ _______ _____ _____    ______ ____
ROOT
ATOM      1  O   UNL     1      32.880 -22.085 -17.734  0.00  0.00    -0.421 OA
ENDROOT
BRANCH   1   9
ATOM      2  C   UNL     1      34.088 -23.129 -13.883  0.00  0.00    +0.000 C 
ATOM      3  C   UNL     1      35.033 -22.624 -14.808  0.00  0.00    +0.003 C 
ATOM      4  C   UNL     1      34.511 -23.476 -12.589  0.00  0.00    +0.003 C 
ATOM      5  C   UNL     1      34.609 -22.277 -16.101  0.00  0.00    +0.038 C 
ATOM      6  C   UNL     1      35.846 -23.326 -12.213  0.00  0.00    +0.031 C 
ATOM      7  C   UNL     1      36.372 -22.480 -14.413  0.00  0.00    +0.000 C 
ATOM      8  C   UNL     1      32.748 -23.273 -14.279  0.00  0.00    +0.003 C 
ATOM      9  C   UNL     1      33.274 -22.427 -16.478  0.00  0.00    +0.149 C 
ATOM     10  C   UNL     1      36.775 -22.829 -13.123  0.00  0.00    +0.003 C 
ATOM     11  C   UNL     1      32.346 -22.923 -15.568  0.00  0.00    +0.038 C 
BRANCH   6  14
ATOM     12  N   UNL     1      37.435 -23.170 -10.311  0.00  0.00    -0.343 N 
ATOM     13  N   UNL     1      35.542 -24.533 -10.158  0.00  0.00    -0.285 NA
ATOM     14  C   UNL     1      36.269 -23.690 -10.870  0.00  0.00    +0.117 C 
ATOM     15  H   UNL     1      37.701 -23.430  -9.399  0.00  0.00    +0.144 HD
ATOM     16  H   UNL     1      37.991 -22.542 -10.827  0.00  0.00    +0.144 HD
ATOM     17  H   UNL     1      35.827 -24.780  -9.248  0.00  0.00    +0.188 HD
ENDBRANCH   6  14
ENDBRANCH   1   9
BRANCH   1  19
ATOM     18  O   UNL     1      34.131 -23.476 -19.123  0.00  0.00    -0.244 OA
ATOM     19  C   UNL     1      33.821 -22.361 -18.728  0.00  0.00    +0.346 C 
BRANCH  19  20
ATOM     20  C   UNL     1      34.411 -21.113 -19.275  0.00  0.00    +0.076 C 
ATOM     21  C   UNL     1      35.783 -20.973 -19.289  0.00  0.00    +0.008 C 
ATOM     22  C   UNL     1      33.567 -20.132 -19.753  0.00  0.00    +0.008 C 
ATOM     23  C   UNL     1      35.506 -18.795 -20.295  0.00  0.00    +0.084 C 
ATOM     24  C   UNL     1      36.336 -19.802 -19.804  0.00  0.00    +0.019 C 
ATOM     25  C   UNL     1      34.121 -18.959 -20.269  0.00  0.00    +0.019 C 
BRANCH  23  26
ATOM     26  N   UNL     1      36.060 -17.620 -20.810  0.00  0.00    -0.214 NA
BRANCH  26  29
ATOM     27  N   UNL     1      35.806 -15.952 -22.426  0.00  0.00    -0.370 N 
ATOM     28  N   UNL     1      35.421 -18.103 -23.084  0.00  0.00    -0.370 N 
ATOM     29  C   UNL     1      35.775 -17.272 -22.043  0.00  0.00    +0.193 C 
ATOM     30  H   UNL     1      36.046 -15.255 -21.774  0.00  0.00    +0.159 HD
ATOM     31  H   UNL     1      35.591 -15.703 -23.355  0.00  0.00    +0.159 HD
ATOM     32  H   UNL     1      35.362 -19.074 -22.939  0.00  0.00    +0.159 HD
ATOM     33  H   UNL     1      35.229 -17.724 -23.973  0.00  0.00    +0.159 HD
ENDBRANCH  26  29
ENDBRANCH  23  26
ENDBRANCH  19  20
ENDBRANCH   1  19
TORSDOF 6
ENDMDL
MODEL 2
REMARK VINA RESULT:     -11.5      1.855      8.658
REMARK  Name = 4413
REMARK  6 active torsions:
REMARK  status: ('A' for Active; 'I' for Inactive)
REMARK    1  A    between atoms: O_1  and  C_9
REMARK    2  A    between atoms: O_1  and  C_19
REMARK    3  A    between atoms: C_6  and  C_14
REMARK    4  A    between atoms: C_19  and  C_20
REMARK    5  A    between atoms: C_23  and  N_26
REMARK    6  A    between atoms: N_26  and  C_29
REMARK                            x       y       z     vdW  Elec       q    Type
REMARK                         _______ _______ _______ _____ _____    ______ ____
ROOT
ATOM      1  O   UNL     1      34.324 -22.920 -17.533  0.00  0.00    -0.421 OA
ENDROOT
BRANCH   1   9
ATOM      2  C   UNL     1      34.309 -19.515 -19.939  0.00  0.00    +0.000 C 
ATOM      3  C   UNL     1      35.537 -20.055 -19.484  0.00  0.00    +0.003 C 
ATOM      4  C   UNL     1      34.322 -18.367 -20.749  0.00  0.00    +0.003 C 
ATOM      5  C   UNL     1      35.523 -21.202 -18.675  0.00  0.00    +0.038 C 
ATOM      6  C   UNL     1      35.527 -17.762 -21.106  0.00  0.00    +0.031 C 
ATOM      7  C   UNL     1      36.739 -19.432 -19.854  0.00  0.00    +0.000 C 
ATOM      8  C   UNL     1      33.106 -20.138 -19.570  0.00  0.00    +0.003 C 
ATOM      9  C   UNL     1      34.318 -21.808 -18.317  0.00  0.00    +0.149 C 
ATOM     10  C   UNL     1      36.734 -18.293 -20.659  0.00  0.00    +0.003 C 
ATOM     11  C   UNL     1      33.112 -21.277 -18.764  0.00  0.00    +0.038 C 
BRANCH   6  14
ATOM     12  N   UNL     1      35.249 -15.314 -21.417  0.00  0.00    -0.343 N 
ATOM     13  N   UNL     1      35.781 -16.680 -23.237  0.00  0.00    -0.285 NA
ATOM     14  C   UNL     1      35.523 -16.574 -21.945  0.00  0.00    +0.117 C 
ATOM     15  H   UNL     1      35.252 -14.523 -22.004  0.00  0.00    +0.144 HD
ATOM     16  H   UNL     1      35.052 -15.214 -20.458  0.00  0.00    +0.144 HD
ATOM     17  H   UNL     1      35.779 -15.877 -23.807  0.00  0.00    +0.188 HD
ENDBRANCH   6  14
ENDBRANCH   1   9
BRANCH   1  19
ATOM     18  O   UNL     1      32.979 -22.287 -15.739  0.00  0.00    -0.244 OA
ATOM     19  C   UNL     1      34.047 -22.676 -16.186  0.00  0.00    +0.346 C 
BRANCH  19  20
ATOM     20  C   UNL     1      35.229 -22.962 -15.333  0.00  0.00    +0.076 C 
ATOM     21  C   UNL     1      35.181 -24.031 -14.462  0.00  0.00    +0.008 C 
ATOM     22  C   UNL     1      36.340 -22.150 -15.441  0.00  0.00    +0.008 C 
ATOM     23  C   UNL     1      37.427 -23.495 -13.753  0.00  0.00    +0.084 C 
ATOM     24  C   UNL     1      36.292 -24.299 -13.664  0.00  0.00    +0.019 C 
ATOM     25  C   UNL     1      37.451 -22.419 -14.641  0.00  0.00    +0.019 C 
BRANCH  23  26
ATOM     26  N   UNL     1      38.540 -23.763 -12.951  0.00  0.00    -0.214 NA
BRANCH  26  29
ATOM     27  N   UNL     1      40.625 -24.632 -13.550  0.00  0.00    -0.370 N 
ATOM     28  N   UNL     1      38.917 -26.121 -13.285  0.00  0.00    -0.370 N 
ATOM     29  C   UNL     1      39.295 -24.797 -13.241  0.00  0.00    +0.193 C 
ATOM     30  H   UNL     1      41.021 -23.731 -13.554  0.00  0.00    +0.159 HD
ATOM     31  H   UNL     1      41.182 -25.415 -13.765  0.00  0.00    +0.159 HD
ATOM     32  H   UNL     1      37.987 -26.374 -13.083  0.00  0.00    +0.159 HD
ATOM     33  H   UNL     1      39.576 -26.815 -13.516  0.00  0.00    +0.159 HD
ENDBRANCH  26  29
ENDBRANCH  23  26
ENDBRANCH  19  20
ENDBRANCH   1  19
TORSDOF 6
ENDMDL
MODEL 3
REMARK VINA RESULT:     -11.3      2.763      4.432
REMARK  Name = 4413
REMARK  6 active torsions:
REMARK  status: ('A' for Active; 'I' for Inactive)
REMARK    1  A    between atoms: O_1  and  C_9
REMARK    2  A    between atoms: O_1  and  C_19
REMARK    3  A    between atoms: C_6  and  C_14
REMARK    4  A    between atoms: C_19  and  C_20
REMARK    5  A    between atoms: C_23  and  N_26
REMARK    6  A    between atoms: N_26  and  C_29
REMARK                            x       y       z     vdW  Elec       q    Type
REMARK                         _______ _______ _______ _____ _____    ______ ____
ROOT
ATOM      1  O   UNL     1      35.442 -19.598 -20.919  0.00  0.00    -0.421 OA
ENDROOT
BRANCH   1   9
ATOM      2  C   UNL     1      34.796 -21.649 -17.347  0.00  0.00    +0.000 C 
ATOM      3  C   UNL     1      36.086 -21.154 -17.655  0.00  0.00    +0.003 C 
ATOM      4  C   UNL     1      34.595 -22.338 -16.140  0.00  0.00    +0.003 C 
ATOM      5  C   UNL     1      36.286 -20.466 -18.863  0.00  0.00    +0.038 C 
ATOM      6  C   UNL     1      35.650 -22.535 -15.249  0.00  0.00    +0.031 C 
ATOM      7  C   UNL     1      37.136 -21.361 -16.747  0.00  0.00    +0.000 C 
ATOM      8  C   UNL     1      33.745 -21.442 -18.256  0.00  0.00    +0.003 C 
ATOM      9  C   UNL     1      35.231 -20.269 -19.755  0.00  0.00    +0.149 C 
ATOM     10  C   UNL     1      36.919 -22.048 -15.552  0.00  0.00    +0.003 C 
ATOM     11  C   UNL     1      33.963 -20.756 -19.451  0.00  0.00    +0.038 C 
BRANCH   6  14
ATOM     12  N   UNL     1      35.895 -22.754 -12.787  0.00  0.00    -0.343 N 
ATOM     13  N   UNL     1      34.768 -24.396 -14.011  0.00  0.00    -0.285 NA
ATOM     14  C   UNL     1      35.426 -23.250 -14.003  0.00  0.00    +0.117 C 
ATOM     15  H   UNL     1      35.731 -23.255 -11.956  0.00  0.00    +0.144 HD
ATOM     16  H   UNL     1      36.389 -21.903 -12.761  0.00  0.00    +0.144 HD
ATOM     17  H   UNL     1      34.616 -24.882 -13.168  0.00  0.00    +0.188 HD
ENDBRANCH   6  14
ENDBRANCH   1   9
BRANCH   1  19
ATOM     18  O   UNL     1      36.060 -17.677 -19.755  0.00  0.00    -0.244 OA
ATOM     19  C   UNL     1      35.645 -18.225 -20.765  0.00  0.00    +0.346 C 
BRANCH  19  20
ATOM     20  C   UNL     1      35.298 -17.487 -22.006  0.00  0.00    +0.076 C 
ATOM     21  C   UNL     1      34.704 -18.171 -23.046  0.00  0.00    +0.008 C 
ATOM     22  C   UNL     1      35.578 -16.138 -22.078  0.00  0.00    +0.008 C 
ATOM     23  C   UNL     1      34.649 -16.113 -24.309  0.00  0.00    +0.084 C 
ATOM     24  C   UNL     1      34.377 -17.476 -24.210  0.00  0.00    +0.019 C 
ATOM     25  C   UNL     1      35.250 -15.443 -23.243  0.00  0.00    +0.019 C 
BRANCH  23  26
ATOM     26  N   UNL     1      34.322 -15.416 -25.476  0.00  0.00    -0.214 NA
BRANCH  26  29
ATOM     27  N   UNL     1      32.931 -13.891 -24.382  0.00  0.00    -0.370 N 
ATOM     28  N   UNL     1      34.107 -13.120 -26.179  0.00  0.00    -0.370 N 
ATOM     29  C   UNL     1      33.831 -14.204 -25.374  0.00  0.00    +0.193 C 
ATOM     30  H   UNL     1      32.650 -14.580 -23.737  0.00  0.00    +0.159 HD
ATOM     31  H   UNL     1      32.570 -12.977 -24.315  0.00  0.00    +0.159 HD
ATOM     32  H   UNL     1      34.738 -13.213 -26.928  0.00  0.00    +0.159 HD
ATOM     33  H   UNL     1      33.675 -12.253 -26.004  0.00  0.00    +0.159 HD
ENDBRANCH  26  29
ENDBRANCH  23  26
ENDBRANCH  19  20
ENDBRANCH   1  19
TORSDOF 6
ENDMDL
MODEL 4
REMARK VINA RESULT:     -11.3      1.156      9.130
REMARK  Name = 4413
REMARK  6 active torsions:
REMARK  status: ('A' for Active; 'I' for Inactive)
REMARK    1  A    between atoms: O_1  and  C_9
REMARK    2  A    between atoms: O_1  and  C_19
REMARK    3  A    between atoms: C_6  and  C_14
REMARK    4  A    between atoms: C_19  and  C_20
REMARK    5  A    between atoms: C_23  and  N_26
REMARK    6  A    between atoms: N_26  and  C_29
REMARK                            x       y       z     vdW  Elec       q    Type
REMARK                         _______ _______ _______ _____ _____    ______ ____
ROOT
ATOM      1  O   UNL     1      34.916 -22.402 -17.516  0.00  0.00    -0.421 OA
ENDROOT
BRANCH   1   9
ATOM      2  C   UNL     1      34.497 -19.392 -20.371  0.00  0.00    +0.000 C 
ATOM      3  C   UNL     1      35.774 -19.686 -19.836  0.00  0.00    +0.003 C 
ATOM      4  C   UNL     1      34.373 -18.375 -21.332  0.00  0.00    +0.003 C 
ATOM      5  C   UNL     1      35.897 -20.703 -18.875  0.00  0.00    +0.038 C 
ATOM      6  C   UNL     1      35.492 -17.660 -21.760  0.00  0.00    +0.031 C 
ATOM      7  C   UNL     1      36.888 -18.957 -20.277  0.00  0.00    +0.000 C 
ATOM      8  C   UNL     1      33.381 -20.122 -19.929  0.00  0.00    +0.003 C 
ATOM      9  C   UNL     1      34.778 -21.419 -18.447  0.00  0.00    +0.149 C 
ATOM     10  C   UNL     1      36.747 -17.949 -21.233  0.00  0.00    +0.003 C 
ATOM     11  C   UNL     1      33.523 -21.129 -18.974  0.00  0.00    +0.038 C 
BRANCH   6  14
ATOM     12  N   UNL     1      34.632 -16.821 -23.934  0.00  0.00    -0.343 N 
ATOM     13  N   UNL     1      35.902 -15.428 -22.551  0.00  0.00    -0.285 NA
ATOM     14  C   UNL     1      35.347 -16.610 -22.755  0.00  0.00    +0.117 C 
ATOM     15  H   UNL     1      34.547 -16.095 -24.593  0.00  0.00    +0.144 HD
ATOM     16  H   UNL     1      34.214 -17.695 -24.105  0.00  0.00    +0.144 HD
ATOM     17  H   UNL     1      35.805 -14.716 -23.224  0.00  0.00    +0.188 HD
ENDBRANCH   6  14
ENDBRANCH   1   9
BRANCH   1  19
ATOM     18  O   UNL     1      32.717 -22.242 -16.761  0.00  0.00    -0.244 OA
ATOM     19  C   UNL     1      33.907 -22.426 -16.551  0.00  0.00    +0.346 C 
BRANCH  19  20
ATOM     20  C   UNL     1      34.458 -22.721 -15.204  0.00  0.00    +0.076 C 
ATOM     21  C   UNL     1      35.787 -22.452 -14.953  0.00  0.00    +0.008 C 
ATOM     22  C   UNL     1      33.621 -23.252 -14.244  0.00  0.00    +0.008 C 
ATOM     23  C   UNL     1      35.479 -23.263 -12.698  0.00  0.00    +0.084 C 
ATOM     24  C   UNL     1      36.303 -22.727 -13.687  0.00  0.00    +0.019 C 
ATOM     25  C   UNL     1      34.137 -23.526 -12.977  0.00  0.00    +0.019 C 
BRANCH  23  26
ATOM     26  N   UNL     1      35.996 -23.540 -11.430  0.00  0.00    -0.214 NA
BRANCH  26  29
ATOM     27  N   UNL     1      37.425 -25.368 -11.694  0.00  0.00    -0.370 N 
ATOM     28  N   UNL     1      38.343 -23.440 -10.891  0.00  0.00    -0.370 N 
ATOM     29  C   UNL     1      37.196 -24.061 -11.334  0.00  0.00    +0.193 C 
ATOM     30  H   UNL     1      36.685 -25.924 -12.029  0.00  0.00    +0.159 HD
ATOM     31  H   UNL     1      38.331 -25.748 -11.618  0.00  0.00    +0.159 HD
ATOM     32  H   UNL     1      38.313 -22.499 -10.603  0.00  0.00    +0.159 HD
ATOM     33  H   UNL     1      39.194 -23.936 -10.864  0.00  0.00    +0.159 HD
ENDBRANCH  26  29
ENDBRANCH  23  26
ENDBRANCH  19  20
ENDBRANCH   1  19
TORSDOF 6
ENDMDL
MODEL 5
REMARK VINA RESULT:     -11.3      2.822      4.820
REMARK  Name = 4413
REMARK  6 active torsions:
REMARK  status: ('A' for Active; 'I' for Inactive)
REMARK    1  A    between atoms: O_1  and  C_9
REMARK    2  A    between atoms: O_1  and  C_19
REMARK    3  A    between atoms: C_6  and  C_14
REMARK    4  A    between atoms: C_19  and  C_20
REMARK    5  A    between atoms: C_23  and  N_26
REMARK    6  A    between atoms: N_26  and  C_29
REMARK                            x       y       z     vdW  Elec       q    Type
REMARK                         _______ _______ _______ _____ _____    ______ ____
ROOT
ATOM      1  O   UNL     1      35.224 -19.478 -20.922  0.00  0.00    -0.421 OA
ENDROOT
BRANCH   1   9
ATOM      2  C   UNL     1      35.460 -21.565 -17.320  0.00  0.00    +0.000 C 
ATOM      3  C   UNL     1      34.210 -21.406 -17.965  0.00  0.00    +0.003 C 
ATOM      4  C   UNL     1      35.522 -22.270 -16.107  0.00  0.00    +0.003 C 
ATOM      5  C   UNL     1      34.148 -20.701 -19.177  0.00  0.00    +0.038 C 
ATOM      6  C   UNL     1      34.369 -22.812 -15.539  0.00  0.00    +0.031 C 
ATOM      7  C   UNL     1      33.060 -21.959 -17.379  0.00  0.00    +0.000 C 
ATOM      8  C   UNL     1      36.611 -21.012 -17.906  0.00  0.00    +0.003 C 
ATOM      9  C   UNL     1      35.301 -20.158 -19.746  0.00  0.00    +0.149 C 
ATOM     10  C   UNL     1      33.140 -22.657 -16.174  0.00  0.00    +0.003 C 
ATOM     11  C   UNL     1      36.530 -20.314 -19.111  0.00  0.00    +0.038 C 
BRANCH   6  14
ATOM     12  N   UNL     1      33.823 -23.070 -13.130  0.00  0.00    -0.343 N 
ATOM     13  N   UNL     1      35.133 -24.670 -14.220  0.00  0.00    -0.285 NA
ATOM     14  C   UNL     1      34.451 -23.540 -14.283  0.00  0.00    +0.117 C 
ATOM     15  H   UNL     1      33.890 -23.579 -12.291  0.00  0.00    +0.144 HD
ATOM     16  H   UNL     1      33.311 -22.229 -13.156  0.00  0.00    +0.144 HD
ATOM     17  H   UNL     1      35.189 -25.164 -13.370  0.00  0.00    +0.188 HD
ENDBRANCH   6  14
ENDBRANCH   1   9
BRANCH   1  19
ATOM     18  O   UNL     1      36.084 -17.591 -19.862  0.00  0.00    -0.244 OA
ATOM     19  C   UNL     1      35.571 -18.129 -20.832  0.00  0.00    +0.346 C 
BRANCH  19  20
ATOM     20  C   UNL     1      35.247 -17.404 -22.087  0.00  0.00    +0.076 C 
ATOM     21  C   UNL     1      34.690 -18.104 -23.137  0.00  0.00    +0.008 C 
ATOM     22  C   UNL     1      35.513 -16.052 -22.162  0.00  0.00    +0.008 C 
ATOM     23  C   UNL     1      34.642 -16.055 -24.416  0.00  0.00    +0.084 C 
ATOM     24  C   UNL     1      34.384 -17.422 -24.314  0.00  0.00    +0.019 C 
ATOM     25  C   UNL     1      35.207 -15.370 -23.341  0.00  0.00    +0.019 C 
BRANCH  23  26
ATOM     26  N   UNL     1      34.337 -15.372 -25.597  0.00  0.00    -0.214 NA
BRANCH  26  29
ATOM     27  N   UNL     1      32.787 -13.906 -24.644  0.00  0.00    -0.370 N 
ATOM     28  N   UNL     1      34.181 -13.052 -26.236  0.00  0.00    -0.370 N 
ATOM     29  C   UNL     1      33.817 -14.169 -25.517  0.00  0.00    +0.193 C 
ATOM     30  H   UNL     1      32.433 -14.623 -24.070  0.00  0.00    +0.159 HD
ATOM     31  H   UNL     1      32.405 -13.000 -24.593  0.00  0.00    +0.159 HD
ATOM     32  H   UNL     1      34.909 -13.108 -26.896  0.00  0.00    +0.159 HD
ATOM     33  H   UNL     1      33.715 -12.197 -26.088  0.00  0.00    +0.159 HD
ENDBRANCH  26  29
ENDBRANCH  23  26
ENDBRANCH  19  20
ENDBRANCH   1  19
TORSDOF 6
ENDMDL
MODEL 6
REMARK VINA RESULT:     -11.2      4.330      7.083
REMARK  Name = 4413
REMARK  6 active torsions:
REMARK  status: ('A' for Active; 'I' for Inactive)
REMARK    1  A    between atoms: O_1  and  C_9
REMARK    2  A    between atoms: O_1  and  C_19
REMARK    3  A    between atoms: C_6  and  C_14
REMARK    4  A    between atoms: C_19  and  C_20
REMARK    5  A    between atoms: C_23  and  N_26
REMARK    6  A    between atoms: N_26  and  C_29
REMARK                            x       y       z     vdW  Elec       q    Type
REMARK                         _______ _______ _______ _____ _____    ______ ____
ROOT
ATOM      1  O   UNL     1      36.182 -17.126 -22.535  0.00  0.00    -0.421 OA
ENDROOT
BRANCH   1   9
ATOM      2  C   UNL     1      35.723 -19.916 -19.471  0.00  0.00    +0.000 C 
ATOM      3  C   UNL     1      34.588 -19.442 -20.172  0.00  0.00    +0.003 C 
ATOM      4  C   UNL     1      35.551 -20.856 -18.441  0.00  0.00    +0.003 C 
ATOM      5  C   UNL     1      34.761 -18.502 -21.201  0.00  0.00    +0.038 C 
ATOM      6  C   UNL     1      34.279 -21.322 -18.109  0.00  0.00    +0.031 C 
ATOM      7  C   UNL     1      33.316 -19.922 -19.824  0.00  0.00    +0.000 C 
ATOM      8  C   UNL     1      36.996 -19.435 -19.819  0.00  0.00    +0.003 C 
ATOM      9  C   UNL     1      36.033 -18.035 -21.534  0.00  0.00    +0.149 C 
ATOM     10  C   UNL     1      33.163 -20.856 -18.798  0.00  0.00    +0.003 C 
ATOM     11  C   UNL     1      37.148 -18.502 -20.844  0.00  0.00    +0.038 C 
BRANCH   6  14
ATOM     12  N   UNL     1      32.862 -22.793 -16.696  0.00  0.00    -0.343 N 
ATOM     13  N   UNL     1      35.176 -22.721 -16.373  0.00  0.00    -0.285 NA
ATOM     14  C   UNL     1      34.118 -22.295 -17.040  0.00  0.00    +0.117 C 
ATOM     15  H   UNL     1      32.777 -23.451 -15.969  0.00  0.00    +0.144 HD
ATOM     16  H   UNL     1      32.062 -22.485 -17.179  0.00  0.00    +0.144 HD
ATOM     17  H   UNL     1      35.069 -23.380 -15.649  0.00  0.00    +0.188 HD
ENDBRANCH   6  14
ENDBRANCH   1   9
BRANCH   1  19
ATOM     18  O   UNL     1      34.398 -17.795 -23.875  0.00  0.00    -0.244 OA
ATOM     19  C   UNL     1      35.035 -16.922 -23.304  0.00  0.00    +0.346 C 
BRANCH  19  20
ATOM     20  C   UNL     1      34.660 -15.486 -23.343  0.00  0.00    +0.076 C 
ATOM     21  C   UNL     1      35.024 -14.673 -22.290  0.00  0.00    +0.008 C 
ATOM     22  C   UNL     1      33.960 -15.010 -24.432  0.00  0.00    +0.008 C 
ATOM     23  C   UNL     1      33.966 -12.817 -23.417  0.00  0.00    +0.084 C 
ATOM     24  C   UNL     1      34.672 -13.324 -22.328  0.00  0.00    +0.019 C 
ATOM     25  C   UNL     1      33.608 -13.660 -24.470  0.00  0.00    +0.019 C 
BRANCH  23  26
ATOM     26  N   UNL     1      33.612 -11.465 -23.455  0.00  0.00    -0.214 NA
BRANCH  26  29
ATOM     27  N   UNL     1      34.194 -10.490 -25.497  0.00  0.00    -0.370 N 
ATOM     28  N   UNL     1      35.368  -9.825 -23.656  0.00  0.00    -0.370 N 
ATOM     29  C   UNL     1      34.362 -10.633 -24.139  0.00  0.00    +0.193 C 
ATOM     30  H   UNL     1      33.505 -11.013 -25.966  0.00  0.00    +0.159 HD
ATOM     31  H   UNL     1      34.763  -9.862 -26.000  0.00  0.00    +0.159 HD
ATOM     32  H   UNL     1      35.588  -9.834 -22.697  0.00  0.00    +0.159 HD
ATOM     33  H   UNL     1      35.866  -9.237 -24.270  0.00  0.00    +0.159 HD
ENDBRANCH  26  29
ENDBRANCH  23  26
ENDBRANCH  19  20
ENDBRANCH   1  19
TORSDOF 6
ENDMDL
MODEL 7
REMARK VINA RESULT:     -11.1      2.564     10.034
REMARK  Name = 4413
REMARK  6 active torsions:
REMARK  status: ('A' for Active; 'I' for Inactive)
REMARK    1  A    between atoms: O_1  and  C_9
REMARK    2  A    between atoms: O_1  and  C_19
REMARK    3  A    between atoms: C_6  and  C_14
REMARK    4  A    between atoms: C_19  and  C_20
REMARK    5  A    between atoms: C_23  and  N_26
REMARK    6  A    between atoms: N_26  and  C_29
REMARK                            x       y       z     vdW  Elec       q    Type
REMARK                         _______ _______ _______ _____ _____    ______ ____
ROOT
ATOM      1  O   UNL     1      35.905 -20.431 -19.987  0.00  0.00    -0.421 OA
ENDROOT
BRANCH   1   9
ATOM      2  C   UNL     1      35.230 -16.861 -22.034  0.00  0.00    +0.000 C 
ATOM      3  C   UNL     1      34.914 -18.098 -22.646  0.00  0.00    +0.003 C 
ATOM      4  C   UNL     1      34.997 -15.668 -22.737  0.00  0.00    +0.003 C 
ATOM      5  C   UNL     1      35.148 -19.291 -21.942  0.00  0.00    +0.038 C 
ATOM      6  C   UNL     1      34.458 -15.694 -24.024  0.00  0.00    +0.031 C 
ATOM      7  C   UNL     1      34.373 -18.106 -23.941  0.00  0.00    +0.000 C 
ATOM      8  C   UNL     1      35.772 -16.854 -20.738  0.00  0.00    +0.003 C 
ATOM      9  C   UNL     1      35.686 -19.266 -20.655  0.00  0.00    +0.149 C 
ATOM     10  C   UNL     1      34.147 -16.910 -24.625  0.00  0.00    +0.003 C 
ATOM     11  C   UNL     1      35.997 -18.049 -20.055  0.00  0.00    +0.038 C 
BRANCH   6  14
ATOM     12  N   UNL     1      33.983 -13.257 -24.059  0.00  0.00    -0.343 N 
ATOM     13  N   UNL     1      34.231 -14.439 -26.060  0.00  0.00    -0.285 NA
ATOM     14  C   UNL     1      34.223 -14.450 -24.739  0.00  0.00    +0.117 C 
ATOM     15  H   UNL     1      33.827 -12.426 -24.564  0.00  0.00    +0.144 HD
ATOM     16  H   UNL     1      33.971 -13.245 -23.075  0.00  0.00    +0.144 HD
ATOM     17  H   UNL     1      34.072 -13.597 -26.546  0.00  0.00    +0.188 HD
ENDBRANCH   6  14
ENDBRANCH   1   9
BRANCH   1  19
ATOM     18  O   UNL     1      33.679 -20.740 -19.371  0.00  0.00    -0.244 OA
ATOM     19  C   UNL     1      34.874 -20.800 -19.121  0.00  0.00    +0.346 C 
BRANCH  19  20
ATOM     20  C   UNL     1      35.409 -21.299 -17.829  0.00  0.00    +0.076 C 
ATOM     21  C   UNL     1      34.582 -22.029 -17.001  0.00  0.00    +0.008 C 
ATOM     22  C   UNL     1      36.718 -21.017 -17.497  0.00  0.00    +0.008 C 
ATOM     23  C   UNL     1      36.405 -22.229 -15.429  0.00  0.00    +0.084 C 
ATOM     24  C   UNL     1      35.085 -22.499 -15.788  0.00  0.00    +0.019 C 
ATOM     25  C   UNL     1      37.222 -21.487 -16.283  0.00  0.00    +0.019 C 
BRANCH  23  26
ATOM     26  N   UNL     1      36.910 -22.698 -14.213  0.00  0.00    -0.214 NA
BRANCH  26  29
ATOM     27  N   UNL     1      37.992 -24.715 -14.681  0.00  0.00    -0.370 N 
ATOM     28  N   UNL     1      36.240 -24.790 -13.221  0.00  0.00    -0.370 N 
ATOM     29  C   UNL     1      37.019 -23.993 -14.030  0.00  0.00    +0.193 C 
ATOM     30  H   UNL     1      38.617 -24.262 -15.291  0.00  0.00    +0.159 HD
ATOM     31  H   UNL     1      38.064 -25.687 -14.536  0.00  0.00    +0.159 HD
ATOM     32  H   UNL     1      35.506 -24.393 -12.699  0.00  0.00    +0.159 HD
ATOM     33  H   UNL     1      36.418 -25.758 -13.164  0.00  0.00    +0.159 HD
ENDBRANCH  26  29
ENDBRANCH  23  26
ENDBRANCH  19  20
ENDBRANCH   1  19
TORSDOF 6
ENDMDL
MODEL 8
REMARK VINA RESULT:     -11.0      4.516     10.367
REMARK  Name = 4413
REMARK  6 active torsions:
REMARK  status: ('A' for Active; 'I' for Inactive)
REMARK    1  A    between atoms: O_1  and  C_9
REMARK    2  A    between atoms: O_1  and  C_19
REMARK    3  A    between atoms: C_6  and  C_14
REMARK    4  A    between atoms: C_19  and  C_20
REMARK    5  A    between atoms: C_23  and  N_26
REMARK    6  A    between atoms: N_26  and  C_29
REMARK                            x       y       z     vdW  Elec       q    Type
REMARK                         _______ _______ _______ _____ _____    ______ ____
ROOT
ATOM      1  O   UNL     1      36.178 -17.263 -21.784  0.00  0.00    -0.421 OA
ENDROOT
BRANCH   1   9
ATOM      2  C   UNL     1      33.969 -13.824 -20.958  0.00  0.00    +0.000 C 
ATOM      3  C   UNL     1      34.354 -14.115 -22.289  0.00  0.00    +0.003 C 
ATOM      4  C   UNL     1      33.226 -12.662 -20.697  0.00  0.00    +0.003 C 
ATOM      5  C   UNL     1      35.098 -15.278 -22.549  0.00  0.00    +0.038 C 
ATOM      6  C   UNL     1      32.866 -11.800 -21.733  0.00  0.00    +0.031 C 
ATOM      7  C   UNL     1      33.983 -13.237 -23.319  0.00  0.00    +0.000 C 
ATOM      8  C   UNL     1      34.341 -14.703 -19.927  0.00  0.00    +0.003 C 
ATOM      9  C   UNL     1      35.459 -16.140 -21.513  0.00  0.00    +0.149 C 
ATOM     10  C   UNL     1      33.244 -12.086 -23.042  0.00  0.00    +0.003 C 
ATOM     11  C   UNL     1      35.080 -15.853 -20.205  0.00  0.00    +0.038 C 
BRANCH   6  14
ATOM     12  N   UNL     1      30.887 -10.662 -20.755  0.00  0.00    -0.343 N 
ATOM     13  N   UNL     1      32.539  -9.422 -21.847  0.00  0.00    -0.285 NA
ATOM     14  C   UNL     1      32.095 -10.600 -21.446  0.00  0.00    +0.117 C 
ATOM     15  H   UNL     1      30.382  -9.837 -20.571  0.00  0.00    +0.144 HD
ATOM     16  H   UNL     1      30.538 -11.531 -20.450  0.00  0.00    +0.144 HD
ATOM     17  H   UNL     1      32.019  -8.608 -21.654  0.00  0.00    +0.188 HD
ENDBRANCH   6  14
ENDBRANCH   1   9
BRANCH   1  19
ATOM     18  O   UNL     1      34.733 -18.727 -22.877  0.00  0.00    -0.244 OA
ATOM     19  C   UNL     1      35.411 -18.423 -21.907  0.00  0.00    +0.346 C 
BRANCH  19  20
ATOM     20  C   UNL     1      35.525 -19.275 -20.696  0.00  0.00    +0.076 C 
ATOM     21  C   UNL     1      34.373 -19.751 -20.104  0.00  0.00    +0.008 C 
ATOM     22  C   UNL     1      36.780 -19.566 -20.201  0.00  0.00    +0.008 C 
ATOM     23  C   UNL     1      35.737 -20.862 -18.449  0.00  0.00    +0.084 C 
ATOM     24  C   UNL     1      34.481 -20.553 -18.969  0.00  0.00    +0.019 C 
ATOM     25  C   UNL     1      36.887 -20.368 -19.065  0.00  0.00    +0.019 C 
BRANCH  23  26
ATOM     26  N   UNL     1      35.845 -21.665 -17.310  0.00  0.00    -0.214 NA
BRANCH  26  29
ATOM     27  N   UNL     1      37.345 -22.472 -15.710  0.00  0.00    -0.370 N 
ATOM     28  N   UNL     1      37.478 -20.255 -16.234  0.00  0.00    -0.370 N 
ATOM     29  C   UNL     1      36.834 -21.449 -16.474  0.00  0.00    +0.193 C 
ATOM     30  H   UNL     1      36.970 -23.379 -15.788  0.00  0.00    +0.159 HD
ATOM     31  H   UNL     1      38.087 -22.298 -15.086  0.00  0.00    +0.159 HD
ATOM     32  H   UNL     1      37.206 -19.443 -16.718  0.00  0.00    +0.159 HD
ATOM     33  H   UNL     1      38.213 -20.215 -15.578  0.00  0.00    +0.159 HD
ENDBRANCH  26  29
ENDBRANCH  23  26
ENDBRANCH  19  20
ENDBRANCH   1  19
TORSDOF 6
ENDMDL
MODEL 9
REMARK VINA RESULT:     -11.0      2.951      9.979
REMARK  Name = 4413
REMARK  6 active torsions:
REMARK  status: ('A' for Active; 'I' for Inactive)
REMARK    1  A    between atoms: O_1  and  C_9
REMARK    2  A    between atoms: O_1  and  C_19
REMARK    3  A    between atoms: C_6  and  C_14
REMARK    4  A    between atoms: C_19  and  C_20
REMARK    5  A    between atoms: C_23  and  N_26
REMARK    6  A    between atoms: N_26  and  C_29
REMARK                            x       y       z     vdW  Elec       q    Type
REMARK                         _______ _______ _______ _____ _____    ______ ____
ROOT
ATOM      1  O   UNL     1      36.268 -19.553 -19.953  0.00  0.00    -0.421 OA
ENDROOT
BRANCH   1   9
ATOM      2  C   UNL     1      35.260 -16.256 -22.298  0.00  0.00    +0.000 C 
ATOM      3  C   UNL     1      35.276 -16.143 -20.887  0.00  0.00    +0.003 C 
ATOM      4  C   UNL     1      34.919 -15.136 -23.073  0.00  0.00    +0.003 C 
ATOM      5  C   UNL     1      35.617 -17.263 -20.112  0.00  0.00    +0.038 C 
ATOM      6  C   UNL     1      34.598 -13.922 -22.467  0.00  0.00    +0.031 C 
ATOM      7  C   UNL     1      34.951 -14.913 -20.293  0.00  0.00    +0.000 C 
ATOM      8  C   UNL     1      35.586 -17.487 -22.892  0.00  0.00    +0.003 C 
ATOM      9  C   UNL     1      35.938 -18.479 -20.718  0.00  0.00    +0.149 C 
ATOM     10  C   UNL     1      34.614 -13.810 -21.079  0.00  0.00    +0.003 C 
ATOM     11  C   UNL     1      35.923 -18.589 -22.106  0.00  0.00    +0.038 C 
BRANCH   6  14
ATOM     12  N   UNL     1      34.570 -11.474 -22.887  0.00  0.00    -0.343 N 
ATOM     13  N   UNL     1      33.605 -12.947 -24.425  0.00  0.00    -0.285 NA
ATOM     14  C   UNL     1      34.247 -12.771 -23.283  0.00  0.00    +0.117 C 
ATOM     15  H   UNL     1      34.323 -10.711 -23.457  0.00  0.00    +0.144 HD
ATOM     16  H   UNL     1      35.046 -11.323 -22.039  0.00  0.00    +0.144 HD
ATOM     17  H   UNL     1      33.366 -12.169 -24.980  0.00  0.00    +0.188 HD
ENDBRANCH   6  14
ENDBRANCH   1   9
BRANCH   1  19
ATOM     18  O   UNL     1      34.098 -20.396 -20.059  0.00  0.00    -0.244 OA
ATOM     19  C   UNL     1      35.175 -20.288 -19.490  0.00  0.00    +0.346 C 
BRANCH  19  20
ATOM     20  C   UNL     1      35.480 -20.953 -18.198  0.00  0.00    +0.076 C 
ATOM     21  C   UNL     1      34.490 -21.682 -17.572  0.00  0.00    +0.008 C 
ATOM     22  C   UNL     1      36.745 -20.821 -17.663  0.00  0.00    +0.008 C 
ATOM     23  C   UNL     1      36.049 -22.191 -15.798  0.00  0.00    +0.084 C 
ATOM     24  C   UNL     1      34.778 -22.308 -16.359  0.00  0.00    +0.019 C 
ATOM     25  C   UNL     1      37.033 -21.446 -16.450  0.00  0.00    +0.019 C 
BRANCH  23  26
ATOM     26  N   UNL     1      36.338 -22.816 -14.582  0.00  0.00    -0.214 NA
BRANCH  26  29
ATOM     27  N   UNL     1      35.793 -25.080 -14.402  0.00  0.00    -0.370 N 
ATOM     28  N   UNL     1      37.985 -24.566 -14.768  0.00  0.00    -0.370 N 
ATOM     29  C   UNL     1      36.711 -24.074 -14.589  0.00  0.00    +0.193 C 
ATOM     30  H   UNL     1      34.843 -24.861 -14.262  0.00  0.00    +0.159 HD
ATOM     31  H   UNL     1      36.085 -26.021 -14.409  0.00  0.00    +0.159 HD
ATOM     32  H   UNL     1      38.736 -23.946 -14.913  0.00  0.00    +0.159 HD
ATOM     33  H   UNL     1      38.145 -25.538 -14.754  0.00  0.00    +0.159 HD
ENDBRANCH  26  29
ENDBRANCH  23  26
ENDBRANCH  19  20
ENDBRANCH   1  19
TORSDOF 6
ENDMDL
