MODEL 1
REMARK VINA RESULT:     -10.6      0.000      0.000
REMARK  Name = 24180717
REMARK  5 active torsions:
REMARK  status: ('A' for Active; 'I' for Inactive)
REMARK    1  A    between atoms: C_14  and  C_18
REMARK    2  A    between atoms: C_15  and  C_30
REMARK    3  A    between atoms: C_21  and  C_22
REMARK    4  A    between atoms: C_23  and  C_24
REMARK    5  A    between atoms: C_30  and  N_31
REMARK                            x       y       z     vdW  Elec       q    Type
REMARK                         _______ _______ _______ _____ _____    ______ ____
ROOT
ATOM      1  O   UNL     1      37.639 -18.549 -20.789  0.00  0.00    -0.475 OA
ATOM      2  O   UNL     1      32.834 -16.093 -25.443  0.00  0.00    -0.267 OA
ATOM      3  N   UNL     1      34.677 -16.146 -24.040  0.00  0.00    -0.274 N 
ATOM      4  C   UNL     1      35.596 -18.047 -22.024  0.00  0.00    +0.065 C 
ATOM      5  C   UNL     1      35.150 -16.614 -21.656  0.00  0.00    +0.029 C 
ATOM      6  C   UNL     1      34.917 -18.491 -23.331  0.00  0.00    +0.029 C 
ATOM      7  C   UNL     1      37.138 -18.176 -22.095  0.00  0.00    +0.209 C 
ATOM      8  C   UNL     1      35.371 -18.974 -20.871  0.00  0.00    +0.014 C 
ATOM      9  C   UNL     1      35.304 -15.627 -22.817  0.00  0.00    +0.094 C 
ATOM     10  C   UNL     1      35.135 -17.476 -24.449  0.00  0.00    +0.094 C 
ATOM     11  C   UNL     1      36.573 -19.189 -20.210  0.00  0.00    +0.135 C 
ATOM     12  C   UNL     1      34.201 -19.547 -20.399  0.00  0.00    -0.008 C 
ATOM     13  C   UNL     1      36.657 -19.959 -19.065  0.00  0.00    +0.036 C 
ATOM     14  C   UNL     1      33.690 -15.486 -24.798  0.00  0.00    +0.284 C 
ATOM     15  C   UNL     1      34.264 -20.341 -19.251  0.00  0.00    -0.044 C 
ATOM     16  C   UNL     1      35.484 -20.543 -18.588  0.00  0.00    -0.003 C 
ENDROOT
BRANCH  14  18
ATOM     17  O   UNL     1      33.361 -13.388 -23.648  0.00  0.00    -0.441 OA
ATOM     18  C   UNL     1      33.707 -14.027 -24.796  0.00  0.00    +0.199 C 
ATOM     19  C   UNL     1      34.022 -13.118 -25.778  0.00  0.00    +0.046 C 
ATOM     20  C   UNL     1      33.858 -11.837 -25.197  0.00  0.00    +0.049 C 
ATOM     21  C   UNL     1      33.455 -12.056 -23.901  0.00  0.00    +0.187 C 
BRANCH  21  22
ATOM     22  C   UNL     1      33.141 -11.172 -22.844  0.00  0.00    -0.023 C 
ATOM     23  C   UNL     1      32.874 -10.420 -21.946  0.00  0.00    -0.057 C 
BRANCH  23  24
ATOM     24  C   UNL     1      32.557  -9.525 -20.876  0.00  0.00    +0.042 C 
ATOM     25  C   UNL     1      32.713  -8.150 -21.049  0.00  0.00    +0.008 C 
ATOM     26  C   UNL     1      32.090 -10.027 -19.661  0.00  0.00    +0.008 C 
ATOM     27  C   UNL     1      32.405  -7.276 -20.006  0.00  0.00    +0.001 C 
ATOM     28  C   UNL     1      31.780  -9.154 -18.619  0.00  0.00    +0.001 C 
ATOM     29  C   UNL     1      31.938  -7.778 -18.791  0.00  0.00    +0.000 C 
ENDBRANCH  23  24
ENDBRANCH  21  22
ENDBRANCH  14  18
BRANCH  15  30
ATOM     30  C   UNL     1      33.021 -20.972 -18.720  0.00  0.00    -0.059 C 
BRANCH  30  31
ATOM     31  N   UNL     1      33.301 -22.166 -17.919  0.00  0.00    +0.383 N 
ATOM     32  H   UNL     1      32.767 -22.125 -17.051  0.00  0.00    -0.089 HD
ATOM     33  H   UNL     1      34.297 -22.204 -17.705  0.00  0.00    -0.089 HD
ATOM     34  H   UNL     1      33.034 -22.998 -18.445  0.00  0.00    -0.089 HD
ENDBRANCH  30  31
ENDBRANCH  15  30
TORSDOF 5
ENDMDL
MODEL 2
REMARK VINA RESULT:      -9.9      2.423      9.826
REMARK  Name = 24180717
REMARK  5 active torsions:
REMARK  status: ('A' for Active; 'I' for Inactive)
REMARK    1  A    between atoms: C_14  and  C_18
REMARK    2  A    between atoms: C_15  and  C_30
REMARK    3  A    between atoms: C_21  and  C_22
REMARK    4  A    between atoms: C_23  and  C_24
REMARK    5  A    between atoms: C_30  and  N_31
REMARK                            x       y       z     vdW  Elec       q    Type
REMARK                         _______ _______ _______ _____ _____    ______ ____
ROOT
ATOM      1  O   UNL     1      32.313 -10.995 -21.430  0.00  0.00    -0.475 OA
ATOM      2  O   UNL     1      35.318 -16.599 -24.646  0.00  0.00    -0.267 OA
ATOM      3  N   UNL     1      34.416 -15.274 -22.974  0.00  0.00    -0.274 N 
ATOM      4  C   UNL     1      33.648 -12.460 -22.852  0.00  0.00    +0.065 C 
ATOM      5  C   UNL     1      34.806 -13.030 -22.005  0.00  0.00    +0.029 C 
ATOM      6  C   UNL     1      33.443 -13.320 -24.111  0.00  0.00    +0.029 C 
ATOM      7  C   UNL     1      32.343 -12.313 -22.030  0.00  0.00    +0.209 C 
ATOM      8  C   UNL     1      33.873 -11.008 -23.132  0.00  0.00    +0.014 C 
ATOM      9  C   UNL     1      34.661 -14.530 -21.730  0.00  0.00    +0.094 C 
ATOM     10  C   UNL     1      33.278 -14.797 -23.762  0.00  0.00    +0.094 C 
ATOM     11  C   UNL     1      33.098 -10.245 -22.268  0.00  0.00    +0.135 C 
ATOM     12  C   UNL     1      34.726 -10.393 -24.034  0.00  0.00    -0.008 C 
ATOM     13  C   UNL     1      33.148  -8.864 -22.258  0.00  0.00    +0.036 C 
ATOM     14  C   UNL     1      35.186 -16.355 -23.446  0.00  0.00    +0.284 C 
ATOM     15  C   UNL     1      34.784  -8.997 -24.051  0.00  0.00    -0.044 C 
ATOM     16  C   UNL     1      34.001  -8.238 -23.167  0.00  0.00    -0.003 C 
ENDROOT
BRANCH  14  18
ATOM     17  O   UNL     1      35.057 -17.961 -21.647  0.00  0.00    -0.441 OA
ATOM     18  C   UNL     1      35.842 -17.197 -22.451  0.00  0.00    +0.199 C 
ATOM     19  C   UNL     1      37.170 -17.383 -22.148  0.00  0.00    +0.046 C 
ATOM     20  C   UNL     1      37.204 -18.322 -21.089  0.00  0.00    +0.049 C 
ATOM     21  C   UNL     1      35.894 -18.642 -20.821  0.00  0.00    +0.187 C 
BRANCH  21  22
ATOM     22  C   UNL     1      35.306 -19.516 -19.880  0.00  0.00    -0.023 C 
ATOM     23  C   UNL     1      34.806 -20.259 -19.079  0.00  0.00    -0.057 C 
BRANCH  23  24
ATOM     24  C   UNL     1      34.211 -21.144 -18.125  0.00  0.00    +0.042 C 
ATOM     25  C   UNL     1      35.019 -21.890 -17.268  0.00  0.00    +0.008 C 
ATOM     26  C   UNL     1      32.822 -21.259 -18.051  0.00  0.00    +0.008 C 
ATOM     27  C   UNL     1      34.440 -22.753 -16.337  0.00  0.00    +0.001 C 
ATOM     28  C   UNL     1      32.243 -22.121 -17.120  0.00  0.00    +0.001 C 
ATOM     29  C   UNL     1      33.052 -22.868 -16.263  0.00  0.00    +0.000 C 
ENDBRANCH  23  24
ENDBRANCH  21  22
ENDBRANCH  14  18
BRANCH  15  30
ATOM     30  C   UNL     1      35.693  -8.306 -25.012  0.00  0.00    -0.059 C 
BRANCH  30  31
ATOM     31  N   UNL     1      36.056  -9.159 -26.145  0.00  0.00    +0.383 N 
ATOM     32  H   UNL     1      36.323 -10.083 -25.803  0.00  0.00    -0.089 HD
ATOM     33  H   UNL     1      36.840  -8.743 -26.647  0.00  0.00    -0.089 HD
ATOM     34  H   UNL     1      35.257  -9.247 -26.774  0.00  0.00    -0.089 HD
ENDBRANCH  30  31
ENDBRANCH  15  30
TORSDOF 5
ENDMDL
MODEL 3
REMARK VINA RESULT:      -9.8      3.969     11.083
REMARK  Name = 24180717
REMARK  5 active torsions:
REMARK  status: ('A' for Active; 'I' for Inactive)
REMARK    1  A    between atoms: C_14  and  C_18
REMARK    2  A    between atoms: C_15  and  C_30
REMARK    3  A    between atoms: C_21  and  C_22
REMARK    4  A    between atoms: C_23  and  C_24
REMARK    5  A    between atoms: C_30  and  N_31
REMARK                            x       y       z     vdW  Elec       q    Type
REMARK                         _______ _______ _______ _____ _____    ______ ____
ROOT
ATOM      1  O   UNL     1      34.187 -17.535 -24.875  0.00  0.00    -0.475 OA
ATOM      2  O   UNL     1      37.506 -18.989 -18.740  0.00  0.00    -0.267 OA
ATOM      3  N   UNL     1      36.097 -19.228 -20.562  0.00  0.00    -0.274 N 
ATOM      4  C   UNL     1      35.250 -17.410 -22.683  0.00  0.00    +0.065 C 
ATOM      5  C   UNL     1      34.260 -17.963 -21.635  0.00  0.00    +0.029 C 
ATOM      6  C   UNL     1      36.677 -17.403 -22.109  0.00  0.00    +0.029 C 
ATOM      7  C   UNL     1      35.166 -18.179 -24.025  0.00  0.00    +0.209 C 
ATOM      8  C   UNL     1      34.786 -16.080 -23.186  0.00  0.00    +0.014 C 
ATOM      9  C   UNL     1      34.709 -19.301 -21.040  0.00  0.00    +0.094 C 
ATOM     10  C   UNL     1      37.067 -18.773 -21.560  0.00  0.00    +0.094 C 
ATOM     11  C   UNL     1      34.174 -16.241 -24.423  0.00  0.00    +0.135 C 
ATOM     12  C   UNL     1      34.844 -14.829 -22.593  0.00  0.00    -0.008 C 
ATOM     13  C   UNL     1      33.593 -15.186 -25.101  0.00  0.00    +0.036 C 
ATOM     14  C   UNL     1      36.530 -19.534 -19.258  0.00  0.00    +0.284 C 
ATOM     15  C   UNL     1      34.275 -13.745 -23.266  0.00  0.00    -0.044 C 
ATOM     16  C   UNL     1      33.653 -13.923 -24.511  0.00  0.00    -0.003 C 
ENDROOT
BRANCH  14  18
ATOM     17  O   UNL     1      36.341 -21.070 -17.404  0.00  0.00    -0.441 OA
ATOM     18  C   UNL     1      35.772 -20.535 -18.516  0.00  0.00    +0.199 C 
ATOM     19  C   UNL     1      34.526 -21.076 -18.727  0.00  0.00    +0.046 C 
ATOM     20  C   UNL     1      34.316 -22.004 -17.679  0.00  0.00    +0.049 C 
ATOM     21  C   UNL     1      35.448 -21.963 -16.901  0.00  0.00    +0.187 C 
BRANCH  21  22
ATOM     22  C   UNL     1      35.818 -22.658 -15.728  0.00  0.00    -0.023 C 
ATOM     23  C   UNL     1      36.133 -23.248 -14.730  0.00  0.00    -0.057 C 
BRANCH  23  24
ATOM     24  C   UNL     1      36.509 -23.952 -13.543  0.00  0.00    +0.042 C 
ATOM     25  C   UNL     1      37.376 -25.041 -13.623  0.00  0.00    +0.008 C 
ATOM     26  C   UNL     1      36.009 -23.548 -12.304  0.00  0.00    +0.008 C 
ATOM     27  C   UNL     1      37.744 -25.728 -12.466  0.00  0.00    +0.001 C 
ATOM     28  C   UNL     1      36.376 -24.234 -11.147  0.00  0.00    +0.001 C 
ATOM     29  C   UNL     1      37.243 -25.324 -11.227  0.00  0.00    +0.000 C 
ENDBRANCH  23  24
ENDBRANCH  21  22
ENDBRANCH  14  18
BRANCH  15  30
ATOM     30  C   UNL     1      34.323 -12.386 -22.652  0.00  0.00    -0.059 C 
BRANCH  30  31
ATOM     31  N   UNL     1      34.527 -11.332 -23.648  0.00  0.00    +0.383 N 
ATOM     32  H   UNL     1      34.285 -11.688 -24.574  0.00  0.00    -0.089 HD
ATOM     33  H   UNL     1      35.504 -11.041 -23.640  0.00  0.00    -0.089 HD
ATOM     34  H   UNL     1      33.932 -10.534 -23.425  0.00  0.00    -0.089 HD
ENDBRANCH  30  31
ENDBRANCH  15  30
TORSDOF 5
ENDMDL
MODEL 4
REMARK VINA RESULT:      -9.7      2.744      3.766
REMARK  Name = 24180717
REMARK  5 active torsions:
REMARK  status: ('A' for Active; 'I' for Inactive)
REMARK    1  A    between atoms: C_14  and  C_18
REMARK    2  A    between atoms: C_15  and  C_30
REMARK    3  A    between atoms: C_21  and  C_22
REMARK    4  A    between atoms: C_23  and  C_24
REMARK    5  A    between atoms: C_30  and  N_31
REMARK                            x       y       z     vdW  Elec       q    Type
REMARK                         _______ _______ _______ _____ _____    ______ ____
ROOT
ATOM      1  O   UNL     1      37.659 -18.471 -20.220  0.00  0.00    -0.475 OA
ATOM      2  O   UNL     1      33.081 -14.958 -24.401  0.00  0.00    -0.267 OA
ATOM      3  N   UNL     1      34.826 -15.348 -22.929  0.00  0.00    -0.274 N 
ATOM      4  C   UNL     1      35.684 -17.700 -21.427  0.00  0.00    +0.065 C 
ATOM      5  C   UNL     1      35.157 -16.428 -20.726  0.00  0.00    +0.029 C 
ATOM      6  C   UNL     1      35.113 -17.791 -22.852  0.00  0.00    +0.029 C 
ATOM      7  C   UNL     1      37.231 -17.772 -21.414  0.00  0.00    +0.209 C 
ATOM      8  C   UNL     1      35.421 -18.906 -20.583  0.00  0.00    +0.014 C 
ATOM      9  C   UNL     1      35.349 -15.162 -21.567  0.00  0.00    +0.094 C 
ATOM     10  C   UNL     1      35.365 -16.508 -23.641  0.00  0.00    +0.094 C 
ATOM     11  C   UNL     1      36.583 -19.265 -19.913  0.00  0.00    +0.135 C 
ATOM     12  C   UNL     1      34.246 -19.609 -20.370  0.00  0.00    -0.008 C 
ATOM     13  C   UNL     1      36.622 -20.312 -19.012  0.00  0.00    +0.036 C 
ATOM     14  C   UNL     1      33.867 -14.529 -23.555  0.00  0.00    +0.284 C 
ATOM     15  C   UNL     1      34.264 -20.680 -19.473  0.00  0.00    -0.044 C 
ATOM     16  C   UNL     1      35.444 -21.028 -18.797  0.00  0.00    -0.003 C 
ENDROOT
BRANCH  14  18
ATOM     17  O   UNL     1      34.337 -12.208 -24.026  0.00  0.00    -0.441 OA
ATOM     18  C   UNL     1      33.825 -13.124 -23.164  0.00  0.00    +0.199 C 
ATOM     19  C   UNL     1      33.343 -12.507 -22.034  0.00  0.00    +0.046 C 
ATOM     20  C   UNL     1      33.574 -11.122 -22.212  0.00  0.00    +0.049 C 
ATOM     21  C   UNL     1      34.180 -10.991 -23.439  0.00  0.00    +0.187 C 
BRANCH  21  22
ATOM     22  C   UNL     1      34.642  -9.863 -24.153  0.00  0.00    -0.023 C 
ATOM     23  C   UNL     1      35.035  -8.903 -24.760  0.00  0.00    -0.057 C 
BRANCH  23  24
ATOM     24  C   UNL     1      35.501  -7.760 -25.482  0.00  0.00    +0.042 C 
ATOM     25  C   UNL     1      35.040  -6.488 -25.145  0.00  0.00    +0.008 C 
ATOM     26  C   UNL     1      36.420  -7.917 -26.520  0.00  0.00    +0.008 C 
ATOM     27  C   UNL     1      35.494  -5.372 -25.848  0.00  0.00    +0.001 C 
ATOM     28  C   UNL     1      36.875  -6.802 -27.223  0.00  0.00    +0.001 C 
ATOM     29  C   UNL     1      36.412  -5.529 -26.887  0.00  0.00    +0.000 C 
ENDBRANCH  23  24
ENDBRANCH  21  22
ENDBRANCH  14  18
BRANCH  15  30
ATOM     30  C   UNL     1      33.014 -21.457 -19.224  0.00  0.00    -0.059 C 
BRANCH  30  31
ATOM     31  N   UNL     1      32.718 -21.592 -17.797  0.00  0.00    +0.383 N 
ATOM     32  H   UNL     1      32.752 -20.673 -17.354  0.00  0.00    -0.089 HD
ATOM     33  H   UNL     1      33.408 -22.204 -17.363  0.00  0.00    -0.089 HD
ATOM     34  H   UNL     1      31.787 -21.992 -17.679  0.00  0.00    -0.089 HD
ENDBRANCH  30  31
ENDBRANCH  15  30
TORSDOF 5
ENDMDL
MODEL 5
REMARK VINA RESULT:      -9.0      2.880      3.750
REMARK  Name = 24180717
REMARK  5 active torsions:
REMARK  status: ('A' for Active; 'I' for Inactive)
REMARK    1  A    between atoms: C_14  and  C_18
REMARK    2  A    between atoms: C_15  and  C_30
REMARK    3  A    between atoms: C_21  and  C_22
REMARK    4  A    between atoms: C_23  and  C_24
REMARK    5  A    between atoms: C_30  and  N_31
REMARK                            x       y       z     vdW  Elec       q    Type
REMARK                         _______ _______ _______ _____ _____    ______ ____
ROOT
ATOM      1  O   UNL     1      37.587 -18.111 -20.579  0.00  0.00    -0.475 OA
ATOM      2  O   UNL     1      32.857 -14.390 -24.395  0.00  0.00    -0.267 OA
ATOM      3  N   UNL     1      34.658 -14.854 -23.014  0.00  0.00    -0.274 N 
ATOM      4  C   UNL     1      35.569 -17.279 -21.667  0.00  0.00    +0.065 C 
ATOM      5  C   UNL     1      35.072 -16.044 -20.883  0.00  0.00    +0.029 C 
ATOM      6  C   UNL     1      34.942 -17.298 -23.072  0.00  0.00    +0.029 C 
ATOM      7  C   UNL     1      37.115 -17.353 -21.719  0.00  0.00    +0.209 C 
ATOM      8  C   UNL     1      35.336 -18.526 -20.876  0.00  0.00    +0.014 C 
ATOM      9  C   UNL     1      35.234 -14.738 -21.667  0.00  0.00    +0.094 C 
ATOM     10  C   UNL     1      35.165 -15.978 -23.804  0.00  0.00    +0.094 C 
ATOM     11  C   UNL     1      36.523 -18.919 -20.271  0.00  0.00    +0.135 C 
ATOM     12  C   UNL     1      34.169 -19.239 -20.652  0.00  0.00    -0.008 C 
ATOM     13  C   UNL     1      36.594 -20.010 -19.426  0.00  0.00    +0.036 C 
ATOM     14  C   UNL     1      33.677 -14.005 -23.560  0.00  0.00    +0.284 C 
ATOM     15  C   UNL     1      34.219 -20.354 -19.812  0.00  0.00    -0.044 C 
ATOM     16  C   UNL     1      35.424 -20.736 -19.201  0.00  0.00    -0.003 C 
ENDROOT
BRANCH  14  18
ATOM     17  O   UNL     1      34.086 -11.657 -23.951  0.00  0.00    -0.441 OA
ATOM     18  C   UNL     1      33.653 -12.621 -23.097  0.00  0.00    +0.199 C 
ATOM     19  C   UNL     1      33.258 -12.066 -21.903  0.00  0.00    +0.046 C 
ATOM     20  C   UNL     1      33.462 -10.671 -22.030  0.00  0.00    +0.049 C 
ATOM     21  C   UNL     1      33.966 -10.473 -23.293  0.00  0.00    +0.187 C 
BRANCH  21  22
ATOM     22  C   UNL     1      34.358  -9.305 -23.985  0.00  0.00    -0.023 C 
ATOM     23  C   UNL     1      34.692  -8.312 -24.573  0.00  0.00    -0.057 C 
BRANCH  23  24
ATOM     24  C   UNL     1      35.091  -7.129 -25.272  0.00  0.00    +0.042 C 
ATOM     25  C   UNL     1      36.277  -7.120 -26.005  0.00  0.00    +0.008 C 
ATOM     26  C   UNL     1      34.292  -5.986 -25.222  0.00  0.00    +0.008 C 
ATOM     27  C   UNL     1      36.667  -5.967 -26.687  0.00  0.00    +0.001 C 
ATOM     28  C   UNL     1      34.681  -4.834 -25.903  0.00  0.00    +0.001 C 
ATOM     29  C   UNL     1      35.868  -4.824 -26.636  0.00  0.00    +0.000 C 
ENDBRANCH  23  24
ENDBRANCH  21  22
ENDBRANCH  14  18
BRANCH  15  30
ATOM     30  C   UNL     1      32.978 -21.142 -19.554  0.00  0.00    -0.059 C 
BRANCH  30  31
ATOM     31  N   UNL     1      32.632 -21.185 -18.131  0.00  0.00    +0.383 N 
ATOM     32  H   UNL     1      33.373 -21.661 -17.615  0.00  0.00    -0.089 HD
ATOM     33  H   UNL     1      31.755 -21.691 -18.011  0.00  0.00    -0.089 HD
ATOM     34  H   UNL     1      32.528 -20.234 -17.778  0.00  0.00    -0.089 HD
ENDBRANCH  30  31
ENDBRANCH  15  30
TORSDOF 5
ENDMDL
MODEL 6
REMARK VINA RESULT:      -8.7      4.145      7.016
REMARK  Name = 24180717
REMARK  5 active torsions:
REMARK  status: ('A' for Active; 'I' for Inactive)
REMARK    1  A    between atoms: C_14  and  C_18
REMARK    2  A    between atoms: C_15  and  C_30
REMARK    3  A    between atoms: C_21  and  C_22
REMARK    4  A    between atoms: C_23  and  C_24
REMARK    5  A    between atoms: C_30  and  N_31
REMARK                            x       y       z     vdW  Elec       q    Type
REMARK                         _______ _______ _______ _____ _____    ______ ____
ROOT
ATOM      1  O   UNL     1      33.728 -13.795 -24.603  0.00  0.00    -0.475 OA
ATOM      2  O   UNL     1      31.342  -9.723 -19.265  0.00  0.00    -0.267 OA
ATOM      3  N   UNL     1      32.188 -10.320 -21.336  0.00  0.00    -0.274 N 
ATOM      4  C   UNL     1      33.225 -12.824 -22.422  0.00  0.00    +0.065 C 
ATOM      5  C   UNL     1      34.122 -11.581 -22.229  0.00  0.00    +0.029 C 
ATOM      6  C   UNL     1      32.039 -12.775 -21.444  0.00  0.00    +0.029 C 
ATOM      7  C   UNL     1      32.762 -12.984 -23.892  0.00  0.00    +0.209 C 
ATOM      8  C   UNL     1      34.042 -14.074 -22.333  0.00  0.00    +0.014 C 
ATOM      9  C   UNL     1      33.333 -10.268 -22.256  0.00  0.00    +0.094 C 
ATOM     10  C   UNL     1      31.283 -11.452 -21.545  0.00  0.00    +0.094 C 
ATOM     11  C   UNL     1      34.304 -14.548 -23.612  0.00  0.00    +0.135 C 
ATOM     12  C   UNL     1      34.564 -14.724 -21.226  0.00  0.00    -0.008 C 
ATOM     13  C   UNL     1      35.092 -15.660 -23.839  0.00  0.00    +0.036 C 
ATOM     14  C   UNL     1      31.930  -9.404 -20.299  0.00  0.00    +0.284 C 
ATOM     15  C   UNL     1      35.353 -15.859 -21.430  0.00  0.00    -0.044 C 
ATOM     16  C   UNL     1      35.616 -16.323 -22.728  0.00  0.00    -0.003 C 
ENDROOT
BRANCH  14  18
ATOM     17  O   UNL     1      32.134  -7.429 -21.674  0.00  0.00    -0.441 OA
ATOM     18  C   UNL     1      32.392  -8.032 -20.484  0.00  0.00    +0.199 C 
ATOM     19  C   UNL     1      33.076  -7.180 -19.649  0.00  0.00    +0.046 C 
ATOM     20  C   UNL     1      33.249  -5.975 -20.372  0.00  0.00    +0.049 C 
ATOM     21  C   UNL     1      32.658  -6.177 -21.597  0.00  0.00    +0.187 C 
BRANCH  21  22
ATOM     22  C   UNL     1      32.514  -5.343 -22.728  0.00  0.00    -0.023 C 
ATOM     23  C   UNL     1      32.391  -4.635 -23.691  0.00  0.00    -0.057 C 
BRANCH  23  24
ATOM     24  C   UNL     1      32.245  -3.792 -24.837  0.00  0.00    +0.042 C 
ATOM     25  C   UNL     1      31.301  -2.766 -24.833  0.00  0.00    +0.008 C 
ATOM     26  C   UNL     1      33.050  -3.994 -25.959  0.00  0.00    +0.008 C 
ATOM     27  C   UNL     1      31.158  -1.943 -25.950  0.00  0.00    +0.001 C 
ATOM     28  C   UNL     1      32.909  -3.172 -27.077  0.00  0.00    +0.001 C 
ATOM     29  C   UNL     1      31.963  -2.146 -27.072  0.00  0.00    +0.000 C 
ENDBRANCH  23  24
ENDBRANCH  21  22
ENDBRANCH  14  18
BRANCH  15  30
ATOM     30  C   UNL     1      35.927 -16.580 -20.257  0.00  0.00    -0.059 C 
BRANCH  30  31
ATOM     31  N   UNL     1      35.563 -17.999 -20.244  0.00  0.00    +0.383 N 
ATOM     32  H   UNL     1      34.553 -18.090 -20.136  0.00  0.00    -0.089 HD
ATOM     33  H   UNL     1      36.031 -18.462 -19.465  0.00  0.00    -0.089 HD
ATOM     34  H   UNL     1      35.852 -18.432 -21.121  0.00  0.00    -0.089 HD
ENDBRANCH  30  31
ENDBRANCH  15  30
TORSDOF 5
ENDMDL
MODEL 7
REMARK VINA RESULT:      -8.6      3.613     10.099
REMARK  Name = 24180717
REMARK  5 active torsions:
REMARK  status: ('A' for Active; 'I' for Inactive)
REMARK    1  A    between atoms: C_14  and  C_18
REMARK    2  A    between atoms: C_15  and  C_30
REMARK    3  A    between atoms: C_21  and  C_22
REMARK    4  A    between atoms: C_23  and  C_24
REMARK    5  A    between atoms: C_30  and  N_31
REMARK                            x       y       z     vdW  Elec       q    Type
REMARK                         _______ _______ _______ _____ _____    ______ ____
ROOT
ATOM      1  O   UNL     1      34.918 -18.856 -23.464  0.00  0.00    -0.475 OA
ATOM      2  O   UNL     1      37.197 -20.345 -16.878  0.00  0.00    -0.267 OA
ATOM      3  N   UNL     1      36.053 -20.542 -18.883  0.00  0.00    -0.274 N 
ATOM      4  C   UNL     1      35.658 -18.736 -21.142  0.00  0.00    +0.065 C 
ATOM      5  C   UNL     1      34.488 -19.187 -20.239  0.00  0.00    +0.029 C 
ATOM      6  C   UNL     1      36.982 -18.810 -20.364  0.00  0.00    +0.029 C 
ATOM      7  C   UNL     1      35.714 -19.539 -22.466  0.00  0.00    +0.209 C 
ATOM      8  C   UNL     1      35.370 -17.394 -21.735  0.00  0.00    +0.014 C 
ATOM      9  C   UNL     1      34.747 -20.534 -19.558  0.00  0.00    +0.094 C 
ATOM     10  C   UNL     1      37.188 -20.186 -19.736  0.00  0.00    +0.094 C 
ATOM     11  C   UNL     1      34.933 -17.550 -23.045  0.00  0.00    +0.135 C 
ATOM     12  C   UNL     1      35.431 -16.132 -21.165  0.00  0.00    -0.008 C 
ATOM     13  C   UNL     1      34.536 -16.479 -23.822  0.00  0.00    +0.036 C 
ATOM     14  C   UNL     1      36.269 -20.836 -17.523  0.00  0.00    +0.284 C 
ATOM     15  C   UNL     1      35.047 -15.032 -21.937  0.00  0.00    -0.044 C 
ATOM     16  C   UNL     1      34.601 -15.206 -23.257  0.00  0.00    -0.003 C 
ENDROOT
BRANCH  14  18
ATOM     17  O   UNL     1      34.022 -21.431 -16.870  0.00  0.00    -0.441 OA
ATOM     18  C   UNL     1      35.340 -21.759 -16.880  0.00  0.00    +0.199 C 
ATOM     19  C   UNL     1      35.543 -22.963 -16.246  0.00  0.00    +0.046 C 
ATOM     20  C   UNL     1      34.267 -23.403 -15.819  0.00  0.00    +0.049 C 
ATOM     21  C   UNL     1      33.376 -22.437 -16.222  0.00  0.00    +0.187 C 
BRANCH  21  22
ATOM     22  C   UNL     1      31.974 -22.323 -16.083  0.00  0.00    -0.023 C 
ATOM     23  C   UNL     1      30.783 -22.227 -15.965  0.00  0.00    -0.057 C 
BRANCH  23  24
ATOM     24  C   UNL     1      29.364 -22.113 -15.825  0.00  0.00    +0.042 C 
ATOM     25  C   UNL     1      28.814 -21.694 -14.613  0.00  0.00    +0.008 C 
ATOM     26  C   UNL     1      28.529 -22.419 -16.900  0.00  0.00    +0.008 C 
ATOM     27  C   UNL     1      27.430 -21.582 -14.476  0.00  0.00    +0.001 C 
ATOM     28  C   UNL     1      27.146 -22.308 -16.764  0.00  0.00    +0.001 C 
ATOM     29  C   UNL     1      26.597 -21.889 -15.552  0.00  0.00    +0.000 C 
ENDBRANCH  23  24
ENDBRANCH  21  22
ENDBRANCH  14  18
BRANCH  15  30
ATOM     30  C   UNL     1      35.104 -13.662 -21.351  0.00  0.00    -0.059 C 
BRANCH  30  31
ATOM     31  N   UNL     1      34.788 -12.623 -22.333  0.00  0.00    +0.383 N 
ATOM     32  H   UNL     1      34.447 -13.058 -23.191  0.00  0.00    -0.089 HD
ATOM     33  H   UNL     1      35.627 -12.081 -22.537  0.00  0.00    -0.089 HD
ATOM     34  H   UNL     1      34.069 -12.006 -21.956  0.00  0.00    -0.089 HD
ENDBRANCH  30  31
ENDBRANCH  15  30
TORSDOF 5
ENDMDL
MODEL 8
REMARK VINA RESULT:      -8.4      3.215     10.081
REMARK  Name = 24180717
REMARK  5 active torsions:
REMARK  status: ('A' for Active; 'I' for Inactive)
REMARK    1  A    between atoms: C_14  and  C_18
REMARK    2  A    between atoms: C_15  and  C_30
REMARK    3  A    between atoms: C_21  and  C_22
REMARK    4  A    between atoms: C_23  and  C_24
REMARK    5  A    between atoms: C_30  and  N_31
REMARK                            x       y       z     vdW  Elec       q    Type
REMARK                         _______ _______ _______ _____ _____    ______ ____
ROOT
ATOM      1  O   UNL     1      34.518 -16.359 -25.169  0.00  0.00    -0.475 OA
ATOM      2  O   UNL     1      36.930 -18.955 -18.987  0.00  0.00    -0.267 OA
ATOM      3  N   UNL     1      35.921 -18.879 -21.071  0.00  0.00    -0.274 N 
ATOM      4  C   UNL     1      35.147 -16.686 -22.835  0.00  0.00    +0.065 C 
ATOM      5  C   UNL     1      34.103 -17.618 -22.180  0.00  0.00    +0.029 C 
ATOM      6  C   UNL     1      36.429 -16.651 -21.986  0.00  0.00    +0.029 C 
ATOM      7  C   UNL     1      35.433 -17.076 -24.306  0.00  0.00    +0.209 C 
ATOM      8  C   UNL     1      34.550 -15.340 -23.098  0.00  0.00    +0.014 C 
ATOM      9  C   UNL     1      34.672 -18.998 -21.836  0.00  0.00    +0.094 C 
ATOM     10  C   UNL     1      36.954 -18.057 -21.705  0.00  0.00    +0.094 C 
ATOM     11  C   UNL     1      34.199 -15.243 -24.439  0.00  0.00    +0.135 C 
ATOM     12  C   UNL     1      34.283 -14.294 -22.229  0.00  0.00    -0.008 C 
ATOM     13  C   UNL     1      33.568 -14.129 -24.957  0.00  0.00    +0.036 C 
ATOM     14  C   UNL     1      36.169 -19.462 -19.813  0.00  0.00    +0.284 C 
ATOM     15  C   UNL     1      33.657 -13.151 -22.734  0.00  0.00    -0.044 C 
ATOM     16  C   UNL     1      33.301 -13.070 -24.089  0.00  0.00    -0.003 C 
ENDROOT
BRANCH  14  18
ATOM     17  O   UNL     1      34.781 -20.783 -18.344  0.00  0.00    -0.441 OA
ATOM     18  C   UNL     1      35.482 -20.712 -19.505  0.00  0.00    +0.199 C 
ATOM     19  C   UNL     1      35.398 -21.899 -20.194  0.00  0.00    +0.046 C 
ATOM     20  C   UNL     1      34.593 -22.755 -19.405  0.00  0.00    +0.049 C 
ATOM     21  C   UNL     1      34.242 -22.030 -18.291  0.00  0.00    +0.187 C 
BRANCH  21  22
ATOM     22  C   UNL     1      33.457 -22.349 -17.161  0.00  0.00    -0.023 C 
ATOM     23  C   UNL     1      32.790 -22.620 -16.199  0.00  0.00    -0.057 C 
BRANCH  23  24
ATOM     24  C   UNL     1      31.996 -22.945 -15.054  0.00  0.00    +0.042 C 
ATOM     25  C   UNL     1      30.881 -23.771 -15.190  0.00  0.00    +0.008 C 
ATOM     26  C   UNL     1      32.338 -22.436 -13.800  0.00  0.00    +0.008 C 
ATOM     27  C   UNL     1      30.106 -24.088 -14.074  0.00  0.00    +0.001 C 
ATOM     28  C   UNL     1      31.565 -22.753 -12.684  0.00  0.00    +0.001 C 
ATOM     29  C   UNL     1      30.449 -23.579 -12.821  0.00  0.00    +0.000 C 
ENDBRANCH  23  24
ENDBRANCH  21  22
ENDBRANCH  14  18
BRANCH  15  30
ATOM     30  C   UNL     1      33.358 -12.009 -21.822  0.00  0.00    -0.059 C 
BRANCH  30  31
ATOM     31  N   UNL     1      31.954 -11.982 -21.405  0.00  0.00    +0.383 N 
ATOM     32  H   UNL     1      31.379 -12.431 -22.119  0.00  0.00    -0.089 HD
ATOM     33  H   UNL     1      31.654 -11.015 -21.286  0.00  0.00    -0.089 HD
ATOM     34  H   UNL     1      31.852 -12.482 -20.522  0.00  0.00    -0.089 HD
ENDBRANCH  30  31
ENDBRANCH  15  30
TORSDOF 5
ENDMDL
