MODEL 1
REMARK VINA RESULT:     -11.6      0.000      0.000
REMARK  Name = 446129
REMARK  7 active torsions:
REMARK  status: ('A' for Active; 'I' for Inactive)
REMARK    1  A    between atoms: C_1  and  O_2
REMARK    2  A    between atoms: C_1  and  C_4
REMARK    3  A    between atoms: C_1  and  C_18
REMARK    4  A    between atoms: C_4  and  N_5
REMARK    5  A    between atoms: C_18  and  O_19
REMARK    6  A    between atoms: O_19  and  C_23
REMARK    7  A    between atoms: C_20  and  C_26
REMARK                            x       y       z     vdW  Elec       q    Type
REMARK                         _______ _______ _______ _____ _____    ______ ____
ROOT
ATOM      1  C   UNL     1      36.187 -17.372 -21.563  0.00  0.00    +0.133 C 
ENDROOT
BRANCH   1   2
ATOM      2  O   UNL     1      37.555 -17.705 -21.807  0.00  0.00    -0.383 OA
ATOM      3  H   UNL     1      37.687 -18.655 -21.664  0.00  0.00    +0.210 HD
ENDBRANCH   1   2
BRANCH   1   4
ATOM      4  C   UNL     1      35.654 -16.615 -22.782  0.00  0.00    -0.043 C 
BRANCH   4   5
ATOM      5  N   UNL     1      35.275 -15.241 -22.455  0.00  0.00    +0.391 N 
ATOM      6  N   UNL     1      33.539 -13.157 -21.559  0.00  0.00    -0.298 N 
ATOM      7  C   UNL     1      34.923 -15.127 -21.035  0.00  0.00    -0.055 C 
ATOM      8  C   UNL     1      34.146 -14.807 -23.287  0.00  0.00    -0.055 C 
ATOM      9  C   UNL     1      34.578 -13.682 -20.668  0.00  0.00    +0.069 C 
ATOM     10  C   UNL     1      33.776 -13.351 -22.995  0.00  0.00    +0.069 C 
ATOM     11  H   UNL     1      36.075 -14.637 -22.646  0.00  0.00    -0.079 HD
ATOM     12  N   UNL     1      32.784 -10.910 -21.911  0.00  0.00    -0.229 NA
ATOM     13  C   UNL     1      32.774 -12.054 -21.162  0.00  0.00    +0.132 C 
ATOM     14  C   UNL     1      32.012 -12.158 -19.990  0.00  0.00    +0.034 C 
ATOM     15  C   UNL     1      31.248 -11.070 -19.582  0.00  0.00    +0.004 C 
ATOM     16  C   UNL     1      32.028  -9.873 -21.483  0.00  0.00    +0.100 C 
ATOM     17  C   UNL     1      31.250  -9.903 -20.337  0.00  0.00    +0.021 C 
ENDBRANCH   4   5
ENDBRANCH   1   4
BRANCH   1  18
ATOM     18  C   UNL     1      35.415 -18.657 -21.265  0.00  0.00    +0.232 C 
BRANCH  18  19
ATOM     19  O   UNL     1      36.199 -19.474 -20.401  0.00  0.00    -0.473 OA
BRANCH  19  23
ATOM     20  C   UNL     1      34.137 -21.754 -17.612  0.00  0.00    -0.022 C 
ATOM     21  C   UNL     1      33.444 -21.114 -18.639  0.00  0.00    -0.001 C 
ATOM     22  C   UNL     1      35.523 -21.626 -17.522  0.00  0.00    -0.001 C 
ATOM     23  C   UNL     1      35.519 -20.225 -19.481  0.00  0.00    +0.139 C 
ATOM     24  C   UNL     1      34.136 -20.348 -19.576  0.00  0.00    +0.037 C 
ATOM     25  C   UNL     1      36.216 -20.859 -18.459  0.00  0.00    +0.037 C 
BRANCH  20  26
ATOM     26  C   UNL     1      33.383 -22.586 -16.591  0.00  0.00    +0.022 C 
ATOM     27  C   UNL     1      34.088 -22.595 -15.223  0.00  0.00    +0.004 C 
ATOM     28  C   UNL     1      31.920 -22.134 -16.453  0.00  0.00    +0.004 C 
ATOM     29  C   UNL     1      33.326 -23.443 -14.207  0.00  0.00    +0.000 C 
ATOM     30  C   UNL     1      31.166 -22.984 -15.431  0.00  0.00    +0.000 C 
ATOM     31  C   UNL     1      31.872 -22.997 -14.079  0.00  0.00    +0.000 C 
ENDBRANCH  20  26
ENDBRANCH  19  23
ENDBRANCH  18  19
ENDBRANCH   1  18
TORSDOF 7
ENDMDL
MODEL 2
REMARK VINA RESULT:     -11.6      1.337      2.066
REMARK  Name = 446129
REMARK  7 active torsions:
REMARK  status: ('A' for Active; 'I' for Inactive)
REMARK    1  A    between atoms: C_1  and  O_2
REMARK    2  A    between atoms: C_1  and  C_4
REMARK    3  A    between atoms: C_1  and  C_18
REMARK    4  A    between atoms: C_4  and  N_5
REMARK    5  A    between atoms: C_18  and  O_19
REMARK    6  A    between atoms: O_19  and  C_23
REMARK    7  A    between atoms: C_20  and  C_26
REMARK                            x       y       z     vdW  Elec       q    Type
REMARK                         _______ _______ _______ _____ _____    ______ ____
ROOT
ATOM      1  C   UNL     1      35.700 -17.356 -21.993  0.00  0.00    +0.133 C 
ENDROOT
BRANCH   1   2
ATOM      2  O   UNL     1      37.112 -17.560 -22.096  0.00  0.00    -0.383 OA
ATOM      3  H   UNL     1      37.323 -17.918 -22.973  0.00  0.00    +0.210 HD
ENDBRANCH   1   2
BRANCH   1   4
ATOM      4  C   UNL     1      35.188 -16.869 -23.351  0.00  0.00    -0.043 C 
BRANCH   4   5
ATOM      5  N   UNL     1      34.457 -15.606 -23.243  0.00  0.00    +0.391 N 
ATOM      6  N   UNL     1      34.115 -12.773 -23.359  0.00  0.00    -0.298 N 
ATOM      7  C   UNL     1      34.431 -14.914 -24.536  0.00  0.00    -0.055 C 
ATOM      8  C   UNL     1      35.070 -14.743 -22.226  0.00  0.00    -0.055 C 
ATOM      9  C   UNL     1      33.620 -13.618 -24.450  0.00  0.00    +0.069 C 
ATOM     10  C   UNL     1      34.281 -13.441 -22.062  0.00  0.00    +0.069 C 
ATOM     11  H   UNL     1      33.499 -15.817 -22.961  0.00  0.00    -0.079 HD
ATOM     12  N   UNL     1      33.139 -10.844 -22.323  0.00  0.00    -0.229 NA
ATOM     13  C   UNL     1      33.836 -11.402 -23.360  0.00  0.00    +0.132 C 
ATOM     14  C   UNL     1      34.284 -10.630 -24.442  0.00  0.00    +0.034 C 
ATOM     15  C   UNL     1      34.012  -9.266 -24.458  0.00  0.00    +0.004 C 
ATOM     16  C   UNL     1      32.894  -9.515 -22.374  0.00  0.00    +0.100 C 
ATOM     17  C   UNL     1      33.306  -8.690 -23.408  0.00  0.00    +0.021 C 
ENDBRANCH   4   5
ENDBRANCH   1   4
BRANCH   1  18
ATOM     18  C   UNL     1      35.049 -18.660 -21.534  0.00  0.00    +0.232 C 
BRANCH  18  19
ATOM     19  O   UNL     1      35.913 -19.302 -20.602  0.00  0.00    -0.473 OA
BRANCH  19  23
ATOM     20  C   UNL     1      34.110 -21.693 -17.728  0.00  0.00    -0.022 C 
ATOM     21  C   UNL     1      33.327 -21.012 -18.659  0.00  0.00    -0.001 C 
ATOM     22  C   UNL     1      35.499 -21.570 -17.762  0.00  0.00    -0.001 C 
ATOM     23  C   UNL     1      35.318 -20.090 -19.654  0.00  0.00    +0.139 C 
ATOM     24  C   UNL     1      33.932 -20.209 -19.625  0.00  0.00    +0.037 C 
ATOM     25  C   UNL     1      36.105 -20.766 -18.728  0.00  0.00    +0.037 C 
BRANCH  20  26
ATOM     26  C   UNL     1      33.451 -22.566 -16.676  0.00  0.00    +0.022 C 
ATOM     27  C   UNL     1      34.248 -22.581 -15.360  0.00  0.00    +0.004 C 
ATOM     28  C   UNL     1      31.988 -22.159 -16.429  0.00  0.00    +0.004 C 
ATOM     29  C   UNL     1      33.581 -23.470 -14.312  0.00  0.00    +0.000 C 
ATOM     30  C   UNL     1      31.330 -23.049 -15.377  0.00  0.00    +0.000 C 
ATOM     31  C   UNL     1      32.127 -23.068 -14.076  0.00  0.00    +0.000 C 
ENDBRANCH  20  26
ENDBRANCH  19  23
ENDBRANCH  18  19
ENDBRANCH   1  18
TORSDOF 7
ENDMDL
MODEL 3
REMARK VINA RESULT:     -11.6      3.069     10.607
REMARK  Name = 446129
REMARK  7 active torsions:
REMARK  status: ('A' for Active; 'I' for Inactive)
REMARK    1  A    between atoms: C_1  and  O_2
REMARK    2  A    between atoms: C_1  and  C_4
REMARK    3  A    between atoms: C_1  and  C_18
REMARK    4  A    between atoms: C_4  and  N_5
REMARK    5  A    between atoms: C_18  and  O_19
REMARK    6  A    between atoms: O_19  and  C_23
REMARK    7  A    between atoms: C_20  and  C_26
REMARK                            x       y       z     vdW  Elec       q    Type
REMARK                         _______ _______ _______ _____ _____    ______ ____
ROOT
ATOM      1  C   UNL     1      33.923 -15.071 -24.462  0.00  0.00    +0.133 C 
ENDROOT
BRANCH   1   2
ATOM      2  O   UNL     1      33.846 -15.278 -25.874  0.00  0.00    -0.383 OA
ATOM      3  H   UNL     1      33.684 -16.217 -26.056  0.00  0.00    +0.210 HD
ENDBRANCH   1   2
BRANCH   1   4
ATOM      4  C   UNL     1      35.387 -15.216 -24.038  0.00  0.00    -0.043 C 
BRANCH   4   5
ATOM      5  N   UNL     1      35.614 -16.426 -23.247  0.00  0.00    +0.391 N 
ATOM      6  N   UNL     1      35.040 -18.376 -21.241  0.00  0.00    -0.298 N 
ATOM      7  C   UNL     1      34.510 -17.375 -23.429  0.00  0.00    -0.055 C 
ATOM      8  C   UNL     1      35.757 -16.091 -21.825  0.00  0.00    -0.055 C 
ATOM      9  C   UNL     1      34.763 -18.669 -22.651  0.00  0.00    +0.069 C 
ATOM     10  C   UNL     1      36.053 -17.342 -20.993  0.00  0.00    +0.069 C 
ATOM     11  H   UNL     1      36.479 -16.860 -23.572  0.00  0.00    -0.079 HD
ATOM     12  N   UNL     1      35.937 -19.773 -19.512  0.00  0.00    -0.229 NA
ATOM     13  C   UNL     1      34.875 -19.378 -20.278  0.00  0.00    +0.132 C 
ATOM     14  C   UNL     1      33.606 -19.955 -20.125  0.00  0.00    +0.034 C 
ATOM     15  C   UNL     1      33.426 -20.953 -19.173  0.00  0.00    +0.004 C 
ATOM     16  C   UNL     1      35.724 -20.745 -18.596  0.00  0.00    +0.100 C 
ATOM     17  C   UNL     1      34.500 -21.360 -18.390  0.00  0.00    +0.021 C 
ENDBRANCH   4   5
ENDBRANCH   1   4
BRANCH   1  18
ATOM     18  C   UNL     1      33.333 -13.701 -24.134  0.00  0.00    +0.232 C 
BRANCH  18  19
ATOM     19  O   UNL     1      33.440 -13.476 -22.732  0.00  0.00    -0.473 OA
BRANCH  19  23
ATOM     20  C   UNL     1      32.329  -9.722 -21.353  0.00  0.00    -0.022 C 
ATOM     21  C   UNL     1      31.935 -10.865 -20.658  0.00  0.00    -0.001 C 
ATOM     22  C   UNL     1      33.095  -9.841 -22.512  0.00  0.00    -0.001 C 
ATOM     23  C   UNL     1      33.073 -12.238 -22.277  0.00  0.00    +0.139 C 
ATOM     24  C   UNL     1      32.308 -12.127 -21.121  0.00  0.00    +0.037 C 
ATOM     25  C   UNL     1      33.468 -11.103 -22.976  0.00  0.00    +0.037 C 
BRANCH  20  26
ATOM     26  C   UNL     1      31.921  -8.350 -20.850  0.00  0.00    +0.022 C 
ATOM     27  C   UNL     1      32.739  -7.925 -19.617  0.00  0.00    +0.004 C 
ATOM     28  C   UNL     1      32.002  -7.287 -21.958  0.00  0.00    +0.004 C 
ATOM     29  C   UNL     1      32.315  -6.546 -19.113  0.00  0.00    +0.000 C 
ATOM     30  C   UNL     1      31.580  -5.911 -21.444  0.00  0.00    +0.000 C 
ATOM     31  C   UNL     1      32.388  -5.496 -20.218  0.00  0.00    +0.000 C 
ENDBRANCH  20  26
ENDBRANCH  19  23
ENDBRANCH  18  19
ENDBRANCH   1  18
TORSDOF 7
ENDMDL
MODEL 4
REMARK VINA RESULT:     -11.2      3.329     11.282
REMARK  Name = 446129
REMARK  7 active torsions:
REMARK  status: ('A' for Active; 'I' for Inactive)
REMARK    1  A    between atoms: C_1  and  O_2
REMARK    2  A    between atoms: C_1  and  C_4
REMARK    3  A    between atoms: C_1  and  C_18
REMARK    4  A    between atoms: C_4  and  N_5
REMARK    5  A    between atoms: C_18  and  O_19
REMARK    6  A    between atoms: O_19  and  C_23
REMARK    7  A    between atoms: C_20  and  C_26
REMARK                            x       y       z     vdW  Elec       q    Type
REMARK                         _______ _______ _______ _____ _____    ______ ____
ROOT
ATOM      1  C   UNL     1      33.824 -14.530 -23.950  0.00  0.00    +0.133 C 
ENDROOT
BRANCH   1   2
ATOM      2  O   UNL     1      33.090 -14.191 -25.129  0.00  0.00    -0.383 OA
ATOM      3  H   UNL     1      33.638 -13.633 -25.703  0.00  0.00    +0.210 HD
ENDBRANCH   1   2
BRANCH   1   4
ATOM      4  C   UNL     1      35.123 -15.216 -24.378  0.00  0.00    -0.043 C 
BRANCH   4   5
ATOM      5  N   UNL     1      35.417 -16.396 -23.565  0.00  0.00    +0.391 N 
ATOM      6  N   UNL     1      34.998 -18.284 -21.463  0.00  0.00    -0.298 N 
ATOM      7  C   UNL     1      34.317 -17.364 -23.644  0.00  0.00    -0.055 C 
ATOM      8  C   UNL     1      35.645 -16.012 -22.166  0.00  0.00    -0.055 C 
ATOM      9  C   UNL     1      34.637 -18.628 -22.842  0.00  0.00    +0.069 C 
ATOM     10  C   UNL     1      36.010 -17.230 -21.314  0.00  0.00    +0.069 C 
ATOM     11  H   UNL     1      36.266 -16.830 -23.929  0.00  0.00    -0.079 HD
ATOM     12  N   UNL     1      36.022 -19.611 -19.749  0.00  0.00    -0.229 NA
ATOM     13  C   UNL     1      34.908 -19.255 -20.459  0.00  0.00    +0.132 C 
ATOM     14  C   UNL     1      33.660 -19.842 -20.208  0.00  0.00    +0.034 C 
ATOM     15  C   UNL     1      33.555 -20.809 -19.214  0.00  0.00    +0.004 C 
ATOM     16  C   UNL     1      35.881 -20.554 -18.791  0.00  0.00    +0.100 C 
ATOM     17  C   UNL     1      34.681 -21.177 -18.487  0.00  0.00    +0.021 C 
ENDBRANCH   4   5
ENDBRANCH   1   4
BRANCH   1  18
ATOM     18  C   UNL     1      34.053 -13.259 -23.134  0.00  0.00    +0.232 C 
BRANCH  18  19
ATOM     19  O   UNL     1      34.039 -12.139 -24.013  0.00  0.00    -0.473 OA
BRANCH  19  23
ATOM     20  C   UNL     1      33.458  -8.413 -22.278  0.00  0.00    -0.022 C 
ATOM     21  C   UNL     1      34.440  -8.582 -23.253  0.00  0.00    -0.001 C 
ATOM     22  C   UNL     1      32.672  -9.496 -21.885  0.00  0.00    -0.001 C 
ATOM     23  C   UNL     1      33.848 -10.910 -23.440  0.00  0.00    +0.139 C 
ATOM     24  C   UNL     1      34.635  -9.834 -23.837  0.00  0.00    +0.037 C 
ATOM     25  C   UNL     1      32.868 -10.748 -22.467  0.00  0.00    +0.037 C 
BRANCH  20  26
ATOM     26  C   UNL     1      33.246  -7.051 -21.643  0.00  0.00    +0.022 C 
ATOM     27  C   UNL     1      32.195  -6.221 -22.401  0.00  0.00    +0.004 C 
ATOM     28  C   UNL     1      32.887  -7.165 -20.152  0.00  0.00    +0.004 C 
ATOM     29  C   UNL     1      31.997  -4.849 -21.759  0.00  0.00    +0.000 C 
ATOM     30  C   UNL     1      32.686  -5.789 -19.518  0.00  0.00    +0.000 C 
ATOM     31  C   UNL     1      31.649  -4.966 -20.277  0.00  0.00    +0.000 C 
ENDBRANCH  20  26
ENDBRANCH  19  23
ENDBRANCH  18  19
ENDBRANCH   1  18
TORSDOF 7
ENDMDL
MODEL 5
REMARK VINA RESULT:     -11.0      5.181     11.099
REMARK  Name = 446129
REMARK  7 active torsions:
REMARK  status: ('A' for Active; 'I' for Inactive)
REMARK    1  A    between atoms: C_1  and  O_2
REMARK    2  A    between atoms: C_1  and  C_4
REMARK    3  A    between atoms: C_1  and  C_18
REMARK    4  A    between atoms: C_4  and  N_5
REMARK    5  A    between atoms: C_18  and  O_19
REMARK    6  A    between atoms: O_19  and  C_23
REMARK    7  A    between atoms: C_20  and  C_26
REMARK                            x       y       z     vdW  Elec       q    Type
REMARK                         _______ _______ _______ _____ _____    ______ ____
ROOT
ATOM      1  C   UNL     1      32.203 -22.048 -15.965  0.00  0.00    +0.133 C 
ENDROOT
BRANCH   1   2
ATOM      2  O   UNL     1      30.813 -22.371 -15.872  0.00  0.00    -0.383 OA
ATOM      3  H   UNL     1      30.345 -22.009 -16.641  0.00  0.00    +0.210 HD
ENDBRANCH   1   2
BRANCH   1   4
ATOM      4  C   UNL     1      32.908 -22.618 -14.732  0.00  0.00    -0.043 C 
BRANCH   4   5
ATOM      5  N   UNL     1      34.277 -23.041 -15.026  0.00  0.00    +0.391 N 
ATOM      6  N   UNL     1      36.937 -23.880 -14.411  0.00  0.00    -0.298 N 
ATOM      7  C   UNL     1      34.527 -24.385 -14.494  0.00  0.00    -0.055 C 
ATOM      8  C   UNL     1      35.242 -22.091 -14.460  0.00  0.00    -0.055 C 
ATOM      9  C   UNL     1      35.938 -24.863 -14.845  0.00  0.00    +0.069 C 
ATOM     10  C   UNL     1      36.677 -22.491 -14.811  0.00  0.00    +0.069 C 
ATOM     11  H   UNL     1      34.391 -23.061 -16.040  0.00  0.00    -0.079 HD
ATOM     12  N   UNL     1      39.261 -23.682 -14.961  0.00  0.00    -0.229 NA
ATOM     13  C   UNL     1      38.267 -24.275 -14.232  0.00  0.00    +0.132 C 
ATOM     14  C   UNL     1      38.545 -25.282 -13.296  0.00  0.00    +0.034 C 
ATOM     15  C   UNL     1      39.862 -25.686 -13.107  0.00  0.00    +0.004 C 
ATOM     16  C   UNL     1      40.530 -24.101 -14.751  0.00  0.00    +0.100 C 
ATOM     17  C   UNL     1      40.879 -25.089 -13.844  0.00  0.00    +0.021 C 
ENDBRANCH   4   5
ENDBRANCH   1   4
BRANCH   1  18
ATOM     18  C   UNL     1      32.747 -22.602 -17.281  0.00  0.00    +0.232 C 
BRANCH  18  19
ATOM     19  O   UNL     1      34.122 -22.249 -17.395  0.00  0.00    -0.473 OA
BRANCH  19  23
ATOM     20  C   UNL     1      35.095 -19.447 -20.298  0.00  0.00    -0.022 C 
ATOM     21  C   UNL     1      36.105 -20.082 -19.576  0.00  0.00    -0.001 C 
ATOM     22  C   UNL     1      33.758 -19.752 -20.043  0.00  0.00    -0.001 C 
ATOM     23  C   UNL     1      34.443 -21.324 -18.352  0.00  0.00    +0.139 C 
ATOM     24  C   UNL     1      35.778 -21.024 -18.601  0.00  0.00    +0.037 C 
ATOM     25  C   UNL     1      33.431 -20.693 -19.067  0.00  0.00    +0.037 C 
BRANCH  20  26
ATOM     26  C   UNL     1      35.450 -18.421 -21.358  0.00  0.00    +0.022 C 
ATOM     27  C   UNL     1      34.594 -18.586 -22.626  0.00  0.00    +0.004 C 
ATOM     28  C   UNL     1      35.361 -16.984 -20.817  0.00  0.00    +0.004 C 
ATOM     29  C   UNL     1      34.967 -17.555 -23.690  0.00  0.00    +0.000 C 
ATOM     30  C   UNL     1      35.731 -15.959 -21.888  0.00  0.00    +0.000 C 
ATOM     31  C   UNL     1      34.886 -16.131 -23.147  0.00  0.00    +0.000 C 
ENDBRANCH  20  26
ENDBRANCH  19  23
ENDBRANCH  18  19
ENDBRANCH   1  18
TORSDOF 7
ENDMDL
MODEL 6
REMARK VINA RESULT:     -10.7      1.443      2.269
REMARK  Name = 446129
REMARK  7 active torsions:
REMARK  status: ('A' for Active; 'I' for Inactive)
REMARK    1  A    between atoms: C_1  and  O_2
REMARK    2  A    between atoms: C_1  and  C_4
REMARK    3  A    between atoms: C_1  and  C_18
REMARK    4  A    between atoms: C_4  and  N_5
REMARK    5  A    between atoms: C_18  and  O_19
REMARK    6  A    between atoms: O_19  and  C_23
REMARK    7  A    between atoms: C_20  and  C_26
REMARK                            x       y       z     vdW  Elec       q    Type
REMARK                         _______ _______ _______ _____ _____    ______ ____
ROOT
ATOM      1  C   UNL     1      35.690 -17.879 -21.450  0.00  0.00    +0.133 C 
ENDROOT
BRANCH   1   2
ATOM      2  O   UNL     1      37.046 -17.969 -21.006  0.00  0.00    -0.383 OA
ATOM      3  H   UNL     1      37.064 -18.215 -20.068  0.00  0.00    +0.210 HD
ENDBRANCH   1   2
BRANCH   1   4
ATOM      4  C   UNL     1      35.675 -17.146 -22.794  0.00  0.00    -0.043 C 
BRANCH   4   5
ATOM      5  N   UNL     1      34.826 -15.956 -22.764  0.00  0.00    +0.391 N 
ATOM      6  N   UNL     1      34.232 -13.170 -22.974  0.00  0.00    -0.298 N 
ATOM      7  C   UNL     1      34.817 -15.295 -24.074  0.00  0.00    -0.055 C 
ATOM      8  C   UNL     1      35.291 -15.019 -21.734  0.00  0.00    -0.055 C 
ATOM      9  C   UNL     1      33.887 -14.080 -24.071  0.00  0.00    +0.069 C 
ATOM     10  C   UNL     1      34.377 -13.794 -21.652  0.00  0.00    +0.069 C 
ATOM     11  H   UNL     1      33.876 -16.250 -22.536  0.00  0.00    -0.079 HD
ATOM     12  N   UNL     1      33.019 -11.321 -22.050  0.00  0.00    -0.229 NA
ATOM     13  C   UNL     1      33.827 -11.831 -23.028  0.00  0.00    +0.132 C 
ATOM     14  C   UNL     1      34.269 -11.043 -24.099  0.00  0.00    +0.034 C 
ATOM     15  C   UNL     1      33.875  -9.711 -24.168  0.00  0.00    +0.004 C 
ATOM     16  C   UNL     1      32.656 -10.022 -22.149  0.00  0.00    +0.100 C 
ATOM     17  C   UNL     1      33.054  -9.183 -23.178  0.00  0.00    +0.021 C 
ENDBRANCH   4   5
ENDBRANCH   1   4
BRANCH   1  18
ATOM     18  C   UNL     1      35.104 -19.288 -21.524  0.00  0.00    +0.232 C 
BRANCH  18  19
ATOM     19  O   UNL     1      33.999 -19.375 -20.630  0.00  0.00    -0.473 OA
BRANCH  19  23
ATOM     20  C   UNL     1      34.448 -21.881 -17.351  0.00  0.00    -0.022 C 
ATOM     21  C   UNL     1      33.176 -21.621 -17.861  0.00  0.00    -0.001 C 
ATOM     22  C   UNL     1      35.569 -21.297 -17.942  0.00  0.00    -0.001 C 
ATOM     23  C   UNL     1      34.147 -20.201 -19.548  0.00  0.00    +0.139 C 
ATOM     24  C   UNL     1      33.025 -20.780 -18.963  0.00  0.00    +0.037 C 
ATOM     25  C   UNL     1      35.418 -20.454 -19.043  0.00  0.00    +0.037 C 
BRANCH  20  26
ATOM     26  C   UNL     1      34.612 -22.796 -16.152  0.00  0.00    +0.022 C 
ATOM     27  C   UNL     1      35.900 -22.490 -15.368  0.00  0.00    +0.004 C 
ATOM     28  C   UNL     1      33.382 -22.754 -15.228  0.00  0.00    +0.004 C 
ATOM     29  C   UNL     1      36.059 -23.422 -14.168  0.00  0.00    +0.000 C 
ATOM     30  C   UNL     1      33.552 -23.686 -14.029  0.00  0.00    +0.000 C 
ATOM     31  C   UNL     1      34.834 -23.385 -13.259  0.00  0.00    +0.000 C 
ENDBRANCH  20  26
ENDBRANCH  19  23
ENDBRANCH  18  19
ENDBRANCH   1  18
TORSDOF 7
ENDMDL
MODEL 7
REMARK VINA RESULT:     -10.7      1.123      2.010
REMARK  Name = 446129
REMARK  7 active torsions:
REMARK  status: ('A' for Active; 'I' for Inactive)
REMARK    1  A    between atoms: C_1  and  O_2
REMARK    2  A    between atoms: C_1  and  C_4
REMARK    3  A    between atoms: C_1  and  C_18
REMARK    4  A    between atoms: C_4  and  N_5
REMARK    5  A    between atoms: C_18  and  O_19
REMARK    6  A    between atoms: O_19  and  C_23
REMARK    7  A    between atoms: C_20  and  C_26
REMARK                            x       y       z     vdW  Elec       q    Type
REMARK                         _______ _______ _______ _____ _____    ______ ____
ROOT
ATOM      1  C   UNL     1      35.954 -17.475 -21.305  0.00  0.00    +0.133 C 
ENDROOT
BRANCH   1   2
ATOM      2  O   UNL     1      37.301 -17.950 -21.368  0.00  0.00    -0.383 OA
ATOM      3  H   UNL     1      37.789 -17.450 -22.041  0.00  0.00    +0.210 HD
ENDBRANCH   1   2
BRANCH   1   4
ATOM      4  C   UNL     1      35.666 -16.685 -22.584  0.00  0.00    -0.043 C 
BRANCH   4   5
ATOM      5  N   UNL     1      35.289 -15.300 -22.303  0.00  0.00    +0.391 N 
ATOM      6  N   UNL     1      33.547 -13.182 -21.504  0.00  0.00    -0.298 N 
ATOM      7  C   UNL     1      34.904 -15.146 -20.895  0.00  0.00    -0.055 C 
ATOM      8  C   UNL     1      34.183 -14.881 -23.172  0.00  0.00    -0.055 C 
ATOM      9  C   UNL     1      34.562 -13.689 -20.575  0.00  0.00    +0.069 C 
ATOM     10  C   UNL     1      33.817 -13.415 -22.928  0.00  0.00    +0.069 C 
ATOM     11  H   UNL     1      36.098 -14.706 -22.490  0.00  0.00    -0.079 HD
ATOM     12  N   UNL     1      32.817 -10.939 -21.934  0.00  0.00    -0.229 NA
ATOM     13  C   UNL     1      32.781 -12.064 -21.155  0.00  0.00    +0.132 C 
ATOM     14  C   UNL     1      31.991 -12.130 -19.999  0.00  0.00    +0.034 C 
ATOM     15  C   UNL     1      31.225 -11.027 -19.638  0.00  0.00    +0.004 C 
ATOM     16  C   UNL     1      32.059  -9.887 -21.551  0.00  0.00    +0.100 C 
ATOM     17  C   UNL     1      31.254  -9.880 -20.424  0.00  0.00    +0.021 C 
ENDBRANCH   4   5
ENDBRANCH   1   4
BRANCH   1  18
ATOM     18  C   UNL     1      35.022 -18.670 -21.110  0.00  0.00    +0.232 C 
BRANCH  18  19
ATOM     19  O   UNL     1      35.809 -19.834 -20.880  0.00  0.00    -0.473 OA
BRANCH  19  23
ATOM     20  C   UNL     1      35.644 -21.472 -17.070  0.00  0.00    -0.022 C 
ATOM     21  C   UNL     1      36.847 -20.963 -17.558  0.00  0.00    -0.001 C 
ATOM     22  C   UNL     1      34.496 -21.431 -17.862  0.00  0.00    -0.001 C 
ATOM     23  C   UNL     1      35.755 -20.375 -19.624  0.00  0.00    +0.139 C 
ATOM     24  C   UNL     1      36.902 -20.412 -18.838  0.00  0.00    +0.037 C 
ATOM     25  C   UNL     1      34.552 -20.882 -19.143  0.00  0.00    +0.037 C 
BRANCH  20  26
ATOM     26  C   UNL     1      35.584 -22.071 -15.677  0.00  0.00    +0.022 C 
ATOM     27  C   UNL     1      34.508 -23.166 -15.569  0.00  0.00    +0.004 C 
ATOM     28  C   UNL     1      36.955 -22.601 -15.223  0.00  0.00    +0.004 C 
ATOM     29  C   UNL     1      34.450 -23.756 -14.161  0.00  0.00    +0.000 C 
ATOM     30  C   UNL     1      36.887 -23.193 -13.816  0.00  0.00    +0.000 C 
ATOM     31  C   UNL     1      35.814 -24.272 -13.711  0.00  0.00    +0.000 C 
ENDBRANCH  20  26
ENDBRANCH  19  23
ENDBRANCH  18  19
ENDBRANCH   1  18
TORSDOF 7
ENDMDL
MODEL 8
REMARK VINA RESULT:     -10.6      1.954      3.500
REMARK  Name = 446129
REMARK  7 active torsions:
REMARK  status: ('A' for Active; 'I' for Inactive)
REMARK    1  A    between atoms: C_1  and  O_2
REMARK    2  A    between atoms: C_1  and  C_4
REMARK    3  A    between atoms: C_1  and  C_18
REMARK    4  A    between atoms: C_4  and  N_5
REMARK    5  A    between atoms: C_18  and  O_19
REMARK    6  A    between atoms: O_19  and  C_23
REMARK    7  A    between atoms: C_20  and  C_26
REMARK                            x       y       z     vdW  Elec       q    Type
REMARK                         _______ _______ _______ _____ _____    ______ ____
ROOT
ATOM      1  C   UNL     1      35.240 -14.915 -23.025  0.00  0.00    +0.133 C 
ENDROOT
BRANCH   1   2
ATOM      2  O   UNL     1      35.439 -15.698 -24.205  0.00  0.00    -0.383 OA
ATOM      3  H   UNL     1      36.347 -15.578 -24.523  0.00  0.00    +0.210 HD
ENDBRANCH   1   2
BRANCH   1   4
ATOM      4  C   UNL     1      33.881 -14.219 -23.138  0.00  0.00    -0.043 C 
BRANCH   4   5
ATOM      5  N   UNL     1      33.941 -12.822 -22.707  0.00  0.00    +0.391 N 
ATOM      6  N   UNL     1      33.134 -10.084 -22.619  0.00  0.00    -0.298 N 
ATOM      7  C   UNL     1      32.695 -12.436 -22.035  0.00  0.00    -0.055 C 
ATOM      8  C   UNL     1      34.184 -11.940 -23.855  0.00  0.00    -0.055 C 
ATOM      9  C   UNL     1      32.767 -10.993 -21.530  0.00  0.00    +0.069 C 
ATOM     10  C   UNL     1      34.306 -10.480 -23.411  0.00  0.00    +0.069 C 
ATOM     11  H   UNL     1      34.715 -12.726 -22.049  0.00  0.00    -0.079 HD
ATOM     12  N   UNL     1      33.857  -7.799 -22.558  0.00  0.00    -0.229 NA
ATOM     13  C   UNL     1      32.845  -8.718 -22.512  0.00  0.00    +0.132 C 
ATOM     14  C   UNL     1      31.507  -8.329 -22.358  0.00  0.00    +0.034 C 
ATOM     15  C   UNL     1      31.204  -6.976 -22.249  0.00  0.00    +0.004 C 
ATOM     16  C   UNL     1      33.525  -6.493 -22.449  0.00  0.00    +0.100 C 
ATOM     17  C   UNL     1      32.226  -6.035 -22.295  0.00  0.00    +0.021 C 
ENDBRANCH   4   5
ENDBRANCH   1   4
BRANCH   1  18
ATOM     18  C   UNL     1      35.350 -15.830 -21.806  0.00  0.00    +0.232 C 
BRANCH  18  19
ATOM     19  O   UNL     1      35.706 -17.138 -22.244  0.00  0.00    -0.473 OA
BRANCH  19  23
ATOM     20  C   UNL     1      35.717 -20.127 -19.364  0.00  0.00    -0.022 C 
ATOM     21  C   UNL     1      36.902 -19.467 -19.689  0.00  0.00    -0.001 C 
ATOM     22  C   UNL     1      34.529 -19.783 -20.008  0.00  0.00    -0.001 C 
ATOM     23  C   UNL     1      35.710 -18.124 -21.295  0.00  0.00    +0.139 C 
ATOM     24  C   UNL     1      36.899 -18.463 -20.656  0.00  0.00    +0.037 C 
ATOM     25  C   UNL     1      34.525 -18.779 -20.976  0.00  0.00    +0.037 C 
BRANCH  20  26
ATOM     26  C   UNL     1      35.722 -21.221 -18.312  0.00  0.00    +0.022 C 
ATOM     27  C   UNL     1      36.663 -20.887 -17.141  0.00  0.00    +0.004 C 
ATOM     28  C   UNL     1      34.304 -21.535 -17.807  0.00  0.00    +0.004 C 
ATOM     29  C   UNL     1      36.667 -21.998 -16.093  0.00  0.00    +0.000 C 
ATOM     30  C   UNL     1      34.317 -22.644 -16.756  0.00  0.00    +0.000 C 
ATOM     31  C   UNL     1      35.257 -22.313 -15.600  0.00  0.00    +0.000 C 
ENDBRANCH  20  26
ENDBRANCH  19  23
ENDBRANCH  18  19
ENDBRANCH   1  18
TORSDOF 7
ENDMDL
MODEL 9
REMARK VINA RESULT:     -10.6      2.527      3.841
REMARK  Name = 446129
REMARK  7 active torsions:
REMARK  status: ('A' for Active; 'I' for Inactive)
REMARK    1  A    between atoms: C_1  and  O_2
REMARK    2  A    between atoms: C_1  and  C_4
REMARK    3  A    between atoms: C_1  and  C_18
REMARK    4  A    between atoms: C_4  and  N_5
REMARK    5  A    between atoms: C_18  and  O_19
REMARK    6  A    between atoms: O_19  and  C_23
REMARK    7  A    between atoms: C_20  and  C_26
REMARK                            x       y       z     vdW  Elec       q    Type
REMARK                         _______ _______ _______ _____ _____    ______ ____
ROOT
ATOM      1  C   UNL     1      35.633 -19.371 -20.501  0.00  0.00    +0.133 C 
ENDROOT
BRANCH   1   2
ATOM      2  O   UNL     1      34.270 -19.180 -20.114  0.00  0.00    -0.383 OA
ATOM      3  H   UNL     1      34.229 -18.957 -19.171  0.00  0.00    +0.210 HD
ENDBRANCH   1   2
BRANCH   1   4
ATOM      4  C   UNL     1      36.295 -17.995 -20.610  0.00  0.00    -0.043 C 
BRANCH   4   5
ATOM      5  N   UNL     1      35.330 -16.943 -20.925  0.00  0.00    +0.391 N 
ATOM      6  N   UNL     1      34.474 -14.289 -21.542  0.00  0.00    -0.298 N 
ATOM      7  C   UNL     1      35.616 -16.357 -22.239  0.00  0.00    -0.055 C 
ATOM      8  C   UNL     1      35.355 -15.897 -19.895  0.00  0.00    -0.055 C 
ATOM      9  C   UNL     1      34.578 -15.293 -22.605  0.00  0.00    +0.069 C 
ATOM     10  C   UNL     1      34.308 -14.817 -20.182  0.00  0.00    +0.069 C 
ATOM     11  H   UNL     1      34.399 -17.361 -20.946  0.00  0.00    -0.079 HD
ATOM     12  N   UNL     1      32.821 -12.594 -21.163  0.00  0.00    -0.229 NA
ATOM     13  C   UNL     1      33.936 -13.028 -21.827  0.00  0.00    +0.132 C 
ATOM     14  C   UNL     1      34.565 -12.238 -22.799  0.00  0.00    +0.034 C 
ATOM     15  C   UNL     1      34.042 -10.983 -23.094  0.00  0.00    +0.004 C 
ATOM     16  C   UNL     1      32.342 -11.369 -21.477  0.00  0.00    +0.100 C 
ATOM     17  C   UNL     1      32.910 -10.533 -22.424  0.00  0.00    +0.021 C 
ENDBRANCH   4   5
ENDBRANCH   1   4
BRANCH   1  18
ATOM     18  C   UNL     1      36.307 -20.287 -19.480  0.00  0.00    +0.232 C 
BRANCH  18  19
ATOM     19  O   UNL     1      35.328 -20.739 -18.550  0.00  0.00    -0.473 OA
BRANCH  19  23
ATOM     20  C   UNL     1      36.737 -22.457 -15.044  0.00  0.00    -0.022 C 
ATOM     21  C   UNL     1      37.568 -21.629 -15.798  0.00  0.00    -0.001 C 
ATOM     22  C   UNL     1      35.432 -22.708 -15.469  0.00  0.00    -0.001 C 
ATOM     23  C   UNL     1      35.793 -21.306 -17.394  0.00  0.00    +0.139 C 
ATOM     24  C   UNL     1      37.095 -21.051 -16.976  0.00  0.00    +0.037 C 
ATOM     25  C   UNL     1      34.960 -22.132 -16.648  0.00  0.00    +0.037 C 
BRANCH  20  26
ATOM     26  C   UNL     1      37.253 -23.085 -13.763  0.00  0.00    +0.022 C 
ATOM     27  C   UNL     1      36.150 -23.859 -13.019  0.00  0.00    +0.004 C 
ATOM     28  C   UNL     1      38.477 -23.981 -14.018  0.00  0.00    +0.004 C 
ATOM     29  C   UNL     1      36.678 -24.479 -11.726  0.00  0.00    +0.000 C 
ATOM     30  C   UNL     1      38.995 -24.601 -12.721  0.00  0.00    +0.000 C 
ATOM     31  C   UNL     1      37.898 -25.360 -11.982  0.00  0.00    +0.000 C 
ENDBRANCH  20  26
ENDBRANCH  19  23
ENDBRANCH  18  19
ENDBRANCH   1  18
TORSDOF 7
ENDMDL
