MODEL 1
REMARK VINA RESULT:     -12.4      0.000      0.000
REMARK  Name = 10267580
REMARK  2 active torsions:
REMARK  status: ('A' for Active; 'I' for Inactive)
REMARK    1  A    between atoms: N_1  and  C_21
REMARK    2  A    between atoms: C_7  and  C_14
REMARK                            x       y       z     vdW  Elec       q    Type
REMARK                         _______ _______ _______ _____ _____    ______ ____
ROOT
ATOM      1  N   UNL     1      32.917 -21.832 -17.871  0.00  0.00    -0.290 N 
ATOM      2  N   UNL     1      34.452 -22.647 -16.285  0.00  0.00    -0.327 NA
ATOM      3  N   UNL     1      33.691 -23.505 -14.167  0.00  0.00    -0.342 NA
ATOM      4  C   UNL     1      32.094 -22.683 -15.756  0.00  0.00    +0.143 C 
ATOM      5  C   UNL     1      33.165 -22.404 -16.599  0.00  0.00    +0.184 C 
ATOM      6  C   UNL     1      32.416 -23.251 -14.511  0.00  0.00    +0.133 C 
ATOM      7  C   UNL     1      34.639 -23.190 -15.071  0.00  0.00    +0.165 C 
ATOM      8  C   UNL     1      30.758 -22.420 -16.106  0.00  0.00    -0.011 C 
ATOM      9  C   UNL     1      31.371 -23.543 -13.640  0.00  0.00    +0.029 C 
ATOM     10  C   UNL     1      29.733 -22.722 -15.214  0.00  0.00    -0.004 C 
ATOM     11  C   UNL     1      30.040 -23.284 -13.981  0.00  0.00    +0.002 C 
ATOM     12  H   UNL     1      32.015 -21.975 -18.240  0.00  0.00    +0.154 HD
ENDROOT
BRANCH   7  14
ATOM     13  N   UNL     1      36.163 -24.516 -13.855  0.00  0.00    -0.398 NA
ATOM     14  C   UNL     1      36.001 -23.466 -14.695  0.00  0.00    +0.197 C 
ATOM     15  C   UNL     1      37.049 -22.693 -15.175  0.00  0.00    +0.098 C 
ATOM     16  C   UNL     1      37.432 -24.799 -13.482  0.00  0.00    +0.110 C 
ATOM     17  C   UNL     1      38.339 -23.016 -14.768  0.00  0.00    -0.016 C 
ATOM     18  C   UNL     1      38.542 -24.088 -13.907  0.00  0.00    +0.023 C 
ATOM     19  C   UNL     1      37.612 -25.956 -12.557  0.00  0.00    +0.066 C 
ENDBRANCH   7  14
BRANCH   1  21
ATOM     20  N   UNL     1      35.542 -19.588 -20.270  0.00  0.00    -0.242 NA
ATOM     21  C   UNL     1      33.780 -21.094 -18.660  0.00  0.00    +0.053 C 
ATOM     22  C   UNL     1      33.296 -20.124 -19.552  0.00  0.00    +0.035 C 
ATOM     23  C   UNL     1      35.169 -21.290 -18.595  0.00  0.00    +0.035 C 
ATOM     24  C   UNL     1      34.202 -19.411 -20.321  0.00  0.00    +0.100 C 
ATOM     25  C   UNL     1      35.991 -20.525 -19.406  0.00  0.00    +0.100 C 
ENDBRANCH   1  21
TORSDOF 2
ENDMDL
MODEL 2
REMARK VINA RESULT:     -12.2      1.517      6.790
REMARK  Name = 10267580
REMARK  2 active torsions:
REMARK  status: ('A' for Active; 'I' for Inactive)
REMARK    1  A    between atoms: N_1  and  C_21
REMARK    2  A    between atoms: C_7  and  C_14
REMARK                            x       y       z     vdW  Elec       q    Type
REMARK                         _______ _______ _______ _____ _____    ______ ____
ROOT
ATOM      1  N   UNL     1      35.933 -22.824 -15.993  0.00  0.00    -0.290 N 
ATOM      2  N   UNL     1      33.581 -22.828 -15.937  0.00  0.00    -0.327 NA
ATOM      3  N   UNL     1      32.311 -21.605 -17.579  0.00  0.00    -0.342 NA
ATOM      4  C   UNL     1      34.707 -21.576 -17.672  0.00  0.00    +0.143 C 
ATOM      5  C   UNL     1      34.701 -22.398 -16.548  0.00  0.00    +0.184 C 
ATOM      6  C   UNL     1      33.449 -21.194 -18.166  0.00  0.00    +0.133 C 
ATOM      7  C   UNL     1      32.438 -22.399 -16.498  0.00  0.00    +0.165 C 
ATOM      8  C   UNL     1      35.891 -21.140 -18.292  0.00  0.00    -0.011 C 
ATOM      9  C   UNL     1      33.414 -20.372 -19.289  0.00  0.00    +0.029 C 
ATOM     10  C   UNL     1      35.826 -20.318 -19.413  0.00  0.00    -0.004 C 
ATOM     11  C   UNL     1      34.587 -19.934 -19.911  0.00  0.00    +0.002 C 
ATOM     12  H   UNL     1      36.706 -22.818 -16.604  0.00  0.00    +0.154 HD
ENDROOT
BRANCH   7  14
ATOM     13  N   UNL     1      30.095 -22.214 -16.313  0.00  0.00    -0.398 NA
ATOM     14  C   UNL     1      31.215 -22.835 -15.875  0.00  0.00    +0.197 C 
ATOM     15  C   UNL     1      31.219 -23.823 -14.900  0.00  0.00    +0.098 C 
ATOM     16  C   UNL     1      28.930 -22.601 -15.746  0.00  0.00    +0.110 C 
ATOM     17  C   UNL     1      30.001 -24.194 -14.341  0.00  0.00    -0.016 C 
ATOM     18  C   UNL     1      28.830 -23.576 -14.767  0.00  0.00    +0.023 C 
ATOM     19  C   UNL     1      27.694 -21.918 -16.228  0.00  0.00    +0.066 C 
ENDBRANCH   7  14
BRANCH   1  21
ATOM     20  N   UNL     1      36.708 -24.108 -12.065  0.00  0.00    -0.242 NA
ATOM     21  C   UNL     1      36.188 -23.246 -14.701  0.00  0.00    +0.053 C 
ATOM     22  C   UNL     1      36.521 -24.583 -14.428  0.00  0.00    +0.035 C 
ATOM     23  C   UNL     1      36.123 -22.353 -13.620  0.00  0.00    +0.035 C 
ATOM     24  C   UNL     1      36.767 -24.956 -13.117  0.00  0.00    +0.100 C 
ATOM     25  C   UNL     1      36.387 -22.825 -12.345  0.00  0.00    +0.100 C 
ENDBRANCH   1  21
TORSDOF 2
ENDMDL
MODEL 3
REMARK VINA RESULT:     -12.1      1.350      5.729
REMARK  Name = 10267580
REMARK  2 active torsions:
REMARK  status: ('A' for Active; 'I' for Inactive)
REMARK    1  A    between atoms: N_1  and  C_21
REMARK    2  A    between atoms: C_7  and  C_14
REMARK                            x       y       z     vdW  Elec       q    Type
REMARK                         _______ _______ _______ _____ _____    ______ ____
ROOT
ATOM      1  N   UNL     1      34.747 -24.019 -13.555  0.00  0.00    -0.290 N 
ATOM      2  N   UNL     1      34.469 -22.815 -15.557  0.00  0.00    -0.327 NA
ATOM      3  N   UNL     1      32.270 -22.423 -16.461  0.00  0.00    -0.342 NA
ATOM      4  C   UNL     1      32.510 -23.655 -14.417  0.00  0.00    +0.143 C 
ATOM      5  C   UNL     1      33.885 -23.479 -14.542  0.00  0.00    +0.184 C 
ATOM      6  C   UNL     1      31.719 -23.092 -15.432  0.00  0.00    +0.133 C 
ATOM      7  C   UNL     1      33.614 -22.321 -16.467  0.00  0.00    +0.165 C 
ATOM      8  C   UNL     1      31.924 -24.354 -13.347  0.00  0.00    -0.011 C 
ATOM      9  C   UNL     1      30.339 -23.248 -15.342  0.00  0.00    +0.029 C 
ATOM     10  C   UNL     1      30.541 -24.495 -13.283  0.00  0.00    -0.004 C 
ATOM     11  C   UNL     1      29.748 -23.941 -14.281  0.00  0.00    +0.002 C 
ATOM     12  H   UNL     1      34.342 -24.183 -12.672  0.00  0.00    +0.154 HD
ENDROOT
BRANCH   7  14
ATOM     13  N   UNL     1      33.307 -21.025 -18.413  0.00  0.00    -0.398 NA
ATOM     14  C   UNL     1      34.196 -21.603 -17.571  0.00  0.00    +0.197 C 
ATOM     15  C   UNL     1      35.573 -21.528 -17.732  0.00  0.00    +0.098 C 
ATOM     16  C   UNL     1      33.823 -20.344 -19.461  0.00  0.00    +0.110 C 
ATOM     17  C   UNL     1      36.065 -20.818 -18.823  0.00  0.00    -0.016 C 
ATOM     18  C   UNL     1      35.181 -20.212 -19.707  0.00  0.00    +0.023 C 
ATOM     19  C   UNL     1      32.845 -19.706 -20.390  0.00  0.00    +0.066 C 
ENDBRANCH   7  14
BRANCH   1  21
ATOM     20  N   UNL     1      38.814 -25.022 -13.925  0.00  0.00    -0.242 NA
ATOM     21  C   UNL     1      36.084 -24.348 -13.676  0.00  0.00    +0.053 C 
ATOM     22  C   UNL     1      36.495 -25.431 -14.472  0.00  0.00    +0.035 C 
ATOM     23  C   UNL     1      37.076 -23.612 -13.009  0.00  0.00    +0.035 C 
ATOM     24  C   UNL     1      37.847 -25.721 -14.560  0.00  0.00    +0.100 C 
ATOM     25  C   UNL     1      38.403 -23.983 -13.163  0.00  0.00    +0.100 C 
ENDBRANCH   1  21
TORSDOF 2
ENDMDL
MODEL 4
REMARK VINA RESULT:     -11.7      1.967      6.116
REMARK  Name = 10267580
REMARK  2 active torsions:
REMARK  status: ('A' for Active; 'I' for Inactive)
REMARK    1  A    between atoms: N_1  and  C_21
REMARK    2  A    between atoms: C_7  and  C_14
REMARK                            x       y       z     vdW  Elec       q    Type
REMARK                         _______ _______ _______ _____ _____    ______ ____
ROOT
ATOM      1  N   UNL     1      33.128 -23.998 -13.155  0.00  0.00    -0.290 N 
ATOM      2  N   UNL     1      34.416 -22.911 -14.796  0.00  0.00    -0.327 NA
ATOM      3  N   UNL     1      36.709 -22.311 -14.363  0.00  0.00    -0.342 NA
ATOM      4  C   UNL     1      35.430 -23.419 -12.662  0.00  0.00    +0.143 C 
ATOM      5  C   UNL     1      34.361 -23.424 -13.553  0.00  0.00    +0.184 C 
ATOM      6  C   UNL     1      36.620 -22.833 -13.126  0.00  0.00    +0.133 C 
ATOM      7  C   UNL     1      35.603 -22.379 -15.130  0.00  0.00    +0.165 C 
ATOM      8  C   UNL     1      35.348 -23.961 -11.367  0.00  0.00    -0.011 C 
ATOM      9  C   UNL     1      37.712 -22.809 -12.263  0.00  0.00    +0.029 C 
ATOM     10  C   UNL     1      36.456 -23.922 -10.526  0.00  0.00    -0.004 C 
ATOM     11  C   UNL     1      37.638 -23.345 -10.974  0.00  0.00    +0.002 C 
ATOM     12  H   UNL     1      33.176 -24.661 -12.428  0.00  0.00    +0.154 HD
ENDROOT
BRANCH   7  14
ATOM     13  N   UNL     1      34.575 -21.885 -17.194  0.00  0.00    -0.398 NA
ATOM     14  C   UNL     1      35.706 -21.818 -16.452  0.00  0.00    +0.197 C 
ATOM     15  C   UNL     1      36.893 -21.257 -16.904  0.00  0.00    +0.098 C 
ATOM     16  C   UNL     1      34.641 -21.367 -18.442  0.00  0.00    +0.110 C 
ATOM     17  C   UNL     1      36.921 -20.736 -18.193  0.00  0.00    -0.016 C 
ATOM     18  C   UNL     1      35.778 -20.787 -18.982  0.00  0.00    +0.023 C 
ATOM     19  C   UNL     1      33.396 -21.439 -19.260  0.00  0.00    +0.066 C 
ENDBRANCH   7  14
BRANCH   1  21
ATOM     20  N   UNL     1      29.287 -23.225 -14.681  0.00  0.00    -0.242 NA
ATOM     21  C   UNL     1      31.865 -23.743 -13.656  0.00  0.00    +0.053 C 
ATOM     22  C   UNL     1      30.979 -24.792 -13.955  0.00  0.00    +0.035 C 
ATOM     23  C   UNL     1      31.426 -22.430 -13.885  0.00  0.00    +0.035 C 
ATOM     24  C   UNL     1      29.725 -24.485 -14.456  0.00  0.00    +0.100 C 
ATOM     25  C   UNL     1      30.152 -22.228 -14.389  0.00  0.00    +0.100 C 
ENDBRANCH   1  21
TORSDOF 2
ENDMDL
MODEL 5
REMARK VINA RESULT:     -11.5      1.527      6.378
REMARK  Name = 10267580
REMARK  2 active torsions:
REMARK  status: ('A' for Active; 'I' for Inactive)
REMARK    1  A    between atoms: N_1  and  C_21
REMARK    2  A    between atoms: C_7  and  C_14
REMARK                            x       y       z     vdW  Elec       q    Type
REMARK                         _______ _______ _______ _____ _____    ______ ____
ROOT
ATOM      1  N   UNL     1      33.020 -23.959 -14.274  0.00  0.00    -0.290 N 
ATOM      2  N   UNL     1      33.884 -22.652 -16.030  0.00  0.00    -0.327 NA
ATOM      3  N   UNL     1      36.231 -22.116 -16.122  0.00  0.00    -0.342 NA
ATOM      4  C   UNL     1      35.390 -23.450 -14.316  0.00  0.00    +0.143 C 
ATOM      5  C   UNL     1      34.130 -23.333 -14.894  0.00  0.00    +0.184 C 
ATOM      6  C   UNL     1      36.442 -22.805 -14.987  0.00  0.00    +0.133 C 
ATOM      7  C   UNL     1      34.965 -22.077 -16.582  0.00  0.00    +0.165 C 
ATOM      8  C   UNL     1      35.622 -24.167 -13.128  0.00  0.00    -0.011 C 
ATOM      9  C   UNL     1      37.718 -22.900 -14.437  0.00  0.00    +0.029 C 
ATOM     10  C   UNL     1      36.908 -24.244 -12.602  0.00  0.00    -0.004 C 
ATOM     11  C   UNL     1      37.956 -23.610 -13.257  0.00  0.00    +0.002 C 
ATOM     12  H   UNL     1      33.228 -24.716 -13.680  0.00  0.00    +0.154 HD
ENDROOT
BRANCH   7  14
ATOM     13  N   UNL     1      35.846 -20.728 -18.304  0.00  0.00    -0.398 NA
ATOM     14  C   UNL     1      34.748 -21.338 -17.798  0.00  0.00    +0.197 C 
ATOM     15  C   UNL     1      33.491 -21.275 -18.385  0.00  0.00    +0.098 C 
ATOM     16  C   UNL     1      35.673 -20.025 -19.446  0.00  0.00    +0.110 C 
ATOM     17  C   UNL     1      33.354 -20.542 -19.559  0.00  0.00    -0.016 C 
ATOM     18  C   UNL     1      34.460 -19.903 -20.105  0.00  0.00    +0.023 C 
ATOM     19  C   UNL     1      36.882 -19.352 -20.004  0.00  0.00    +0.066 C 
ENDBRANCH   7  14
BRANCH   1  21
ATOM     20  N   UNL     1      28.946 -22.986 -14.644  0.00  0.00    -0.242 NA
ATOM     21  C   UNL     1      31.681 -23.638 -14.395  0.00  0.00    +0.053 C 
ATOM     22  C   UNL     1      30.710 -24.638 -14.573  0.00  0.00    +0.035 C 
ATOM     23  C   UNL     1      31.246 -22.304 -14.346  0.00  0.00    +0.035 C 
ATOM     24  C   UNL     1      29.380 -24.265 -14.690  0.00  0.00    +0.100 C 
ATOM     25  C   UNL     1      29.892 -22.036 -14.473  0.00  0.00    +0.100 C 
ENDBRANCH   1  21
TORSDOF 2
ENDMDL
MODEL 6
REMARK VINA RESULT:     -11.5      1.691      5.097
REMARK  Name = 10267580
REMARK  2 active torsions:
REMARK  status: ('A' for Active; 'I' for Inactive)
REMARK    1  A    between atoms: N_1  and  C_21
REMARK    2  A    between atoms: C_7  and  C_14
REMARK                            x       y       z     vdW  Elec       q    Type
REMARK                         _______ _______ _______ _____ _____    ______ ____
ROOT
ATOM      1  N   UNL     1      32.781 -22.332 -15.990  0.00  0.00    -0.290 N 
ATOM      2  N   UNL     1      34.889 -22.671 -15.002  0.00  0.00    -0.327 NA
ATOM      3  N   UNL     1      36.904 -22.012 -16.147  0.00  0.00    -0.342 NA
ATOM      4  C   UNL     1      34.775 -21.649 -17.189  0.00  0.00    +0.143 C 
ATOM      5  C   UNL     1      34.191 -22.216 -16.060  0.00  0.00    +0.184 C 
ATOM      6  C   UNL     1      36.177 -21.566 -17.187  0.00  0.00    +0.133 C 
ATOM      7  C   UNL     1      36.221 -22.540 -15.112  0.00  0.00    +0.165 C 
ATOM      8  C   UNL     1      34.024 -21.181 -18.282  0.00  0.00    -0.011 C 
ATOM      9  C   UNL     1      36.796 -21.005 -18.301  0.00  0.00    +0.029 C 
ATOM     10  C   UNL     1      34.671 -20.625 -19.382  0.00  0.00    -0.004 C 
ATOM     11  C   UNL     1      36.058 -20.538 -19.391  0.00  0.00    +0.002 C 
ATOM     12  H   UNL     1      32.269 -21.713 -16.559  0.00  0.00    +0.154 HD
ENDROOT
BRANCH   7  14
ATOM     13  N   UNL     1      38.114 -23.715 -14.341  0.00  0.00    -0.398 NA
ATOM     14  C   UNL     1      37.007 -23.015 -14.002  0.00  0.00    +0.197 C 
ATOM     15  C   UNL     1      36.628 -22.756 -12.692  0.00  0.00    +0.098 C 
ATOM     16  C   UNL     1      38.872 -24.176 -13.320  0.00  0.00    +0.110 C 
ATOM     17  C   UNL     1      37.433 -23.246 -11.670  0.00  0.00    -0.016 C 
ATOM     18  C   UNL     1      38.578 -23.970 -11.982  0.00  0.00    +0.023 C 
ATOM     19  C   UNL     1      40.094 -24.948 -13.692  0.00  0.00    +0.066 C 
ENDBRANCH   7  14
BRANCH   1  21
ATOM     20  N   UNL     1      30.503 -24.996 -13.668  0.00  0.00    -0.242 NA
ATOM     21  C   UNL     1      32.033 -23.208 -15.226  0.00  0.00    +0.053 C 
ATOM     22  C   UNL     1      30.785 -23.675 -15.672  0.00  0.00    +0.035 C 
ATOM     23  C   UNL     1      32.493 -23.661 -13.980  0.00  0.00    +0.035 C 
ATOM     24  C   UNL     1      30.073 -24.551 -14.870  0.00  0.00    +0.100 C 
ATOM     25  C   UNL     1      31.705 -24.538 -13.253  0.00  0.00    +0.100 C 
ENDBRANCH   1  21
TORSDOF 2
ENDMDL
MODEL 7
REMARK VINA RESULT:     -10.9      1.293      5.397
REMARK  Name = 10267580
REMARK  2 active torsions:
REMARK  status: ('A' for Active; 'I' for Inactive)
REMARK    1  A    between atoms: N_1  and  C_21
REMARK    2  A    between atoms: C_7  and  C_14
REMARK                            x       y       z     vdW  Elec       q    Type
REMARK                         _______ _______ _______ _____ _____    ______ ____
ROOT
ATOM      1  N   UNL     1      36.693 -21.810 -16.280  0.00  0.00    -0.290 N 
ATOM      2  N   UNL     1      34.797 -22.675 -15.186  0.00  0.00    -0.327 NA
ATOM      3  N   UNL     1      35.031 -24.282 -13.407  0.00  0.00    -0.342 NA
ATOM      4  C   UNL     1      36.988 -23.425 -14.496  0.00  0.00    +0.143 C 
ATOM      5  C   UNL     1      36.140 -22.662 -15.292  0.00  0.00    +0.184 C 
ATOM      6  C   UNL     1      36.369 -24.245 -13.538  0.00  0.00    +0.133 C 
ATOM      7  C   UNL     1      34.318 -23.495 -14.237  0.00  0.00    +0.165 C 
ATOM      8  C   UNL     1      38.389 -23.395 -14.625  0.00  0.00    -0.011 C 
ATOM      9  C   UNL     1      37.187 -25.023 -12.723  0.00  0.00    +0.029 C 
ATOM     10  C   UNL     1      39.181 -24.184 -13.797  0.00  0.00    -0.004 C 
ATOM     11  C   UNL     1      38.579 -24.999 -12.845  0.00  0.00    +0.002 C 
ATOM     12  H   UNL     1      37.626 -21.532 -16.136  0.00  0.00    +0.154 HD
ENDROOT
BRANCH   7  14
ATOM     13  N   UNL     1      32.190 -22.902 -15.060  0.00  0.00    -0.398 NA
ATOM     14  C   UNL     1      32.887 -23.540 -14.090  0.00  0.00    +0.197 C 
ATOM     15  C   UNL     1      32.295 -24.198 -13.020  0.00  0.00    +0.098 C 
ATOM     16  C   UNL     1      30.842 -22.926 -14.949  0.00  0.00    +0.110 C 
ATOM     17  C   UNL     1      30.907 -24.200 -12.941  0.00  0.00    -0.016 C 
ATOM     18  C   UNL     1      30.160 -23.555 -13.920  0.00  0.00    +0.023 C 
ATOM     19  C   UNL     1      30.072 -22.224 -16.017  0.00  0.00    +0.066 C 
ENDBRANCH   7  14
BRANCH   1  21
ATOM     20  N   UNL     1      34.855 -20.327 -19.759  0.00  0.00    -0.242 NA
ATOM     21  C   UNL     1      36.088 -21.323 -17.424  0.00  0.00    +0.053 C 
ATOM     22  C   UNL     1      36.814 -20.575 -18.365  0.00  0.00    +0.035 C 
ATOM     23  C   UNL     1      34.728 -21.558 -17.683  0.00  0.00    +0.035 C 
ATOM     24  C   UNL     1      36.163 -20.108 -19.495  0.00  0.00    +0.100 C 
ATOM     25  C   UNL     1      34.170 -21.048 -18.844  0.00  0.00    +0.100 C 
ENDBRANCH   1  21
TORSDOF 2
ENDMDL
MODEL 8
REMARK VINA RESULT:     -10.7      8.376     12.387
REMARK  Name = 10267580
REMARK  2 active torsions:
REMARK  status: ('A' for Active; 'I' for Inactive)
REMARK    1  A    between atoms: N_1  and  C_21
REMARK    2  A    between atoms: C_7  and  C_14
REMARK                            x       y       z     vdW  Elec       q    Type
REMARK                         _______ _______ _______ _____ _____    ______ ____
ROOT
ATOM      1  N   UNL     1      33.299 -10.000 -23.076  0.00  0.00    -0.290 N 
ATOM      2  N   UNL     1      33.829 -12.251 -22.643  0.00  0.00    -0.327 NA
ATOM      3  N   UNL     1      33.143 -13.302 -20.587  0.00  0.00    -0.342 NA
ATOM      4  C   UNL     1      32.581 -11.005 -20.990  0.00  0.00    +0.143 C 
ATOM      5  C   UNL     1      33.236 -11.121 -22.212  0.00  0.00    +0.184 C 
ATOM      6  C   UNL     1      32.560 -12.158 -20.187  0.00  0.00    +0.133 C 
ATOM      7  C   UNL     1      33.745 -13.286 -21.793  0.00  0.00    +0.165 C 
ATOM      8  C   UNL     1      31.970  -9.814 -20.561  0.00  0.00    -0.011 C 
ATOM      9  C   UNL     1      31.914 -12.080 -18.956  0.00  0.00    +0.029 C 
ATOM     10  C   UNL     1      31.331  -9.765 -19.326  0.00  0.00    -0.004 C 
ATOM     11  C   UNL     1      31.304 -10.900 -18.523  0.00  0.00    +0.002 C 
ATOM     12  H   UNL     1      32.601  -9.316 -22.946  0.00  0.00    +0.154 HD
ENDROOT
BRANCH   7  14
ATOM     13  N   UNL     1      34.822 -15.302 -21.211  0.00  0.00    -0.398 NA
ATOM     14  C   UNL     1      34.366 -14.515 -22.214  0.00  0.00    +0.197 C 
ATOM     15  C   UNL     1      34.474 -14.840 -23.560  0.00  0.00    +0.098 C 
ATOM     16  C   UNL     1      35.412 -16.463 -21.575  0.00  0.00    +0.110 C 
ATOM     17  C   UNL     1      35.087 -16.043 -23.894  0.00  0.00    -0.016 C 
ATOM     18  C   UNL     1      35.567 -16.875 -22.889  0.00  0.00    +0.023 C 
ATOM     19  C   UNL     1      35.914 -17.331 -20.471  0.00  0.00    +0.066 C 
ENDBRANCH   7  14
BRANCH   1  21
ATOM     20  N   UNL     1      36.089  -9.215 -26.122  0.00  0.00    -0.242 NA
ATOM     21  C   UNL     1      34.216  -9.742 -24.078  0.00  0.00    +0.053 C 
ATOM     22  C   UNL     1      35.187  -8.738 -23.931  0.00  0.00    +0.035 C 
ATOM     23  C   UNL     1      34.208 -10.475 -25.275  0.00  0.00    +0.035 C 
ATOM     24  C   UNL     1      36.083  -8.518 -24.964  0.00  0.00    +0.100 C 
ATOM     25  C   UNL     1      35.149 -10.178 -26.248  0.00  0.00    +0.100 C 
ENDBRANCH   1  21
TORSDOF 2
ENDMDL
MODEL 9
REMARK VINA RESULT:     -10.5      9.399     12.519
REMARK  Name = 10267580
REMARK  2 active torsions:
REMARK  status: ('A' for Active; 'I' for Inactive)
REMARK    1  A    between atoms: N_1  and  C_21
REMARK    2  A    between atoms: C_7  and  C_14
REMARK                            x       y       z     vdW  Elec       q    Type
REMARK                         _______ _______ _______ _____ _____    ______ ____
ROOT
ATOM      1  N   UNL     1      33.182 -10.043 -23.021  0.00  0.00    -0.290 N 
ATOM      2  N   UNL     1      33.757 -12.234 -22.384  0.00  0.00    -0.327 NA
ATOM      3  N   UNL     1      33.104 -13.101 -20.234  0.00  0.00    -0.342 NA
ATOM      4  C   UNL     1      32.497 -10.863 -20.844  0.00  0.00    +0.143 C 
ATOM      5  C   UNL     1      33.146 -11.080 -22.056  0.00  0.00    +0.184 C 
ATOM      6  C   UNL     1      32.503 -11.936 -19.937  0.00  0.00    +0.133 C 
ATOM      7  C   UNL     1      33.698 -13.187 -21.440  0.00  0.00    +0.165 C 
ATOM      8  C   UNL     1      31.867  -9.647 -20.523  0.00  0.00    -0.011 C 
ATOM      9  C   UNL     1      31.863 -11.755 -18.713  0.00  0.00    +0.029 C 
ATOM     10  C   UNL     1      31.236  -9.496 -19.292  0.00  0.00    -0.004 C 
ATOM     11  C   UNL     1      31.234 -10.550 -18.387  0.00  0.00    +0.002 C 
ATOM     12  H   UNL     1      32.473  -9.363 -22.949  0.00  0.00    +0.154 HD
ENDROOT
BRANCH   7  14
ATOM     13  N   UNL     1      34.271 -14.812 -23.051  0.00  0.00    -0.398 NA
ATOM     14  C   UNL     1      34.339 -14.439 -21.751  0.00  0.00    +0.197 C 
ATOM     15  C   UNL     1      34.971 -15.185 -20.766  0.00  0.00    +0.098 C 
ATOM     16  C   UNL     1      34.863 -15.984 -23.374  0.00  0.00    +0.110 C 
ATOM     17  C   UNL     1      35.569 -16.385 -21.137  0.00  0.00    -0.016 C 
ATOM     18  C   UNL     1      35.518 -16.798 -22.464  0.00  0.00    +0.023 C 
ATOM     19  C   UNL     1      34.790 -16.396 -24.806  0.00  0.00    +0.066 C 
ENDBRANCH   7  14
BRANCH   1  21
ATOM     20  N   UNL     1      35.938  -9.497 -26.149  0.00  0.00    -0.242 NA
ATOM     21  C   UNL     1      34.088  -9.864 -24.049  0.00  0.00    +0.053 C 
ATOM     22  C   UNL     1      35.168  -8.976 -23.917  0.00  0.00    +0.035 C 
ATOM     23  C   UNL     1      33.958 -10.562 -25.260  0.00  0.00    +0.035 C 
ATOM     24  C   UNL     1      36.048  -8.832 -24.977  0.00  0.00    +0.100 C 
ATOM     25  C   UNL     1      34.893 -10.347 -26.261  0.00  0.00    +0.100 C 
ENDBRANCH   1  21
TORSDOF 2
ENDMDL
