MODEL 1
REMARK VINA RESULT:     -12.0      0.000      0.000
REMARK  Name = 25113181
REMARK  3 active torsions:
REMARK  status: ('A' for Active; 'I' for Inactive)
REMARK    1  A    between atoms: C_14  and  C_19
REMARK    2  A    between atoms: C_17  and  C_30
REMARK    3  A    between atoms: C_22  and  O_25
REMARK                            x       y       z     vdW  Elec       q    Type
REMARK                         _______ _______ _______ _____ _____    ______ ____
ROOT
ATOM      1  N   UNL     1      35.981 -23.821 -13.612  0.00  0.00    -0.290 N 
ATOM      2  N   UNL     1      38.822 -23.995 -13.367  0.00  0.00    +0.388 N 
ATOM      3  N   UNL     1      34.158 -23.021 -14.905  0.00  0.00    -0.392 NA
ATOM      4  N   UNL     1      32.419 -23.903 -12.925  0.00  0.00    -0.263 NA
ATOM      5  C   UNL     1      36.814 -24.009 -14.807  0.00  0.00    +0.070 C 
ATOM      6  C   UNL     1      36.656 -23.223 -12.457  0.00  0.00    +0.070 C 
ATOM      7  C   UNL     1      38.125 -24.708 -14.445  0.00  0.00    -0.056 C 
ATOM      8  C   UNL     1      37.974 -23.948 -12.170  0.00  0.00    -0.056 C 
ATOM      9  C   UNL     1      34.608 -23.626 -13.792  0.00  0.00    +0.184 C 
ATOM     10  C   UNL     1      40.099 -24.640 -13.066  0.00  0.00    -0.101 C 
ATOM     11  C   UNL     1      32.829 -22.853 -15.035  0.00  0.00    +0.131 C 
ATOM     12  C   UNL     1      33.751 -24.061 -12.816  0.00  0.00    +0.199 C 
ATOM     13  C   UNL     1      31.949 -23.301 -14.032  0.00  0.00    +0.084 C 
ATOM     14  C   UNL     1      32.308 -22.233 -16.167  0.00  0.00    +0.097 C 
ATOM     15  C   UNL     1      30.580 -23.110 -14.198  0.00  0.00    +0.078 C 
ATOM     16  C   UNL     1      30.935 -22.048 -16.324  0.00  0.00    -0.015 C 
ATOM     17  C   UNL     1      30.068 -22.489 -15.336  0.00  0.00    +0.052 C 
ATOM     18  H   UNL     1      39.013 -23.041 -13.673  0.00  0.00    -0.080 HD
ENDROOT
BRANCH  14  19
ATOM     19  C   UNL     1      33.186 -21.760 -17.223  0.00  0.00    -0.009 C 
ATOM     20  C   UNL     1      32.660 -21.047 -18.300  0.00  0.00    +0.033 C 
ATOM     21  C   UNL     1      34.555 -22.017 -17.158  0.00  0.00    -0.003 C 
ATOM     22  C   UNL     1      33.504 -20.592 -19.313  0.00  0.00    +0.133 C 
ATOM     23  C   UNL     1      35.399 -21.561 -18.171  0.00  0.00    +0.003 C 
ATOM     24  C   UNL     1      34.874 -20.849 -19.248  0.00  0.00    +0.037 C 
BRANCH  22  25
ATOM     25  O   UNL     1      32.992 -19.895 -20.364  0.00  0.00    -0.506 OA
ATOM     26  H   UNL     1      33.308 -19.034 -20.554  0.00  0.00    +0.292 HD
ENDBRANCH  22  25
ENDBRANCH  14  19
BRANCH  17  30
ATOM     27  F   UNL     1      28.074 -21.357 -14.650  0.00  0.00    -0.166 F 
ATOM     28  F   UNL     1      28.224 -21.905 -16.743  0.00  0.00    -0.166 F 
ATOM     29  F   UNL     1      27.891 -23.442 -15.241  0.00  0.00    -0.166 F 
ATOM     30  C   UNL     1      28.597 -22.300 -15.489  0.00  0.00    +0.415 C 
ENDBRANCH  17  30
TORSDOF 3
ENDMDL
MODEL 2
REMARK VINA RESULT:     -11.1     12.616     15.484
REMARK  Name = 25113181
REMARK  3 active torsions:
REMARK  status: ('A' for Active; 'I' for Inactive)
REMARK    1  A    between atoms: C_14  and  C_19
REMARK    2  A    between atoms: C_17  and  C_30
REMARK    3  A    between atoms: C_22  and  O_25
REMARK                            x       y       z     vdW  Elec       q    Type
REMARK                         _______ _______ _______ _____ _____    ______ ____
ROOT
ATOM      1  N   UNL     1      34.304 -12.887 -23.406  0.00  0.00    -0.290 N 
ATOM      2  N   UNL     1      34.584 -15.688 -22.917  0.00  0.00    +0.388 N 
ATOM      3  N   UNL     1      33.363 -10.839 -22.660  0.00  0.00    -0.392 NA
ATOM      4  N   UNL     1      34.315  -9.610 -24.963  0.00  0.00    -0.263 NA
ATOM      5  C   UNL     1      34.440 -13.385 -22.031  0.00  0.00    +0.070 C 
ATOM      6  C   UNL     1      33.803 -13.857 -24.384  0.00  0.00    +0.070 C 
ATOM      7  C   UNL     1      35.203 -14.711 -22.013  0.00  0.00    -0.056 C 
ATOM      8  C   UNL     1      34.586 -15.169 -24.290  0.00  0.00    -0.056 C 
ATOM      9  C   UNL     1      34.053 -11.523 -23.589  0.00  0.00    +0.184 C 
ATOM     10  C   UNL     1      35.287 -16.968 -22.851  0.00  0.00    -0.101 C 
ATOM     11  C   UNL     1      33.145  -9.530 -22.879  0.00  0.00    +0.131 C 
ATOM     12  C   UNL     1      34.523 -10.917 -24.724  0.00  0.00    +0.199 C 
ATOM     13  C   UNL     1      33.628  -8.907 -24.045  0.00  0.00    +0.084 C 
ATOM     14  C   UNL     1      32.437  -8.772 -21.950  0.00  0.00    +0.097 C 
ATOM     15  C   UNL     1      33.383  -7.551 -24.240  0.00  0.00    +0.078 C 
ATOM     16  C   UNL     1      32.198  -7.413 -22.155  0.00  0.00    -0.015 C 
ATOM     17  C   UNL     1      32.674  -6.800 -23.304  0.00  0.00    +0.052 C 
ATOM     18  H   UNL     1      33.618 -15.841 -22.625  0.00  0.00    -0.080 HD
ENDROOT
BRANCH  14  19
ATOM     19  C   UNL     1      31.925  -9.379 -20.734  0.00  0.00    -0.009 C 
ATOM     20  C   UNL     1      32.503  -9.072 -19.503  0.00  0.00    +0.033 C 
ATOM     21  C   UNL     1      30.853 -10.269 -20.799  0.00  0.00    -0.003 C 
ATOM     22  C   UNL     1      32.010  -9.655 -18.337  0.00  0.00    +0.133 C 
ATOM     23  C   UNL     1      30.359 -10.852 -19.631  0.00  0.00    +0.003 C 
ATOM     24  C   UNL     1      30.937 -10.545 -18.400  0.00  0.00    +0.037 C 
BRANCH  22  25
ATOM     25  O   UNL     1      32.573  -9.355 -17.134  0.00  0.00    -0.506 OA
ATOM     26  H   UNL     1      32.314  -8.580 -16.676  0.00  0.00    +0.292 HD
ENDBRANCH  22  25
ENDBRANCH  14  19
BRANCH  17  30
ATOM     27  F   UNL     1      31.260  -5.088 -24.195  0.00  0.00    -0.166 F 
ATOM     28  F   UNL     1      32.359  -4.614 -22.387  0.00  0.00    -0.166 F 
ATOM     29  F   UNL     1      33.409  -4.763 -24.286  0.00  0.00    -0.166 F 
ATOM     30  C   UNL     1      32.428  -5.349 -23.537  0.00  0.00    +0.415 C 
ENDBRANCH  17  30
TORSDOF 3
ENDMDL
MODEL 3
REMARK VINA RESULT:     -11.0     11.556     14.183
REMARK  Name = 25113181
REMARK  3 active torsions:
REMARK  status: ('A' for Active; 'I' for Inactive)
REMARK    1  A    between atoms: C_14  and  C_19
REMARK    2  A    between atoms: C_17  and  C_30
REMARK    3  A    between atoms: C_22  and  O_25
REMARK                            x       y       z     vdW  Elec       q    Type
REMARK                         _______ _______ _______ _____ _____    ______ ____
ROOT
ATOM      1  N   UNL     1      34.281 -14.353 -22.222  0.00  0.00    -0.290 N 
ATOM      2  N   UNL     1      35.573 -16.844 -22.758  0.00  0.00    +0.388 N 
ATOM      3  N   UNL     1      33.959 -12.107 -22.918  0.00  0.00    -0.392 NA
ATOM      4  N   UNL     1      32.478 -11.646 -20.613  0.00  0.00    -0.263 NA
ATOM      5  C   UNL     1      34.446 -14.814 -23.606  0.00  0.00    +0.070 C 
ATOM      6  C   UNL     1      35.222 -14.917 -21.250  0.00  0.00    +0.070 C 
ATOM      7  C   UNL     1      34.527 -16.341 -23.658  0.00  0.00    -0.056 C 
ATOM      8  C   UNL     1      35.280 -16.441 -21.378  0.00  0.00    -0.056 C 
ATOM      9  C   UNL     1      33.748 -13.077 -22.012  0.00  0.00    +0.184 C 
ATOM     10  C   UNL     1      35.680 -18.298 -22.857  0.00  0.00    -0.101 C 
ATOM     11  C   UNL     1      33.428 -10.895 -22.675  0.00  0.00    +0.131 C 
ATOM     12  C   UNL     1      33.017 -12.850 -20.876  0.00  0.00    +0.199 C 
ATOM     13  C   UNL     1      32.678 -10.661 -21.508  0.00  0.00    +0.084 C 
ATOM     14  C   UNL     1      33.616  -9.852 -23.580  0.00  0.00    +0.097 C 
ATOM     15  C   UNL     1      32.143  -9.395 -21.288  0.00  0.00    +0.078 C 
ATOM     16  C   UNL     1      33.076  -8.588 -23.350  0.00  0.00    -0.015 C 
ATOM     17  C   UNL     1      32.336  -8.359 -22.200  0.00  0.00    +0.052 C 
ATOM     18  H   UNL     1      36.468 -16.440 -23.036  0.00  0.00    -0.080 HD
ENDROOT
BRANCH  14  19
ATOM     19  C   UNL     1      34.384 -10.056 -24.796  0.00  0.00    -0.009 C 
ATOM     20  C   UNL     1      34.091 -11.131 -25.634  0.00  0.00    +0.033 C 
ATOM     21  C   UNL     1      35.412  -9.174 -25.126  0.00  0.00    -0.003 C 
ATOM     22  C   UNL     1      34.829 -11.325 -26.802  0.00  0.00    +0.133 C 
ATOM     23  C   UNL     1      36.150  -9.368 -26.294  0.00  0.00    +0.003 C 
ATOM     24  C   UNL     1      35.857 -10.443 -27.132  0.00  0.00    +0.037 C 
BRANCH  22  25
ATOM     25  O   UNL     1      34.543 -12.374 -27.621  0.00  0.00    -0.506 OA
ATOM     26  H   UNL     1      35.220 -12.969 -27.875  0.00  0.00    +0.292 HD
ENDBRANCH  22  25
ENDBRANCH  14  19
BRANCH  17  30
ATOM     27  F   UNL     1      32.520  -5.981 -22.397  0.00  0.00    -0.166 F 
ATOM     28  F   UNL     1      30.527  -6.826 -22.519  0.00  0.00    -0.166 F 
ATOM     29  F   UNL     1      31.565  -6.768 -20.609  0.00  0.00    -0.166 F 
ATOM     30  C   UNL     1      31.751  -7.013 -21.940  0.00  0.00    +0.415 C 
ENDBRANCH  17  30
TORSDOF 3
ENDMDL
MODEL 4
REMARK VINA RESULT:     -10.1      4.146      6.962
REMARK  Name = 25113181
REMARK  3 active torsions:
REMARK  status: ('A' for Active; 'I' for Inactive)
REMARK    1  A    between atoms: C_14  and  C_19
REMARK    2  A    between atoms: C_17  and  C_30
REMARK    3  A    between atoms: C_22  and  O_25
REMARK                            x       y       z     vdW  Elec       q    Type
REMARK                         _______ _______ _______ _____ _____    ______ ____
ROOT
ATOM      1  N   UNL     1      36.350 -20.810 -18.074  0.00  0.00    -0.290 N 
ATOM      2  N   UNL     1      35.481 -19.329 -20.357  0.00  0.00    +0.388 N 
ATOM      3  N   UNL     1      35.702 -21.913 -16.074  0.00  0.00    -0.392 NA
ATOM      4  N   UNL     1      38.385 -22.330 -15.482  0.00  0.00    -0.263 NA
ATOM      5  C   UNL     1      35.083 -21.149 -18.733  0.00  0.00    +0.070 C 
ATOM      6  C   UNL     1      36.829 -19.441 -18.287  0.00  0.00    +0.070 C 
ATOM      7  C   UNL     1      35.119 -20.744 -20.208  0.00  0.00    -0.056 C 
ATOM      8  C   UNL     1      36.808 -19.089 -19.777  0.00  0.00    -0.056 C 
ATOM      9  C   UNL     1      36.679 -21.484 -16.893  0.00  0.00    +0.184 C 
ATOM     10  C   UNL     1      35.459 -18.938 -21.766  0.00  0.00    -0.101 C 
ATOM     11  C   UNL     1      36.065 -22.555 -14.949  0.00  0.00    +0.131 C 
ATOM     12  C   UNL     1      38.001 -21.690 -16.601  0.00  0.00    +0.199 C 
ATOM     13  C   UNL     1      37.423 -22.767 -14.650  0.00  0.00    +0.084 C 
ATOM     14  C   UNL     1      35.095 -23.021 -14.064  0.00  0.00    +0.097 C 
ATOM     15  C   UNL     1      37.762 -23.436 -13.476  0.00  0.00    +0.078 C 
ATOM     16  C   UNL     1      35.446 -23.690 -12.892  0.00  0.00    -0.015 C 
ATOM     17  C   UNL     1      36.785 -23.899 -12.598  0.00  0.00    +0.052 C 
ATOM     18  H   UNL     1      34.796 -18.760 -19.859  0.00  0.00    -0.080 HD
ENDROOT
BRANCH  14  19
ATOM     19  C   UNL     1      33.683 -22.822 -14.340  0.00  0.00    -0.009 C 
ATOM     20  C   UNL     1      33.257 -22.559 -15.642  0.00  0.00    +0.033 C 
ATOM     21  C   UNL     1      32.754 -22.897 -13.303  0.00  0.00    -0.003 C 
ATOM     22  C   UNL     1      31.901 -22.369 -15.906  0.00  0.00    +0.133 C 
ATOM     23  C   UNL     1      31.397 -22.708 -13.568  0.00  0.00    +0.003 C 
ATOM     24  C   UNL     1      30.970 -22.444 -14.869  0.00  0.00    +0.037 C 
BRANCH  22  25
ATOM     25  O   UNL     1      31.484 -22.113 -17.176  0.00  0.00    -0.506 OA
ATOM     26  H   UNL     1      31.986 -21.549 -17.730  0.00  0.00    +0.292 HD
ENDBRANCH  22  25
ENDBRANCH  14  19
BRANCH  17  30
ATOM     27  F   UNL     1      37.451 -25.938 -11.537  0.00  0.00    -0.166 F 
ATOM     28  F   UNL     1      38.293 -24.100 -10.753  0.00  0.00    -0.166 F 
ATOM     29  F   UNL     1      36.201 -24.573 -10.393  0.00  0.00    -0.166 F 
ATOM     30  C   UNL     1      37.176 -24.613 -11.349  0.00  0.00    +0.415 C 
ENDBRANCH  17  30
TORSDOF 3
ENDMDL
MODEL 5
REMARK VINA RESULT:      -9.8     13.175     15.764
REMARK  Name = 25113181
REMARK  3 active torsions:
REMARK  status: ('A' for Active; 'I' for Inactive)
REMARK    1  A    between atoms: C_14  and  C_19
REMARK    2  A    between atoms: C_17  and  C_30
REMARK    3  A    between atoms: C_22  and  O_25
REMARK                            x       y       z     vdW  Elec       q    Type
REMARK                         _______ _______ _______ _____ _____    ______ ____
ROOT
ATOM      1  N   UNL     1      33.633 -12.664 -22.774  0.00  0.00    -0.290 N 
ATOM      2  N   UNL     1      34.706 -15.053 -23.915  0.00  0.00    +0.388 N 
ATOM      3  N   UNL     1      33.649 -10.291 -22.790  0.00  0.00    -0.392 NA
ATOM      4  N   UNL     1      31.944 -10.305 -20.596  0.00  0.00    -0.263 NA
ATOM      5  C   UNL     1      33.923 -12.728 -24.212  0.00  0.00    +0.070 C 
ATOM      6  C   UNL     1      34.377 -13.610 -21.935  0.00  0.00    +0.070 C 
ATOM      7  C   UNL     1      33.845 -14.172 -24.713  0.00  0.00    -0.056 C 
ATOM      8  C   UNL     1      34.285 -15.026 -22.510  0.00  0.00    -0.056 C 
ATOM      9  C   UNL     1      33.220 -11.439 -22.240  0.00  0.00    +0.184 C 
ATOM     10  C   UNL     1      34.666 -16.419 -24.436  0.00  0.00    -0.101 C 
ATOM     11  C   UNL     1      33.226  -9.137 -22.243  0.00  0.00    +0.131 C 
ATOM     12  C   UNL     1      32.379 -11.447 -21.158  0.00  0.00    +0.199 C 
ATOM     13  C   UNL     1      32.362  -9.144 -21.132  0.00  0.00    +0.084 C 
ATOM     14  C   UNL     1      33.639  -7.917 -22.772  0.00  0.00    +0.097 C 
ATOM     15  C   UNL     1      31.944  -7.931 -20.590  0.00  0.00    +0.078 C 
ATOM     16  C   UNL     1      33.214  -6.708 -22.222  0.00  0.00    -0.015 C 
ATOM     17  C   UNL     1      32.363  -6.715 -21.128  0.00  0.00    +0.052 C 
ATOM     18  H   UNL     1      35.668 -14.718 -23.978  0.00  0.00    -0.080 HD
ENDROOT
BRANCH  14  19
ATOM     19  C   UNL     1      34.529  -7.870 -23.919  0.00  0.00    -0.009 C 
ATOM     20  C   UNL     1      34.717  -6.672 -24.607  0.00  0.00    +0.033 C 
ATOM     21  C   UNL     1      35.197  -9.023 -24.329  0.00  0.00    -0.003 C 
ATOM     22  C   UNL     1      35.573  -6.628 -25.708  0.00  0.00    +0.133 C 
ATOM     23  C   UNL     1      36.053  -8.979 -25.430  0.00  0.00    +0.003 C 
ATOM     24  C   UNL     1      36.242  -7.781 -26.119  0.00  0.00    +0.037 C 
BRANCH  22  25
ATOM     25  O   UNL     1      35.759  -5.459 -26.380  0.00  0.00    -0.506 OA
ATOM     26  H   UNL     1      35.137  -4.763 -26.291  0.00  0.00    +0.292 HD
ENDBRANCH  22  25
ENDBRANCH  14  19
BRANCH  17  30
ATOM     27  F   UNL     1      31.828  -5.455 -19.165  0.00  0.00    -0.166 F 
ATOM     28  F   UNL     1      32.702  -4.368 -20.825  0.00  0.00    -0.166 F 
ATOM     29  F   UNL     1      30.650  -5.075 -20.954  0.00  0.00    -0.166 F 
ATOM     30  C   UNL     1      31.898  -5.432 -20.529  0.00  0.00    +0.415 C 
ENDBRANCH  17  30
TORSDOF 3
ENDMDL
MODEL 6
REMARK VINA RESULT:      -9.7      3.115      5.091
REMARK  Name = 25113181
REMARK  3 active torsions:
REMARK  status: ('A' for Active; 'I' for Inactive)
REMARK    1  A    between atoms: C_14  and  C_19
REMARK    2  A    between atoms: C_17  and  C_30
REMARK    3  A    between atoms: C_22  and  O_25
REMARK                            x       y       z     vdW  Elec       q    Type
REMARK                         _______ _______ _______ _____ _____    ______ ____
ROOT
ATOM      1  N   UNL     1      36.750 -23.267 -14.352  0.00  0.00    -0.290 N 
ATOM      2  N   UNL     1      37.185 -24.899 -12.048  0.00  0.00    +0.388 N 
ATOM      3  N   UNL     1      35.160 -22.421 -15.898  0.00  0.00    -0.392 NA
ATOM      4  N   UNL     1      37.237 -21.274 -17.345  0.00  0.00    -0.263 NA
ATOM      5  C   UNL     1      35.761 -23.288 -13.267  0.00  0.00    +0.070 C 
ATOM      6  C   UNL     1      37.620 -24.443 -14.439  0.00  0.00    +0.070 C 
ATOM      7  C   UNL     1      36.429 -23.645 -11.937  0.00  0.00    -0.056 C 
ATOM      8  C   UNL     1      38.228 -24.764 -13.071  0.00  0.00    -0.056 C 
ATOM      9  C   UNL     1      36.441 -22.545 -15.510  0.00  0.00    +0.184 C 
ATOM     10  C   UNL     1      37.773 -25.259 -10.759  0.00  0.00    -0.101 C 
ATOM     11  C   UNL     1      34.910 -21.718 -17.018  0.00  0.00    +0.131 C 
ATOM     12  C   UNL     1      37.465 -21.980 -16.222  0.00  0.00    +0.199 C 
ATOM     13  C   UNL     1      35.962 -21.138 -17.750  0.00  0.00    +0.084 C 
ATOM     14  C   UNL     1      33.602 -21.557 -17.468  0.00  0.00    +0.097 C 
ATOM     15  C   UNL     1      35.667 -20.418 -18.905  0.00  0.00    +0.078 C 
ATOM     16  C   UNL     1      33.317 -20.834 -18.625  0.00  0.00    -0.015 C 
ATOM     17  C   UNL     1      34.354 -20.261 -19.346  0.00  0.00    +0.052 C 
ATOM     18  H   UNL     1      36.546 -25.645 -12.325  0.00  0.00    -0.080 HD
ENDROOT
BRANCH  14  19
ATOM     19  C   UNL     1      32.490 -22.141 -16.737  0.00  0.00    -0.009 C 
ATOM     20  C   UNL     1      31.189 -21.701 -16.978  0.00  0.00    +0.033 C 
ATOM     21  C   UNL     1      32.725 -23.144 -15.797  0.00  0.00    -0.003 C 
ATOM     22  C   UNL     1      30.123 -22.263 -16.277  0.00  0.00    +0.133 C 
ATOM     23  C   UNL     1      31.658 -23.706 -15.096  0.00  0.00    +0.003 C 
ATOM     24  C   UNL     1      30.357 -23.266 -15.336  0.00  0.00    +0.037 C 
BRANCH  22  25
ATOM     25  O   UNL     1      28.852 -21.835 -16.512  0.00  0.00    -0.506 OA
ATOM     26  H   UNL     1      28.135 -22.433 -16.440  0.00  0.00    +0.292 HD
ENDBRANCH  22  25
ENDBRANCH  14  19
BRANCH  17  30
ATOM     27  F   UNL     1      34.872 -19.814 -21.639  0.00  0.00    -0.166 F 
ATOM     28  F   UNL     1      32.792 -19.645 -21.049  0.00  0.00    -0.166 F 
ATOM     29  F   UNL     1      34.226 -18.139 -20.411  0.00  0.00    -0.166 F 
ATOM     30  C   UNL     1      34.067 -19.484 -20.585  0.00  0.00    +0.415 C 
ENDBRANCH  17  30
TORSDOF 3
ENDMDL
MODEL 7
REMARK VINA RESULT:      -9.3     15.402     18.456
REMARK  Name = 25113181
REMARK  3 active torsions:
REMARK  status: ('A' for Active; 'I' for Inactive)
REMARK    1  A    between atoms: C_14  and  C_19
REMARK    2  A    between atoms: C_17  and  C_30
REMARK    3  A    between atoms: C_22  and  O_25
REMARK                            x       y       z     vdW  Elec       q    Type
REMARK                         _______ _______ _______ _____ _____    ______ ____
ROOT
ATOM      1  N   UNL     1      33.050  -4.445 -25.112  0.00  0.00    -0.290 N 
ATOM      2  N   UNL     1      33.590  -2.948 -27.484  0.00  0.00    +0.388 N 
ATOM      3  N   UNL     1      33.178  -6.561 -24.043  0.00  0.00    -0.392 NA
ATOM      4  N   UNL     1      31.777  -5.510 -21.885  0.00  0.00    -0.263 NA
ATOM      5  C   UNL     1      34.273  -4.703 -25.883  0.00  0.00    +0.070 C 
ATOM      6  C   UNL     1      31.950  -3.827 -25.857  0.00  0.00    +0.070 C 
ATOM      7  C   UNL     1      34.694  -3.452 -26.657  0.00  0.00    -0.056 C 
ATOM      8  C   UNL     1      32.446  -2.604 -26.633  0.00  0.00    -0.056 C 
ATOM      9  C   UNL     1      32.770  -5.280 -24.025  0.00  0.00    +0.184 C 
ATOM     10  C   UNL     1      34.020  -1.786 -28.261  0.00  0.00    -0.101 C 
ATOM     11  C   UNL     1      32.886  -7.327 -22.976  0.00  0.00    +0.131 C 
ATOM     12  C   UNL     1      32.080  -4.762 -22.961  0.00  0.00    +0.199 C 
ATOM     13  C   UNL     1      32.177  -6.795 -21.884  0.00  0.00    +0.084 C 
ATOM     14  C   UNL     1      33.284  -8.661 -22.941  0.00  0.00    +0.097 C 
ATOM     15  C   UNL     1      31.891  -7.616 -20.796  0.00  0.00    +0.078 C 
ATOM     16  C   UNL     1      32.993  -9.475 -21.846  0.00  0.00    -0.015 C 
ATOM     17  C   UNL     1      32.294  -8.950 -20.770  0.00  0.00    +0.052 C 
ATOM     18  H   UNL     1      33.308  -3.679 -28.137  0.00  0.00    -0.080 HD
ENDROOT
BRANCH  14  19
ATOM     19  C   UNL     1      34.018  -9.245 -24.049  0.00  0.00    -0.009 C 
ATOM     20  C   UNL     1      33.472 -10.309 -24.765  0.00  0.00    +0.033 C 
ATOM     21  C   UNL     1      35.270  -8.739 -24.398  0.00  0.00    -0.003 C 
ATOM     22  C   UNL     1      34.178 -10.868 -25.830  0.00  0.00    +0.133 C 
ATOM     23  C   UNL     1      35.976  -9.298 -25.464  0.00  0.00    +0.003 C 
ATOM     24  C   UNL     1      35.430 -10.362 -26.180  0.00  0.00    +0.037 C 
BRANCH  22  25
ATOM     25  O   UNL     1      33.644 -11.906 -26.530  0.00  0.00    -0.506 OA
ATOM     26  H   UNL     1      32.795 -11.824 -26.917  0.00  0.00    +0.292 HD
ENDBRANCH  22  25
ENDBRANCH  14  19
BRANCH  17  30
ATOM     27  F   UNL     1      30.639 -10.033 -19.423  0.00  0.00    -0.166 F 
ATOM     28  F   UNL     1      32.542 -11.048 -19.649  0.00  0.00    -0.166 F 
ATOM     29  F   UNL     1      32.406  -9.263 -18.415  0.00  0.00    -0.166 F 
ATOM     30  C   UNL     1      31.976  -9.806 -19.592  0.00  0.00    +0.415 C 
ENDBRANCH  17  30
TORSDOF 3
ENDMDL
MODEL 8
REMARK VINA RESULT:      -9.1     14.297     17.420
REMARK  Name = 25113181
REMARK  3 active torsions:
REMARK  status: ('A' for Active; 'I' for Inactive)
REMARK    1  A    between atoms: C_14  and  C_19
REMARK    2  A    between atoms: C_17  and  C_30
REMARK    3  A    between atoms: C_22  and  O_25
REMARK                            x       y       z     vdW  Elec       q    Type
REMARK                         _______ _______ _______ _____ _____    ______ ____
ROOT
ATOM      1  N   UNL     1      32.638  -5.469 -24.239  0.00  0.00    -0.290 N 
ATOM      2  N   UNL     1      32.817  -3.320 -26.113  0.00  0.00    +0.388 N 
ATOM      3  N   UNL     1      33.107  -7.757 -23.809  0.00  0.00    -0.392 NA
ATOM      4  N   UNL     1      31.738  -7.544 -21.401  0.00  0.00    -0.263 NA
ATOM      5  C   UNL     1      33.827  -5.331 -25.090  0.00  0.00    +0.070 C 
ATOM      6  C   UNL     1      31.419  -4.833 -24.746  0.00  0.00    +0.070 C 
ATOM      7  C   UNL     1      34.031  -3.870 -25.495  0.00  0.00    -0.056 C 
ATOM      8  C   UNL     1      31.700  -3.387 -25.163  0.00  0.00    -0.056 C 
ATOM      9  C   UNL     1      32.542  -6.600 -23.421  0.00  0.00    +0.184 C 
ATOM     10  C   UNL     1      33.041  -1.942 -26.546  0.00  0.00    -0.101 C 
ATOM     11  C   UNL     1      32.990  -8.818 -22.991  0.00  0.00    +0.131 C 
ATOM     12  C   UNL     1      31.868  -6.495 -22.233  0.00  0.00    +0.199 C 
ATOM     13  C   UNL     1      32.297  -8.710 -21.771  0.00  0.00    +0.084 C 
ATOM     14  C   UNL     1      33.555 -10.041 -23.343  0.00  0.00    +0.097 C 
ATOM     15  C   UNL     1      32.193  -9.829 -20.949  0.00  0.00    +0.078 C 
ATOM     16  C   UNL     1      33.446 -11.155 -22.512  0.00  0.00    -0.015 C 
ATOM     17  C   UNL     1      32.764 -11.048 -21.310  0.00  0.00    +0.052 C 
ATOM     18  H   UNL     1      32.585  -3.878 -26.935  0.00  0.00    -0.080 HD
ENDROOT
BRANCH  14  19
ATOM     19  C   UNL     1      34.279 -10.190 -24.593  0.00  0.00    -0.009 C 
ATOM     20  C   UNL     1      33.960 -11.231 -25.465  0.00  0.00    +0.033 C 
ATOM     21  C   UNL     1      35.292  -9.290 -24.923  0.00  0.00    -0.003 C 
ATOM     22  C   UNL     1      34.655 -11.372 -26.665  0.00  0.00    +0.133 C 
ATOM     23  C   UNL     1      35.988  -9.432 -26.124  0.00  0.00    +0.003 C 
ATOM     24  C   UNL     1      35.669 -10.472 -26.995  0.00  0.00    +0.037 C 
BRANCH  22  25
ATOM     25  O   UNL     1      34.343 -12.387 -27.517  0.00  0.00    -0.506 OA
ATOM     26  H   UNL     1      33.701 -13.024 -27.273  0.00  0.00    +0.292 HD
ENDBRANCH  22  25
ENDBRANCH  14  19
BRANCH  17  30
ATOM     27  F   UNL     1      33.837 -12.799 -20.081  0.00  0.00    -0.166 F 
ATOM     28  F   UNL     1      32.042 -11.946 -19.214  0.00  0.00    -0.166 F 
ATOM     29  F   UNL     1      31.895 -13.234 -20.960  0.00  0.00    -0.166 F 
ATOM     30  C   UNL     1      32.639 -12.229 -20.410  0.00  0.00    +0.415 C 
ENDBRANCH  17  30
TORSDOF 3
ENDMDL
