MODEL 1
REMARK VINA RESULT:     -11.8      0.000      0.000
REMARK  Name = 5567
REMARK  8 active torsions:
REMARK  status: ('A' for Active; 'I' for Inactive)
REMARK    1  A    between atoms: N_1  and  C_20
REMARK    2  A    between atoms: C_2  and  C_8
REMARK    3  A    between atoms: C_2  and  O_18
REMARK    4  A    between atoms: C_11  and  C_17
REMARK    5  A    between atoms: C_20  and  C_21
REMARK    6  A    between atoms: C_21  and  C_22
REMARK    7  A    between atoms: C_22  and  C_24
REMARK    8  A    between atoms: C_24  and  C_26
REMARK                            x       y       z     vdW  Elec       q    Type
REMARK                         _______ _______ _______ _____ _____    ______ ____
ROOT
ATOM      1  N   UNL     1      34.955 -19.502 -19.932  0.00  0.00    +0.387 N 
ATOM      2  C   UNL     1      34.064 -21.740 -18.192  0.00  0.00    +0.103 C 
ATOM      3  C   UNL     1      33.114 -20.662 -18.761  0.00  0.00    +0.008 C 
ATOM      4  C   UNL     1      35.502 -21.173 -18.180  0.00  0.00    +0.008 C 
ATOM      5  C   UNL     1      33.608 -20.065 -20.084  0.00  0.00    -0.075 C 
ATOM      6  C   UNL     1      35.912 -20.531 -19.512  0.00  0.00    -0.075 C 
ATOM      7  H   UNL     1      34.917 -18.790 -19.202  0.00  0.00    -0.080 HD
ENDROOT
BRANCH   2   8
ATOM      8  C   UNL     1      33.684 -22.268 -16.808  0.00  0.00    +0.002 C 
ATOM      9  C   UNL     1      32.341 -22.403 -16.459  0.00  0.00    +0.002 C 
ATOM     10  C   UNL     1      34.682 -22.616 -15.899  0.00  0.00    -0.002 C 
ATOM     11  C   UNL     1      31.994 -22.887 -15.197  0.00  0.00    +0.071 C 
ATOM     12  C   UNL     1      34.335 -23.100 -14.637  0.00  0.00    -0.000 C 
ATOM     13  C   UNL     1      32.991 -23.235 -14.286  0.00  0.00    +0.004 C 
BRANCH  11  17
ATOM     14  F   UNL     1      30.090 -22.004 -14.048  0.00  0.00    -0.166 F 
ATOM     15  F   UNL     1      29.715 -23.079 -15.894  0.00  0.00    -0.166 F 
ATOM     16  F   UNL     1      30.312 -24.166 -14.108  0.00  0.00    -0.166 F 
ATOM     17  C   UNL     1      30.558 -23.030 -14.821  0.00  0.00    +0.419 C 
ENDBRANCH  11  17
ENDBRANCH   2   8
BRANCH   2  18
ATOM     18  O   UNL     1      34.008 -22.879 -19.064  0.00  0.00    -0.383 OA
ATOM     19  H   UNL     1      33.086 -23.169 -19.157  0.00  0.00    +0.211 HD
ENDBRANCH   2  18
BRANCH   1  20
ATOM     20  C   UNL     1      35.391 -18.872 -21.177  0.00  0.00    -0.077 C 
BRANCH  20  21
ATOM     21  C   UNL     1      36.128 -17.565 -20.878  0.00  0.00    -0.015 C 
BRANCH  21  22
ATOM     22  C   UNL     1      35.402 -16.345 -21.452  0.00  0.00    +0.067 C 
BRANCH  22  24
ATOM     23  O   UNL     1      35.367 -15.424 -19.221  0.00  0.00    -0.291 OA
ATOM     24  C   UNL     1      35.038 -15.308 -20.398  0.00  0.00    +0.173 C 
BRANCH  24  26
ATOM     25  F   UNL     1      32.166 -10.789 -21.983  0.00  0.00    -0.204 F 
ATOM     26  C   UNL     1      34.272 -14.101 -20.820  0.00  0.00    +0.035 C 
ATOM     27  C   UNL     1      34.674 -13.424 -21.951  0.00  0.00    +0.005 C 
ATOM     28  C   UNL     1      33.189 -13.708 -20.066  0.00  0.00    +0.005 C 
ATOM     29  C   UNL     1      33.956 -12.295 -22.347  0.00  0.00    +0.030 C 
ATOM     30  C   UNL     1      32.472 -12.579 -20.462  0.00  0.00    +0.030 C 
ATOM     31  C   UNL     1      32.855 -11.873 -21.603  0.00  0.00    +0.140 C 
ENDBRANCH  24  26
ENDBRANCH  22  24
ENDBRANCH  21  22
ENDBRANCH  20  21
ENDBRANCH   1  20
TORSDOF 8
ENDMDL
MODEL 2
REMARK VINA RESULT:     -11.8      1.676      1.954
REMARK  Name = 5567
REMARK  8 active torsions:
REMARK  status: ('A' for Active; 'I' for Inactive)
REMARK    1  A    between atoms: N_1  and  C_20
REMARK    2  A    between atoms: C_2  and  C_8
REMARK    3  A    between atoms: C_2  and  O_18
REMARK    4  A    between atoms: C_11  and  C_17
REMARK    5  A    between atoms: C_20  and  C_21
REMARK    6  A    between atoms: C_21  and  C_22
REMARK    7  A    between atoms: C_22  and  C_24
REMARK    8  A    between atoms: C_24  and  C_26
REMARK                            x       y       z     vdW  Elec       q    Type
REMARK                         _______ _______ _______ _____ _____    ______ ____
ROOT
ATOM      1  N   UNL     1      35.493 -19.625 -19.552  0.00  0.00    +0.387 N 
ATOM      2  C   UNL     1      34.120 -21.800 -18.065  0.00  0.00    +0.103 C 
ATOM      3  C   UNL     1      33.382 -20.630 -18.754  0.00  0.00    +0.008 C 
ATOM      4  C   UNL     1      35.578 -21.368 -17.788  0.00  0.00    +0.008 C 
ATOM      5  C   UNL     1      34.149 -20.058 -19.952  0.00  0.00    -0.075 C 
ATOM      6  C   UNL     1      36.268 -20.744 -19.008  0.00  0.00    -0.075 C 
ATOM      7  H   UNL     1      35.391 -18.925 -18.817  0.00  0.00    -0.080 HD
ENDROOT
BRANCH   2   8
ATOM      8  C   UNL     1      33.460 -22.315 -16.785  0.00  0.00    +0.002 C 
ATOM      9  C   UNL     1      32.083 -22.187 -16.612  0.00  0.00    +0.002 C 
ATOM     10  C   UNL     1      34.238 -22.912 -15.795  0.00  0.00    -0.002 C 
ATOM     11  C   UNL     1      31.481 -22.658 -15.445  0.00  0.00    +0.071 C 
ATOM     12  C   UNL     1      33.635 -23.383 -14.627  0.00  0.00    -0.000 C 
ATOM     13  C   UNL     1      32.257 -23.256 -14.452  0.00  0.00    +0.004 C 
BRANCH  11  17
ATOM     14  F   UNL     1      29.662 -21.812 -14.141  0.00  0.00    -0.166 F 
ATOM     15  F   UNL     1      29.383 -21.883 -16.291  0.00  0.00    -0.166 F 
ATOM     16  F   UNL     1      29.379 -23.725 -15.136  0.00  0.00    -0.166 F 
ATOM     17  C   UNL     1      30.007 -22.521 -15.258  0.00  0.00    +0.419 C 
ENDBRANCH  11  17
ENDBRANCH   2   8
BRANCH   2  18
ATOM     18  O   UNL     1      34.117 -22.914 -18.971  0.00  0.00    -0.383 OA
ATOM     19  H   UNL     1      33.326 -23.455 -18.816  0.00  0.00    +0.211 HD
ENDBRANCH   2  18
BRANCH   1  20
ATOM     20  C   UNL     1      36.193 -19.017 -20.683  0.00  0.00    -0.077 C 
BRANCH  20  21
ATOM     21  C   UNL     1      35.188 -18.385 -21.649  0.00  0.00    -0.015 C 
BRANCH  21  22
ATOM     22  C   UNL     1      35.796 -17.224 -22.442  0.00  0.00    +0.067 C 
BRANCH  22  24
ATOM     23  O   UNL     1      34.402 -17.430 -24.401  0.00  0.00    -0.291 OA
ATOM     24  C   UNL     1      34.882 -16.698 -23.540  0.00  0.00    +0.173 C 
BRANCH  24  26
ATOM     25  F   UNL     1      33.612 -11.261 -23.582  0.00  0.00    -0.204 F 
ATOM     26  C   UNL     1      34.544 -15.246 -23.552  0.00  0.00    +0.035 C 
ATOM     27  C   UNL     1      33.859 -14.735 -24.632  0.00  0.00    +0.005 C 
ATOM     28  C   UNL     1      34.927 -14.470 -22.482  0.00  0.00    +0.005 C 
ATOM     29  C   UNL     1      33.542 -13.377 -24.642  0.00  0.00    +0.030 C 
ATOM     30  C   UNL     1      34.610 -13.111 -22.492  0.00  0.00    +0.030 C 
ATOM     31  C   UNL     1      33.917 -12.565 -23.572  0.00  0.00    +0.140 C 
ENDBRANCH  24  26
ENDBRANCH  22  24
ENDBRANCH  21  22
ENDBRANCH  20  21
ENDBRANCH   1  20
TORSDOF 8
ENDMDL
MODEL 3
REMARK VINA RESULT:     -11.7      4.976     10.561
REMARK  Name = 5567
REMARK  8 active torsions:
REMARK  status: ('A' for Active; 'I' for Inactive)
REMARK    1  A    between atoms: N_1  and  C_20
REMARK    2  A    between atoms: C_2  and  C_8
REMARK    3  A    between atoms: C_2  and  O_18
REMARK    4  A    between atoms: C_11  and  C_17
REMARK    5  A    between atoms: C_20  and  C_21
REMARK    6  A    between atoms: C_21  and  C_22
REMARK    7  A    between atoms: C_22  and  C_24
REMARK    8  A    between atoms: C_24  and  C_26
REMARK                            x       y       z     vdW  Elec       q    Type
REMARK                         _______ _______ _______ _____ _____    ______ ____
ROOT
ATOM      1  N   UNL     1      33.726 -22.585 -15.161  0.00  0.00    +0.387 N 
ATOM      2  C   UNL     1      33.987 -21.839 -18.025  0.00  0.00    +0.103 C 
ATOM      3  C   UNL     1      35.132 -21.715 -16.996  0.00  0.00    +0.008 C 
ATOM      4  C   UNL     1      32.640 -21.844 -17.266  0.00  0.00    +0.008 C 
ATOM      5  C   UNL     1      35.018 -22.720 -15.844  0.00  0.00    -0.075 C 
ATOM      6  C   UNL     1      32.613 -22.823 -16.086  0.00  0.00    -0.075 C 
ATOM      7  H   UNL     1      33.651 -21.628 -14.818  0.00  0.00    -0.080 HD
ENDROOT
BRANCH   2   8
ATOM      8  C   UNL     1      33.983 -20.770 -19.119  0.00  0.00    +0.002 C 
ATOM      9  C   UNL     1      35.159 -20.090 -19.431  0.00  0.00    +0.002 C 
ATOM     10  C   UNL     1      32.804 -20.481 -19.804  0.00  0.00    -0.002 C 
ATOM     11  C   UNL     1      35.156 -19.115 -20.430  0.00  0.00    +0.071 C 
ATOM     12  C   UNL     1      32.801 -19.507 -20.803  0.00  0.00    -0.000 C 
ATOM     13  C   UNL     1      33.977 -18.824 -21.115  0.00  0.00    +0.004 C 
BRANCH  11  17
ATOM     14  F   UNL     1      36.429 -17.093 -20.316  0.00  0.00    -0.166 F 
ATOM     15  F   UNL     1      37.534 -18.958 -20.236  0.00  0.00    -0.166 F 
ATOM     16  F   UNL     1      36.636 -18.310 -22.107  0.00  0.00    -0.166 F 
ATOM     17  C   UNL     1      36.413 -18.385 -20.763  0.00  0.00    +0.419 C 
ENDBRANCH  11  17
ENDBRANCH   2   8
BRANCH   2  18
ATOM     18  O   UNL     1      34.151 -23.089 -18.713  0.00  0.00    -0.383 OA
ATOM     19  H   UNL     1      33.381 -23.655 -18.544  0.00  0.00    +0.211 HD
ENDBRANCH   2  18
BRANCH   1  20
ATOM     20  C   UNL     1      33.651 -23.498 -14.021  0.00  0.00    -0.077 C 
BRANCH  20  21
ATOM     21  C   UNL     1      35.051 -23.766 -13.465  0.00  0.00    -0.015 C 
BRANCH  21  22
ATOM     22  C   UNL     1      35.140 -23.495 -11.961  0.00  0.00    +0.067 C 
BRANCH  22  24
ATOM     23  O   UNL     1      36.073 -24.745 -10.119  0.00  0.00    -0.291 OA
ATOM     24  C   UNL     1      36.214 -24.317 -11.261  0.00  0.00    +0.173 C 
BRANCH  24  26
ATOM     25  F   UNL     1      40.918 -25.486 -14.032  0.00  0.00    -0.204 F 
ATOM     26  C   UNL     1      37.469 -24.629 -12.002  0.00  0.00    +0.035 C 
ATOM     27  C   UNL     1      38.519 -23.740 -11.927  0.00  0.00    +0.005 C 
ATOM     28  C   UNL     1      37.534 -25.794 -12.732  0.00  0.00    +0.005 C 
ATOM     29  C   UNL     1      39.694 -24.032 -12.620  0.00  0.00    +0.030 C 
ATOM     30  C   UNL     1      38.709 -26.086 -13.424  0.00  0.00    +0.030 C 
ATOM     31  C   UNL     1      39.790 -25.205 -13.368  0.00  0.00    +0.140 C 
ENDBRANCH  24  26
ENDBRANCH  22  24
ENDBRANCH  21  22
ENDBRANCH  20  21
ENDBRANCH   1  20
TORSDOF 8
ENDMDL
MODEL 4
REMARK VINA RESULT:     -11.6      1.999      2.521
REMARK  Name = 5567
REMARK  8 active torsions:
REMARK  status: ('A' for Active; 'I' for Inactive)
REMARK    1  A    between atoms: N_1  and  C_20
REMARK    2  A    between atoms: C_2  and  C_8
REMARK    3  A    between atoms: C_2  and  O_18
REMARK    4  A    between atoms: C_11  and  C_17
REMARK    5  A    between atoms: C_20  and  C_21
REMARK    6  A    between atoms: C_21  and  C_22
REMARK    7  A    between atoms: C_22  and  C_24
REMARK    8  A    between atoms: C_24  and  C_26
REMARK                            x       y       z     vdW  Elec       q    Type
REMARK                         _______ _______ _______ _____ _____    ______ ____
ROOT
ATOM      1  N   UNL     1      34.993 -19.444 -20.041  0.00  0.00    +0.387 N 
ATOM      2  C   UNL     1      34.217 -21.699 -18.270  0.00  0.00    +0.103 C 
ATOM      3  C   UNL     1      33.232 -20.619 -18.769  0.00  0.00    +0.008 C 
ATOM      4  C   UNL     1      35.652 -21.128 -18.342  0.00  0.00    +0.008 C 
ATOM      5  C   UNL     1      33.641 -20.009 -20.115  0.00  0.00    -0.075 C 
ATOM      6  C   UNL     1      35.977 -20.473 -19.691  0.00  0.00    -0.075 C 
ATOM      7  H   UNL     1      34.999 -18.739 -19.304  0.00  0.00    -0.080 HD
ENDROOT
BRANCH   2   8
ATOM      8  C   UNL     1      33.925 -22.241 -16.870  0.00  0.00    +0.002 C 
ATOM      9  C   UNL     1      34.977 -22.549 -16.009  0.00  0.00    +0.002 C 
ATOM     10  C   UNL     1      32.606 -22.423 -16.456  0.00  0.00    -0.002 C 
ATOM     11  C   UNL     1      34.711 -23.042 -14.731  0.00  0.00    +0.071 C 
ATOM     12  C   UNL     1      32.340 -22.916 -15.178  0.00  0.00    -0.000 C 
ATOM     13  C   UNL     1      33.392 -23.226 -14.316  0.00  0.00    +0.004 C 
BRANCH  11  17
ATOM     14  F   UNL     1      35.515 -24.316 -12.873  0.00  0.00    -0.166 F 
ATOM     15  F   UNL     1      36.937 -23.869 -14.449  0.00  0.00    -0.166 F 
ATOM     16  F   UNL     1      36.275 -22.292 -13.106  0.00  0.00    -0.166 F 
ATOM     17  C   UNL     1      35.836 -23.375 -13.810  0.00  0.00    +0.419 C 
ENDBRANCH  11  17
ENDBRANCH   2   8
BRANCH   2  18
ATOM     18  O   UNL     1      34.110 -22.831 -19.147  0.00  0.00    -0.383 OA
ATOM     19  H   UNL     1      34.556 -22.633 -19.986  0.00  0.00    +0.211 HD
ENDBRANCH   2  18
BRANCH   1  20
ATOM     20  C   UNL     1      35.351 -18.801 -21.305  0.00  0.00    -0.077 C 
BRANCH  20  21
ATOM     21  C   UNL     1      36.143 -17.519 -21.041  0.00  0.00    -0.015 C 
BRANCH  21  22
ATOM     22  C   UNL     1      35.433 -16.276 -21.584  0.00  0.00    +0.067 C 
BRANCH  22  24
ATOM     23  O   UNL     1      35.345 -15.443 -19.320  0.00  0.00    -0.291 OA
ATOM     24  C   UNL     1      35.037 -15.284 -20.498  0.00  0.00    +0.173 C 
BRANCH  24  26
ATOM     25  F   UNL     1      32.152 -10.734 -21.964  0.00  0.00    -0.204 F 
ATOM     26  C   UNL     1      34.268 -14.069 -20.889  0.00  0.00    +0.035 C 
ATOM     27  C   UNL     1      34.652 -13.376 -22.016  0.00  0.00    +0.005 C 
ATOM     28  C   UNL     1      33.201 -13.684 -20.110  0.00  0.00    +0.005 C 
ATOM     29  C   UNL     1      33.931 -12.240 -22.382  0.00  0.00    +0.030 C 
ATOM     30  C   UNL     1      32.480 -12.547 -20.476  0.00  0.00    +0.030 C 
ATOM     31  C   UNL     1      32.844 -11.825 -21.612  0.00  0.00    +0.140 C 
ENDBRANCH  24  26
ENDBRANCH  22  24
ENDBRANCH  21  22
ENDBRANCH  20  21
ENDBRANCH   1  20
TORSDOF 8
ENDMDL
MODEL 5
REMARK VINA RESULT:     -11.3      3.084     11.643
REMARK  Name = 5567
REMARK  8 active torsions:
REMARK  status: ('A' for Active; 'I' for Inactive)
REMARK    1  A    between atoms: N_1  and  C_20
REMARK    2  A    between atoms: C_2  and  C_8
REMARK    3  A    between atoms: C_2  and  O_18
REMARK    4  A    between atoms: C_11  and  C_17
REMARK    5  A    between atoms: C_20  and  C_21
REMARK    6  A    between atoms: C_21  and  C_22
REMARK    7  A    between atoms: C_22  and  C_24
REMARK    8  A    between atoms: C_24  and  C_26
REMARK                            x       y       z     vdW  Elec       q    Type
REMARK                         _______ _______ _______ _____ _____    ______ ____
ROOT
ATOM      1  N   UNL     1      34.804 -14.927 -23.512  0.00  0.00    +0.387 N 
ATOM      2  C   UNL     1      33.448 -12.394 -22.755  0.00  0.00    +0.103 C 
ATOM      3  C   UNL     1      33.509 -12.939 -24.199  0.00  0.00    +0.008 C 
ATOM      4  C   UNL     1      34.611 -13.012 -21.946  0.00  0.00    +0.008 C 
ATOM      5  C   UNL     1      33.630 -14.466 -24.262  0.00  0.00    -0.075 C 
ATOM      6  C   UNL     1      34.718 -14.534 -22.102  0.00  0.00    -0.075 C 
ATOM      7  H   UNL     1      35.628 -14.480 -23.914  0.00  0.00    -0.080 HD
ENDROOT
BRANCH   2   8
ATOM      8  C   UNL     1      33.463 -10.869 -22.639  0.00  0.00    +0.002 C 
ATOM      9  C   UNL     1      34.460 -10.133 -23.276  0.00  0.00    +0.002 C 
ATOM     10  C   UNL     1      32.477 -10.219 -21.898  0.00  0.00    -0.002 C 
ATOM     11  C   UNL     1      34.473  -8.742 -23.172  0.00  0.00    +0.071 C 
ATOM     12  C   UNL     1      32.491  -8.828 -21.794  0.00  0.00    -0.000 C 
ATOM     13  C   UNL     1      33.489  -8.089 -22.430  0.00  0.00    +0.004 C 
BRANCH  11  17
ATOM     14  F   UNL     1      35.076  -7.162 -24.864  0.00  0.00    -0.166 F 
ATOM     15  F   UNL     1      36.209  -7.104 -23.015  0.00  0.00    -0.166 F 
ATOM     16  F   UNL     1      36.500  -8.743 -24.414  0.00  0.00    -0.166 F 
ATOM     17  C   UNL     1      35.541  -7.953 -23.851  0.00  0.00    +0.419 C 
ENDBRANCH  11  17
ENDBRANCH   2   8
BRANCH   2  18
ATOM     18  O   UNL     1      32.197 -12.808 -22.183  0.00  0.00    -0.383 OA
ATOM     19  H   UNL     1      32.030 -12.304 -21.371  0.00  0.00    +0.211 HD
ENDBRANCH   2  18
BRANCH   1  20
ATOM     20  C   UNL     1      34.954 -16.377 -23.633  0.00  0.00    -0.077 C 
BRANCH  20  21
ATOM     21  C   UNL     1      35.726 -16.931 -22.434  0.00  0.00    -0.015 C 
BRANCH  21  22
ATOM     22  C   UNL     1      35.270 -18.342 -22.053  0.00  0.00    +0.067 C 
BRANCH  22  24
ATOM     23  O   UNL     1      37.044 -18.541 -20.428  0.00  0.00    -0.291 OA
ATOM     24  C   UNL     1      35.907 -18.856 -20.769  0.00  0.00    +0.173 C 
BRANCH  24  26
ATOM     25  F   UNL     1      32.919 -22.223 -17.465  0.00  0.00    -0.204 F 
ATOM     26  C   UNL     1      35.109 -19.756 -19.888  0.00  0.00    +0.035 C 
ATOM     27  C   UNL     1      35.776 -20.598 -19.025  0.00  0.00    +0.005 C 
ATOM     28  C   UNL     1      33.736 -19.711 -19.967  0.00  0.00    +0.005 C 
ATOM     29  C   UNL     1      35.029 -21.440 -18.200  0.00  0.00    +0.030 C 
ATOM     30  C   UNL     1      32.989 -20.552 -19.142  0.00  0.00    +0.030 C 
ATOM     31  C   UNL     1      33.636 -21.416 -18.258  0.00  0.00    +0.140 C 
ENDBRANCH  24  26
ENDBRANCH  22  24
ENDBRANCH  21  22
ENDBRANCH  20  21
ENDBRANCH   1  20
TORSDOF 8
ENDMDL
MODEL 6
REMARK VINA RESULT:     -11.3      3.310     10.166
REMARK  Name = 5567
REMARK  8 active torsions:
REMARK  status: ('A' for Active; 'I' for Inactive)
REMARK    1  A    between atoms: N_1  and  C_20
REMARK    2  A    between atoms: C_2  and  C_8
REMARK    3  A    between atoms: C_2  and  O_18
REMARK    4  A    between atoms: C_11  and  C_17
REMARK    5  A    between atoms: C_20  and  C_21
REMARK    6  A    between atoms: C_21  and  C_22
REMARK    7  A    between atoms: C_22  and  C_24
REMARK    8  A    between atoms: C_24  and  C_26
REMARK                            x       y       z     vdW  Elec       q    Type
REMARK                         _______ _______ _______ _____ _____    ______ ____
ROOT
ATOM      1  N   UNL     1      34.333 -15.191 -23.316  0.00  0.00    +0.387 N 
ATOM      2  C   UNL     1      33.924 -12.304 -22.744  0.00  0.00    +0.103 C 
ATOM      3  C   UNL     1      34.658 -13.274 -21.792  0.00  0.00    +0.008 C 
ATOM      4  C   UNL     1      33.000 -13.127 -23.670  0.00  0.00    +0.008 C 
ATOM      5  C   UNL     1      35.319 -14.449 -22.523  0.00  0.00    -0.075 C 
ATOM      6  C   UNL     1      33.704 -14.326 -24.319  0.00  0.00    -0.075 C 
ATOM      7  H   UNL     1      33.604 -15.519 -22.682  0.00  0.00    -0.080 HD
ENDROOT
BRANCH   2   8
ATOM      8  C   UNL     1      33.136 -11.192 -22.050  0.00  0.00    +0.002 C 
ATOM      9  C   UNL     1      32.647 -11.386 -20.760  0.00  0.00    +0.002 C 
ATOM     10  C   UNL     1      32.911  -9.985 -22.710  0.00  0.00    -0.002 C 
ATOM     11  C   UNL     1      31.930 -10.371 -20.126  0.00  0.00    +0.071 C 
ATOM     12  C   UNL     1      32.193  -8.969 -22.076  0.00  0.00    -0.000 C 
ATOM     13  C   UNL     1      31.702  -9.163 -20.785  0.00  0.00    +0.004 C 
BRANCH  11  17
ATOM     14  F   UNL     1      31.963  -9.748 -17.817  0.00  0.00    -0.166 F 
ATOM     15  F   UNL     1      30.057 -10.377 -18.638  0.00  0.00    -0.166 F 
ATOM     16  F   UNL     1      31.624 -11.844 -18.285  0.00  0.00    -0.166 F 
ATOM     17  C   UNL     1      31.404 -10.579 -18.746  0.00  0.00    +0.419 C 
ENDBRANCH  11  17
ENDBRANCH   2   8
BRANCH   2  18
ATOM     18  O   UNL     1      34.917 -11.632 -23.536  0.00  0.00    -0.383 OA
ATOM     19  H   UNL     1      34.481 -11.015 -24.144  0.00  0.00    +0.211 HD
ENDBRANCH   2  18
BRANCH   1  20
ATOM     20  C   UNL     1      34.955 -16.350 -23.954  0.00  0.00    -0.077 C 
BRANCH  20  21
ATOM     21  C   UNL     1      34.641 -17.621 -23.162  0.00  0.00    -0.015 C 
BRANCH  21  22
ATOM     22  C   UNL     1      35.824 -18.076 -22.302  0.00  0.00    +0.067 C 
BRANCH  22  24
ATOM     23  O   UNL     1      35.654 -16.970 -20.164  0.00  0.00    -0.291 OA
ATOM     24  C   UNL     1      35.545 -18.010 -20.807  0.00  0.00    +0.173 C 
BRANCH  24  26
ATOM     25  F   UNL     1      33.885 -22.654 -18.188  0.00  0.00    -0.204 F 
ATOM     26  C   UNL     1      35.102 -19.250 -20.109  0.00  0.00    +0.035 C 
ATOM     27  C   UNL     1      36.054 -20.062 -19.533  0.00  0.00    +0.005 C 
ATOM     28  C   UNL     1      33.756 -19.539 -20.064  0.00  0.00    +0.005 C 
ATOM     29  C   UNL     1      35.640 -21.222 -18.879  0.00  0.00    +0.030 C 
ATOM     30  C   UNL     1      33.342 -20.699 -19.409  0.00  0.00    +0.030 C 
ATOM     31  C   UNL     1      34.283 -21.540 -18.816  0.00  0.00    +0.140 C 
ENDBRANCH  24  26
ENDBRANCH  22  24
ENDBRANCH  21  22
ENDBRANCH  20  21
ENDBRANCH   1  20
TORSDOF 8
ENDMDL
MODEL 7
REMARK VINA RESULT:     -11.2      4.464      5.899
REMARK  Name = 5567
REMARK  8 active torsions:
REMARK  status: ('A' for Active; 'I' for Inactive)
REMARK    1  A    between atoms: N_1  and  C_20
REMARK    2  A    between atoms: C_2  and  C_8
REMARK    3  A    between atoms: C_2  and  O_18
REMARK    4  A    between atoms: C_11  and  C_17
REMARK    5  A    between atoms: C_20  and  C_21
REMARK    6  A    between atoms: C_21  and  C_22
REMARK    7  A    between atoms: C_22  and  C_24
REMARK    8  A    between atoms: C_24  and  C_26
REMARK                            x       y       z     vdW  Elec       q    Type
REMARK                         _______ _______ _______ _____ _____    ______ ____
ROOT
ATOM      1  N   UNL     1      34.490 -22.339 -17.575  0.00  0.00    +0.387 N 
ATOM      2  C   UNL     1      35.725 -22.727 -14.901  0.00  0.00    +0.103 C 
ATOM      3  C   UNL     1      36.463 -22.106 -16.108  0.00  0.00    +0.008 C 
ATOM      4  C   UNL     1      34.551 -23.583 -15.429  0.00  0.00    +0.008 C 
ATOM      5  C   UNL     1      35.520 -21.410 -17.096  0.00  0.00    -0.075 C 
ATOM      6  C   UNL     1      33.684 -22.852 -16.463  0.00  0.00    -0.075 C 
ATOM      7  H   UNL     1      34.960 -23.130 -18.015  0.00  0.00    -0.080 HD
ENDROOT
BRANCH   2   8
ATOM      8  C   UNL     1      36.606 -23.547 -13.958  0.00  0.00    +0.002 C 
ATOM      9  C   UNL     1      37.931 -23.812 -14.298  0.00  0.00    +0.002 C 
ATOM     10  C   UNL     1      36.082 -24.026 -12.758  0.00  0.00    -0.002 C 
ATOM     11  C   UNL     1      38.736 -24.559 -13.436  0.00  0.00    +0.071 C 
ATOM     12  C   UNL     1      36.886 -24.773 -11.897  0.00  0.00    -0.000 C 
ATOM     13  C   UNL     1      38.212 -25.040 -12.236  0.00  0.00    +0.004 C 
BRANCH  11  17
ATOM     14  F   UNL     1      40.471 -24.493 -15.081  0.00  0.00    -0.166 F 
ATOM     15  F   UNL     1      41.061 -24.193 -13.016  0.00  0.00    -0.166 F 
ATOM     16  F   UNL     1      40.465 -26.170 -13.697  0.00  0.00    -0.166 F 
ATOM     17  C   UNL     1      40.153 -24.845 -13.800  0.00  0.00    +0.419 C 
ENDBRANCH  11  17
ENDBRANCH   2   8
BRANCH   2  18
ATOM     18  O   UNL     1      35.209 -21.651 -14.102  0.00  0.00    -0.383 OA
ATOM     19  H   UNL     1      35.436 -21.801 -13.171  0.00  0.00    +0.211 HD
ENDBRANCH   2  18
BRANCH   1  20
ATOM     20  C   UNL     1      33.637 -21.690 -18.570  0.00  0.00    -0.077 C 
BRANCH  20  21
ATOM     21  C   UNL     1      34.142 -20.274 -18.857  0.00  0.00    -0.015 C 
BRANCH  21  22
ATOM     22  C   UNL     1      34.629 -20.112 -20.300  0.00  0.00    +0.067 C 
BRANCH  22  24
ATOM     23  O   UNL     1      36.508 -18.700 -19.748  0.00  0.00    -0.291 OA
ATOM     24  C   UNL     1      35.557 -18.921 -20.494  0.00  0.00    +0.173 C 
BRANCH  24  26
ATOM     25  F   UNL     1      34.630 -15.491 -24.801  0.00  0.00    -0.204 F 
ATOM     26  C   UNL     1      35.311 -18.005 -21.644  0.00  0.00    +0.035 C 
ATOM     27  C   UNL     1      34.828 -18.536 -22.820  0.00  0.00    +0.005 C 
ATOM     28  C   UNL     1      35.573 -16.663 -21.489  0.00  0.00    +0.005 C 
ATOM     29  C   UNL     1      34.596 -17.679 -23.896  0.00  0.00    +0.030 C 
ATOM     30  C   UNL     1      35.342 -15.806 -22.565  0.00  0.00    +0.030 C 
ATOM     31  C   UNL     1      34.853 -16.314 -23.769  0.00  0.00    +0.140 C 
ENDBRANCH  24  26
ENDBRANCH  22  24
ENDBRANCH  21  22
ENDBRANCH  20  21
ENDBRANCH   1  20
TORSDOF 8
ENDMDL
MODEL 8
REMARK VINA RESULT:     -11.2      3.403      5.173
REMARK  Name = 5567
REMARK  8 active torsions:
REMARK  status: ('A' for Active; 'I' for Inactive)
REMARK    1  A    between atoms: N_1  and  C_20
REMARK    2  A    between atoms: C_2  and  C_8
REMARK    3  A    between atoms: C_2  and  O_18
REMARK    4  A    between atoms: C_11  and  C_17
REMARK    5  A    between atoms: C_20  and  C_21
REMARK    6  A    between atoms: C_21  and  C_22
REMARK    7  A    between atoms: C_22  and  C_24
REMARK    8  A    between atoms: C_24  and  C_26
REMARK                            x       y       z     vdW  Elec       q    Type
REMARK                         _______ _______ _______ _____ _____    ______ ____
ROOT
ATOM      1  N   UNL     1      34.370 -15.318 -22.834  0.00  0.00    +0.387 N 
ATOM      2  C   UNL     1      35.878 -17.489 -21.478  0.00  0.00    +0.103 C 
ATOM      3  C   UNL     1      35.064 -17.688 -22.776  0.00  0.00    +0.008 C 
ATOM      4  C   UNL     1      35.338 -16.241 -20.743  0.00  0.00    +0.008 C 
ATOM      5  C   UNL     1      34.955 -16.412 -23.618  0.00  0.00    -0.075 C 
ATOM      6  C   UNL     1      35.190 -15.016 -21.656  0.00  0.00    -0.075 C 
ATOM      7  H   UNL     1      33.452 -15.620 -22.510  0.00  0.00    -0.080 HD
ENDROOT
BRANCH   2   8
ATOM      8  C   UNL     1      35.901 -18.696 -20.539  0.00  0.00    +0.002 C 
ATOM      9  C   UNL     1      34.721 -19.384 -20.261  0.00  0.00    +0.002 C 
ATOM     10  C   UNL     1      37.103 -19.108 -19.966  0.00  0.00    -0.002 C 
ATOM     11  C   UNL     1      34.742 -20.486 -19.406  0.00  0.00    +0.071 C 
ATOM     12  C   UNL     1      37.124 -20.210 -19.111  0.00  0.00    -0.000 C 
ATOM     13  C   UNL     1      35.944 -20.899 -18.830  0.00  0.00    +0.004 C 
BRANCH  11  17
ATOM     14  F   UNL     1      32.922 -20.881 -17.905  0.00  0.00    -0.166 F 
ATOM     15  F   UNL     1      32.495 -21.016 -20.028  0.00  0.00    -0.166 F 
ATOM     16  F   UNL     1      33.659 -22.573 -19.055  0.00  0.00    -0.166 F 
ATOM     17  C   UNL     1      33.480 -21.222 -19.105  0.00  0.00    +0.419 C 
ENDBRANCH  11  17
ENDBRANCH   2   8
BRANCH   2  18
ATOM     18  O   UNL     1      37.248 -17.268 -21.850  0.00  0.00    -0.383 OA
ATOM     19  H   UNL     1      37.281 -16.729 -22.655  0.00  0.00    +0.211 HD
ENDBRANCH   2  18
BRANCH   1  20
ATOM     20  C   UNL     1      34.204 -14.124 -23.663  0.00  0.00    -0.077 C 
BRANCH  20  21
ATOM     21  C   UNL     1      34.056 -12.883 -22.780  0.00  0.00    -0.015 C 
BRANCH  21  22
ATOM     22  C   UNL     1      32.591 -12.564 -22.469  0.00  0.00    +0.067 C 
BRANCH  22  24
ATOM     23  O   UNL     1      32.157 -13.495 -20.284  0.00  0.00    -0.291 OA
ATOM     24  C   UNL     1      32.292 -12.490 -20.977  0.00  0.00    +0.173 C 
BRANCH  24  26
ATOM     25  F   UNL     1      31.877  -7.465 -18.580  0.00  0.00    -0.204 F 
ATOM     26  C   UNL     1      32.183 -11.149 -20.337  0.00  0.00    +0.035 C 
ATOM     27  C   UNL     1      32.264 -10.027 -21.133  0.00  0.00    +0.005 C 
ATOM     28  C   UNL     1      32.003 -11.080 -18.974  0.00  0.00    +0.005 C 
ATOM     29  C   UNL     1      32.160  -8.772 -20.534  0.00  0.00    +0.030 C 
ATOM     30  C   UNL     1      31.899  -9.824 -18.375  0.00  0.00    +0.030 C 
ATOM     31  C   UNL     1      31.977  -8.670 -19.155  0.00  0.00    +0.140 C 
ENDBRANCH  24  26
ENDBRANCH  22  24
ENDBRANCH  21  22
ENDBRANCH  20  21
ENDBRANCH   1  20
TORSDOF 8
ENDMDL
MODEL 9
REMARK VINA RESULT:     -11.1      3.208     11.011
REMARK  Name = 5567
REMARK  8 active torsions:
REMARK  status: ('A' for Active; 'I' for Inactive)
REMARK    1  A    between atoms: N_1  and  C_20
REMARK    2  A    between atoms: C_2  and  C_8
REMARK    3  A    between atoms: C_2  and  O_18
REMARK    4  A    between atoms: C_11  and  C_17
REMARK    5  A    between atoms: C_20  and  C_21
REMARK    6  A    between atoms: C_21  and  C_22
REMARK    7  A    between atoms: C_22  and  C_24
REMARK    8  A    between atoms: C_24  and  C_26
REMARK                            x       y       z     vdW  Elec       q    Type
REMARK                         _______ _______ _______ _____ _____    ______ ____
ROOT
ATOM      1  N   UNL     1      34.401 -15.287 -23.202  0.00  0.00    +0.387 N 
ATOM      2  C   UNL     1      33.828 -12.445 -22.550  0.00  0.00    +0.103 C 
ATOM      3  C   UNL     1      34.494 -13.436 -21.569  0.00  0.00    +0.008 C 
ATOM      4  C   UNL     1      33.037 -13.253 -23.604  0.00  0.00    +0.008 C 
ATOM      5  C   UNL     1      35.271 -14.552 -22.277  0.00  0.00    -0.075 C 
ATOM      6  C   UNL     1      33.849 -14.395 -24.228  0.00  0.00    -0.075 C 
ATOM      7  H   UNL     1      33.623 -15.669 -22.665  0.00  0.00    -0.080 HD
ENDROOT
BRANCH   2   8
ATOM      8  C   UNL     1      32.931 -11.394 -21.895  0.00  0.00    +0.002 C 
ATOM      9  C   UNL     1      32.967 -10.074 -22.341  0.00  0.00    +0.002 C 
ATOM     10  C   UNL     1      32.077 -11.759 -20.856  0.00  0.00    -0.002 C 
ATOM     11  C   UNL     1      32.147  -9.115 -21.745  0.00  0.00    +0.071 C 
ATOM     12  C   UNL     1      31.257 -10.800 -20.259  0.00  0.00    -0.000 C 
ATOM     13  C   UNL     1      31.293  -9.478 -20.704  0.00  0.00    +0.004 C 
BRANCH  11  17
ATOM     14  F   UNL     1      32.241  -7.582 -23.579  0.00  0.00    -0.166 F 
ATOM     15  F   UNL     1      31.097  -6.968 -21.842  0.00  0.00    -0.166 F 
ATOM     16  F   UNL     1      33.269  -7.019 -21.748  0.00  0.00    -0.166 F 
ATOM     17  C   UNL     1      32.186  -7.701 -22.219  0.00  0.00    +0.419 C 
ENDBRANCH  11  17
ENDBRANCH   2   8
BRANCH   2  18
ATOM     18  O   UNL     1      34.872 -11.705 -23.201  0.00  0.00    -0.383 OA
ATOM     19  H   UNL     1      35.318 -11.137 -22.553  0.00  0.00    +0.211 HD
ENDBRANCH   2  18
BRANCH   1  20
ATOM     20  C   UNL     1      35.130 -16.393 -23.822  0.00  0.00    -0.077 C 
BRANCH  20  21
ATOM     21  C   UNL     1      34.773 -17.712 -23.134  0.00  0.00    -0.015 C 
BRANCH  21  22
ATOM     22  C   UNL     1      35.901 -18.221 -22.232  0.00  0.00    +0.067 C 
BRANCH  22  24
ATOM     23  O   UNL     1      35.679 -17.076 -20.118  0.00  0.00    -0.291 OA
ATOM     24  C   UNL     1      35.577 -18.126 -20.747  0.00  0.00    +0.173 C 
BRANCH  24  26
ATOM     25  F   UNL     1      33.780 -22.704 -18.103  0.00  0.00    -0.204 F 
ATOM     26  C   UNL     1      35.097 -19.349 -20.042  0.00  0.00    +0.035 C 
ATOM     27  C   UNL     1      36.025 -20.181 -19.456  0.00  0.00    +0.005 C 
ATOM     28  C   UNL     1      33.745 -19.601 -20.002  0.00  0.00    +0.005 C 
ATOM     29  C   UNL     1      35.576 -21.325 -18.796  0.00  0.00    +0.030 C 
ATOM     30  C   UNL     1      33.296 -20.745 -19.341  0.00  0.00    +0.030 C 
ATOM     31  C   UNL     1      34.212 -21.607 -18.738  0.00  0.00    +0.140 C 
ENDBRANCH  24  26
ENDBRANCH  22  24
ENDBRANCH  21  22
ENDBRANCH  20  21
ENDBRANCH   1  20
TORSDOF 8
ENDMDL
