MODEL 1
REMARK VINA RESULT:     -11.2      0.000      0.000
REMARK  Name = 9820008
REMARK  6 active torsions:
REMARK  status: ('A' for Active; 'I' for Inactive)
REMARK    1  A    between atoms: C_2  and  N_17
REMARK    2  A    between atoms: C_3  and  C_8
REMARK    3  A    between atoms: C_11  and  O_14
REMARK    4  A    between atoms: C_18  and  C_23
REMARK    5  A    between atoms: C_24  and  C_26
REMARK    6  A    between atoms: C_26  and  O_27
REMARK                            x       y       z     vdW  Elec       q    Type
REMARK                         _______ _______ _______ _____ _____    ______ ____
ROOT
ATOM      1  F   UNL     1      33.589 -21.051 -18.562  0.00  0.00    -0.203 F 
ATOM      2  C   UNL     1      35.912 -20.578 -18.702  0.00  0.00    +0.078 C 
ATOM      3  C   UNL     1      35.421 -18.891 -20.842  0.00  0.00    +0.002 C 
ATOM      4  C   UNL     1      34.612 -20.412 -19.148  0.00  0.00    +0.153 C 
ATOM      5  C   UNL     1      36.972 -19.920 -19.302  0.00  0.00    +0.017 C 
ATOM      6  C   UNL     1      34.364 -19.562 -20.225  0.00  0.00    +0.031 C 
ATOM      7  C   UNL     1      36.725 -19.070 -20.380  0.00  0.00    +0.001 C 
ENDROOT
BRANCH   3   8
ATOM      8  C   UNL     1      35.164 -18.009 -21.960  0.00  0.00    +0.003 C 
ATOM      9  C   UNL     1      35.492 -16.657 -21.870  0.00  0.00    +0.037 C 
ATOM     10  C   UNL     1      34.590 -18.511 -23.127  0.00  0.00    +0.000 C 
ATOM     11  C   UNL     1      35.244 -15.806 -22.947  0.00  0.00    +0.139 C 
ATOM     12  C   UNL     1      34.343 -17.661 -24.205  0.00  0.00    +0.003 C 
ATOM     13  C   UNL     1      34.669 -16.309 -24.114  0.00  0.00    +0.037 C 
BRANCH  11  14
ATOM     14  O   UNL     1      35.562 -14.486 -22.860  0.00  0.00    -0.471 OA
ATOM     15  C   UNL     1      34.529 -13.593 -22.447  0.00  0.00    +0.252 C 
ENDBRANCH  11  14
ENDBRANCH   3   8
BRANCH   2  17
ATOM     16  O   UNL     1      37.571 -20.159 -16.220  0.00  0.00    -0.270 OA
ATOM     17  N   UNL     1      36.167 -21.441 -17.609  0.00  0.00    -0.279 N 
ATOM     18  C   UNL     1      36.947 -21.192 -16.483  0.00  0.00    +0.245 C 
ATOM     19  H   UNL     1      35.739 -22.327 -17.650  0.00  0.00    +0.155 HD
BRANCH  18  23
ATOM     20  C   UNL     1      37.803 -23.730 -13.863  0.00  0.00    +0.010 C 
ATOM     21  C   UNL     1      38.268 -22.842 -15.018  0.00  0.00    +0.031 C 
ATOM     22  C   UNL     1      36.352 -24.103 -14.173  0.00  0.00    +0.033 C 
ATOM     23  C   UNL     1      36.978 -22.320 -15.562  0.00  0.00    +0.034 C 
ATOM     24  C   UNL     1      35.930 -23.010 -15.100  0.00  0.00    +0.054 C 
BRANCH  24  26
ATOM     25  O   UNL     1      33.990 -23.091 -16.471  0.00  0.00    -0.245 OA
ATOM     26  C   UNL     1      34.526 -22.787 -15.414  0.00  0.00    +0.334 C 
BRANCH  26  27
ATOM     27  O   UNL     1      33.907 -22.198 -14.367  0.00  0.00    -0.477 OA
ATOM     28  H   UNL     1      33.466 -21.379 -14.483  0.00  0.00    +0.295 HD
ENDBRANCH  26  27
ENDBRANCH  24  26
ENDBRANCH  18  23
ENDBRANCH   2  17
TORSDOF 6
ENDMDL
MODEL 2
REMARK VINA RESULT:     -11.1      3.379      4.711
REMARK  Name = 9820008
REMARK  6 active torsions:
REMARK  status: ('A' for Active; 'I' for Inactive)
REMARK    1  A    between atoms: C_2  and  N_17
REMARK    2  A    between atoms: C_3  and  C_8
REMARK    3  A    between atoms: C_11  and  O_14
REMARK    4  A    between atoms: C_18  and  C_23
REMARK    5  A    between atoms: C_24  and  C_26
REMARK    6  A    between atoms: C_26  and  O_27
REMARK                            x       y       z     vdW  Elec       q    Type
REMARK                         _______ _______ _______ _____ _____    ______ ____
ROOT
ATOM      1  F   UNL     1      35.357 -22.395 -16.608  0.00  0.00    -0.203 F 
ATOM      2  C   UNL     1      33.311 -21.691 -17.588  0.00  0.00    +0.078 C 
ATOM      3  C   UNL     1      34.731 -20.145 -19.394  0.00  0.00    +0.002 C 
ATOM      4  C   UNL     1      34.695 -21.675 -17.525  0.00  0.00    +0.153 C 
ATOM      5  C   UNL     1      32.623 -20.951 -18.534  0.00  0.00    +0.017 C 
ATOM      6  C   UNL     1      35.410 -20.897 -18.435  0.00  0.00    +0.031 C 
ATOM      7  C   UNL     1      33.337 -20.172 -19.444  0.00  0.00    +0.001 C 
ENDROOT
BRANCH   3   8
ATOM      8  C   UNL     1      35.472 -19.338 -20.339  0.00  0.00    +0.003 C 
ATOM      9  C   UNL     1      34.841 -18.848 -21.483  0.00  0.00    +0.037 C 
ATOM     10  C   UNL     1      36.816 -19.050 -20.107  0.00  0.00    +0.000 C 
ATOM     11  C   UNL     1      35.555 -18.070 -22.394  0.00  0.00    +0.139 C 
ATOM     12  C   UNL     1      37.531 -18.272 -21.017  0.00  0.00    +0.003 C 
ATOM     13  C   UNL     1      36.901 -17.782 -22.161  0.00  0.00    +0.037 C 
BRANCH  11  14
ATOM     14  O   UNL     1      34.941 -17.592 -23.510  0.00  0.00    -0.471 OA
ATOM     15  C   UNL     1      34.953 -16.179 -23.704  0.00  0.00    +0.252 C 
ENDBRANCH  11  14
ENDBRANCH   3   8
BRANCH   2  17
ATOM     16  O   UNL     1      30.470 -21.440 -16.613  0.00  0.00    -0.270 OA
ATOM     17  N   UNL     1      32.583 -22.478 -16.664  0.00  0.00    -0.279 N 
ATOM     18  C   UNL     1      31.264 -22.314 -16.250  0.00  0.00    +0.245 C 
ATOM     19  H   UNL     1      33.069 -23.237 -16.267  0.00  0.00    +0.155 HD
BRANCH  18  23
ATOM     20  C   UNL     1      30.915 -24.611 -13.310  0.00  0.00    +0.010 C 
ATOM     21  C   UNL     1      31.828 -23.925 -14.327  0.00  0.00    +0.031 C 
ATOM     22  C   UNL     1      29.583 -24.843 -14.028  0.00  0.00    +0.033 C 
ATOM     23  C   UNL     1      30.851 -23.322 -15.283  0.00  0.00    +0.034 C 
ATOM     24  C   UNL     1      29.623 -23.825 -15.119  0.00  0.00    +0.054 C 
BRANCH  24  26
ATOM     25  O   UNL     1      28.014 -24.083 -16.849  0.00  0.00    -0.245 OA
ATOM     26  C   UNL     1      28.426 -23.476 -15.871  0.00  0.00    +0.334 C 
BRANCH  26  27
ATOM     27  O   UNL     1      27.841 -22.385 -15.327  0.00  0.00    -0.477 OA
ATOM     28  H   UNL     1      26.938 -22.412 -15.077  0.00  0.00    +0.295 HD
ENDBRANCH  26  27
ENDBRANCH  24  26
ENDBRANCH  18  23
ENDBRANCH   2  17
TORSDOF 6
ENDMDL
MODEL 3
REMARK VINA RESULT:     -10.9      3.775     10.309
REMARK  Name = 9820008
REMARK  6 active torsions:
REMARK  status: ('A' for Active; 'I' for Inactive)
REMARK    1  A    between atoms: C_2  and  N_17
REMARK    2  A    between atoms: C_3  and  C_8
REMARK    3  A    between atoms: C_11  and  O_14
REMARK    4  A    between atoms: C_18  and  C_23
REMARK    5  A    between atoms: C_24  and  C_26
REMARK    6  A    between atoms: C_26  and  O_27
REMARK                            x       y       z     vdW  Elec       q    Type
REMARK                         _______ _______ _______ _____ _____    ______ ____
ROOT
ATOM      1  F   UNL     1      35.167 -16.047 -24.314  0.00  0.00    -0.203 F 
ATOM      2  C   UNL     1      35.026 -14.967 -22.204  0.00  0.00    +0.078 C 
ATOM      3  C   UNL     1      35.271 -17.424 -20.951  0.00  0.00    +0.002 C 
ATOM      4  C   UNL     1      35.156 -16.110 -22.975  0.00  0.00    +0.153 C 
ATOM      5  C   UNL     1      35.016 -15.026 -20.821  0.00  0.00    +0.017 C 
ATOM      6  C   UNL     1      35.280 -17.348 -22.344  0.00  0.00    +0.031 C 
ATOM      7  C   UNL     1      35.139 -16.264 -20.189  0.00  0.00    +0.001 C 
ENDROOT
BRANCH   3   8
ATOM      8  C   UNL     1      35.399 -18.708 -20.296  0.00  0.00    +0.003 C 
ATOM      9  C   UNL     1      34.259 -19.442 -19.971  0.00  0.00    +0.037 C 
ATOM     10  C   UNL     1      36.663 -19.211 -19.989  0.00  0.00    +0.000 C 
ATOM     11  C   UNL     1      34.382 -20.679 -19.339  0.00  0.00    +0.139 C 
ATOM     12  C   UNL     1      36.787 -20.449 -19.358  0.00  0.00    +0.003 C 
ATOM     13  C   UNL     1      35.647 -21.182 -19.032  0.00  0.00    +0.037 C 
BRANCH  11  14
ATOM     14  O   UNL     1      33.270 -21.396 -19.021  0.00  0.00    -0.471 OA
ATOM     15  C   UNL     1      33.190 -21.917 -17.696  0.00  0.00    +0.252 C 
ENDBRANCH  11  14
ENDBRANCH   3   8
BRANCH   2  17
ATOM     16  O   UNL     1      32.852 -12.887 -22.016  0.00  0.00    -0.270 OA
ATOM     17  N   UNL     1      34.899 -13.710 -22.841  0.00  0.00    -0.279 N 
ATOM     18  C   UNL     1      33.865 -12.785 -22.715  0.00  0.00    +0.245 C 
ATOM     19  H   UNL     1      35.632 -13.457 -23.447  0.00  0.00    +0.155 HD
BRANCH  18  23
ATOM     20  C   UNL     1      34.859  -9.442 -24.084  0.00  0.00    +0.010 C 
ATOM     21  C   UNL     1      34.353 -10.267 -22.901  0.00  0.00    +0.031 C 
ATOM     22  C   UNL     1      34.316 -10.127 -25.340  0.00  0.00    +0.033 C 
ATOM     23  C   UNL     1      34.077 -11.595 -23.528  0.00  0.00    +0.034 C 
ATOM     24  C   UNL     1      34.057 -11.517 -24.862  0.00  0.00    +0.054 C 
BRANCH  24  26
ATOM     25  O   UNL     1      33.389 -13.709 -25.494  0.00  0.00    -0.245 OA
ATOM     26  C   UNL     1      33.817 -12.606 -25.800  0.00  0.00    +0.334 C 
BRANCH  26  27
ATOM     27  O   UNL     1      34.139 -12.213 -27.053  0.00  0.00    -0.477 OA
ATOM     28  H   UNL     1      33.511 -12.290 -27.744  0.00  0.00    +0.295 HD
ENDBRANCH  26  27
ENDBRANCH  24  26
ENDBRANCH  18  23
ENDBRANCH   2  17
TORSDOF 6
ENDMDL
MODEL 4
REMARK VINA RESULT:     -10.9      2.010      8.922
REMARK  Name = 9820008
REMARK  6 active torsions:
REMARK  status: ('A' for Active; 'I' for Inactive)
REMARK    1  A    between atoms: C_2  and  N_17
REMARK    2  A    between atoms: C_3  and  C_8
REMARK    3  A    between atoms: C_11  and  O_14
REMARK    4  A    between atoms: C_18  and  C_23
REMARK    5  A    between atoms: C_24  and  C_26
REMARK    6  A    between atoms: C_26  and  O_27
REMARK                            x       y       z     vdW  Elec       q    Type
REMARK                         _______ _______ _______ _____ _____    ______ ____
ROOT
ATOM      1  F   UNL     1      32.906 -20.820 -19.555  0.00  0.00    -0.203 F 
ATOM      2  C   UNL     1      35.189 -20.168 -19.599  0.00  0.00    +0.078 C 
ATOM      3  C   UNL     1      35.606 -21.540 -17.230  0.00  0.00    +0.002 C 
ATOM      4  C   UNL     1      34.128 -20.830 -19.004  0.00  0.00    +0.153 C 
ATOM      5  C   UNL     1      36.454 -20.177 -19.035  0.00  0.00    +0.017 C 
ATOM      6  C   UNL     1      34.338 -21.521 -17.811  0.00  0.00    +0.031 C 
ATOM      7  C   UNL     1      36.664 -20.867 -17.841  0.00  0.00    +0.001 C 
ENDROOT
BRANCH   3   8
ATOM      8  C   UNL     1      35.824 -22.257 -15.992  0.00  0.00    +0.003 C 
ATOM      9  C   UNL     1      37.108 -22.344 -15.454  0.00  0.00    +0.037 C 
ATOM     10  C   UNL     1      34.751 -22.860 -15.337  0.00  0.00    +0.000 C 
ATOM     11  C   UNL     1      37.319 -23.036 -14.262  0.00  0.00    +0.139 C 
ATOM     12  C   UNL     1      34.962 -23.551 -14.144  0.00  0.00    +0.003 C 
ATOM     13  C   UNL     1      36.246 -23.640 -13.606  0.00  0.00    +0.037 C 
BRANCH  11  14
ATOM     14  O   UNL     1      38.572 -23.123 -13.736  0.00  0.00    -0.471 OA
ATOM     15  C   UNL     1      38.856 -24.255 -12.917  0.00  0.00    +0.252 C 
ENDBRANCH  11  14
ENDBRANCH   3   8
BRANCH   2  17
ATOM     16  O   UNL     1      36.908 -18.127 -21.001  0.00  0.00    -0.270 OA
ATOM     17  N   UNL     1      34.979 -19.465 -20.809  0.00  0.00    -0.279 N 
ATOM     18  C   UNL     1      35.814 -18.527 -21.412  0.00  0.00    +0.245 C 
ATOM     19  H   UNL     1      34.140 -19.664 -21.283  0.00  0.00    +0.155 HD
BRANCH  18  23
ATOM     20  C   UNL     1      34.043 -18.015 -24.674  0.00  0.00    +0.010 C 
ATOM     21  C   UNL     1      34.877 -18.927 -23.773  0.00  0.00    +0.031 C 
ATOM     22  C   UNL     1      34.474 -16.584 -24.343  0.00  0.00    +0.033 C 
ATOM     23  C   UNL     1      35.266 -18.010 -22.659  0.00  0.00    +0.034 C 
ATOM     24  C   UNL     1      35.046 -16.729 -22.971  0.00  0.00    +0.054 C 
BRANCH  24  26
ATOM     25  O   UNL     1      35.049 -15.493 -20.941  0.00  0.00    -0.245 OA
ATOM     26  C   UNL     1      35.305 -15.566 -22.134  0.00  0.00    +0.334 C 
BRANCH  26  27
ATOM     27  O   UNL     1      35.869 -14.584 -22.873  0.00  0.00    -0.477 OA
ATOM     28  H   UNL     1      35.800 -14.601 -23.807  0.00  0.00    +0.295 HD
ENDBRANCH  26  27
ENDBRANCH  24  26
ENDBRANCH  18  23
ENDBRANCH   2  17
TORSDOF 6
ENDMDL
MODEL 5
REMARK VINA RESULT:     -10.9      6.728      7.963
REMARK  Name = 9820008
REMARK  6 active torsions:
REMARK  status: ('A' for Active; 'I' for Inactive)
REMARK    1  A    between atoms: C_2  and  N_17
REMARK    2  A    between atoms: C_3  and  C_8
REMARK    3  A    between atoms: C_11  and  O_14
REMARK    4  A    between atoms: C_18  and  C_23
REMARK    5  A    between atoms: C_24  and  C_26
REMARK    6  A    between atoms: C_26  and  O_27
REMARK                            x       y       z     vdW  Elec       q    Type
REMARK                         _______ _______ _______ _____ _____    ______ ____
ROOT
ATOM      1  F   UNL     1      34.310 -22.530 -16.410  0.00  0.00    -0.203 F 
ATOM      2  C   UNL     1      33.641 -23.673 -14.438  0.00  0.00    +0.078 C 
ATOM      3  C   UNL     1      31.028 -22.873 -14.883  0.00  0.00    +0.002 C 
ATOM      4  C   UNL     1      33.350 -22.898 -15.548  0.00  0.00    +0.153 C 
ATOM      5  C   UNL     1      32.654 -24.057 -13.546  0.00  0.00    +0.017 C 
ATOM      6  C   UNL     1      32.034 -22.495 -15.772  0.00  0.00    +0.031 C 
ATOM      7  C   UNL     1      31.338 -23.654 -13.770  0.00  0.00    +0.001 C 
ENDROOT
BRANCH   3   8
ATOM      8  C   UNL     1      29.662 -22.455 -15.115  0.00  0.00    +0.003 C 
ATOM      9  C   UNL     1      29.095 -22.599 -16.381  0.00  0.00    +0.037 C 
ATOM     10  C   UNL     1      28.913 -21.908 -14.074  0.00  0.00    +0.000 C 
ATOM     11  C   UNL     1      27.779 -22.196 -16.606  0.00  0.00    +0.139 C 
ATOM     12  C   UNL     1      27.597 -21.506 -14.297  0.00  0.00    +0.003 C 
ATOM     13  C   UNL     1      27.030 -21.649 -15.563  0.00  0.00    +0.037 C 
BRANCH  11  14
ATOM     14  O   UNL     1      27.224 -22.335 -17.841  0.00  0.00    -0.471 OA
ATOM     15  C   UNL     1      26.276 -21.349 -18.243  0.00  0.00    +0.252 C 
ENDBRANCH  11  14
ENDBRANCH   3   8
BRANCH   2  17
ATOM     16  O   UNL     1      35.448 -23.216 -12.069  0.00  0.00    -0.270 OA
ATOM     17  N   UNL     1      34.976 -24.082 -14.207  0.00  0.00    -0.279 N 
ATOM     18  C   UNL     1      35.766 -23.840 -13.086  0.00  0.00    +0.245 C 
ATOM     19  H   UNL     1      35.399 -24.604 -14.928  0.00  0.00    +0.155 HD
BRANCH  18  23
ATOM     20  C   UNL     1      38.962 -25.412 -14.248  0.00  0.00    +0.010 C 
ATOM     21  C   UNL     1      37.435 -25.370 -14.305  0.00  0.00    +0.031 C 
ATOM     22  C   UNL     1      39.345 -24.975 -12.833  0.00  0.00    +0.033 C 
ATOM     23  C   UNL     1      37.097 -24.420 -13.203  0.00  0.00    +0.034 C 
ATOM     24  C   UNL     1      38.142 -24.204 -12.398  0.00  0.00    +0.054 C 
BRANCH  24  26
ATOM     25  O   UNL     1      38.696 -22.234 -11.188  0.00  0.00    -0.245 OA
ATOM     26  C   UNL     1      38.181 -23.343 -11.224  0.00  0.00    +0.334 C 
BRANCH  26  27
ATOM     27  O   UNL     1      37.565 -23.951 -10.185  0.00  0.00    -0.477 OA
ATOM     28  H   UNL     1      37.291 -23.448  -9.444  0.00  0.00    +0.295 HD
ENDBRANCH  26  27
ENDBRANCH  24  26
ENDBRANCH  18  23
ENDBRANCH   2  17
TORSDOF 6
ENDMDL
MODEL 6
REMARK VINA RESULT:     -10.7      4.008     10.386
REMARK  Name = 9820008
REMARK  6 active torsions:
REMARK  status: ('A' for Active; 'I' for Inactive)
REMARK    1  A    between atoms: C_2  and  N_17
REMARK    2  A    between atoms: C_3  and  C_8
REMARK    3  A    between atoms: C_11  and  O_14
REMARK    4  A    between atoms: C_18  and  C_23
REMARK    5  A    between atoms: C_24  and  C_26
REMARK    6  A    between atoms: C_26  and  O_27
REMARK                            x       y       z     vdW  Elec       q    Type
REMARK                         _______ _______ _______ _____ _____    ______ ____
ROOT
ATOM      1  F   UNL     1      35.130 -15.056 -24.010  0.00  0.00    -0.203 F 
ATOM      2  C   UNL     1      34.853 -14.291 -21.778  0.00  0.00    +0.078 C 
ATOM      3  C   UNL     1      35.314 -16.862 -20.860  0.00  0.00    +0.002 C 
ATOM      4  C   UNL     1      35.105 -15.301 -22.692  0.00  0.00    +0.153 C 
ATOM      5  C   UNL     1      34.827 -14.538 -20.416  0.00  0.00    +0.017 C 
ATOM      6  C   UNL     1      35.337 -16.596 -22.229  0.00  0.00    +0.031 C 
ATOM      7  C   UNL     1      35.059 -15.833 -19.953  0.00  0.00    +0.001 C 
ENDROOT
BRANCH   3   8
ATOM      8  C   UNL     1      35.556 -18.205 -20.380  0.00  0.00    +0.003 C 
ATOM      9  C   UNL     1      34.482 -19.058 -20.124  0.00  0.00    +0.037 C 
ATOM     10  C   UNL     1      36.862 -18.647 -20.171  0.00  0.00    +0.000 C 
ATOM     11  C   UNL     1      34.715 -20.353 -19.660  0.00  0.00    +0.139 C 
ATOM     12  C   UNL     1      37.095 -19.942 -19.708  0.00  0.00    +0.003 C 
ATOM     13  C   UNL     1      36.022 -20.795 -19.452  0.00  0.00    +0.037 C 
BRANCH  11  14
ATOM     14  O   UNL     1      33.668 -21.185 -19.409  0.00  0.00    -0.471 OA
ATOM     15  C   UNL     1      33.488 -21.617 -18.062  0.00  0.00    +0.252 C 
ENDBRANCH  11  14
ENDBRANCH   3   8
BRANCH   2  17
ATOM     16  O   UNL     1      32.338 -12.628 -21.750  0.00  0.00    -0.270 OA
ATOM     17  N   UNL     1      34.615 -12.976 -22.245  0.00  0.00    -0.279 N 
ATOM     18  C   UNL     1      33.424 -12.255 -22.205  0.00  0.00    +0.245 C 
ATOM     19  H   UNL     1      35.386 -12.514 -22.646  0.00  0.00    +0.155 HD
BRANCH  18  23
ATOM     20  C   UNL     1      33.985  -9.288 -24.424  0.00  0.00    +0.010 C 
ATOM     21  C   UNL     1      34.436 -10.675 -23.965  0.00  0.00    +0.031 C 
ATOM     22  C   UNL     1      33.338  -8.628 -23.205  0.00  0.00    +0.033 C 
ATOM     23  C   UNL     1      33.558 -10.923 -22.781  0.00  0.00    +0.034 C 
ATOM     24  C   UNL     1      32.958  -9.803 -22.366  0.00  0.00    +0.054 C 
BRANCH  24  26
ATOM     25  O   UNL     1      32.316  -9.144 -20.174  0.00  0.00    -0.245 OA
ATOM     26  C   UNL     1      32.038  -9.665 -21.245  0.00  0.00    +0.334 C 
BRANCH  26  27
ATOM     27  O   UNL     1      30.837 -10.197 -21.566  0.00  0.00    -0.477 OA
ATOM     28  H   UNL     1      30.291 -10.560 -20.897  0.00  0.00    +0.295 HD
ENDBRANCH  26  27
ENDBRANCH  24  26
ENDBRANCH  18  23
ENDBRANCH   2  17
TORSDOF 6
ENDMDL
MODEL 7
REMARK VINA RESULT:     -10.7      1.098      1.731
REMARK  Name = 9820008
REMARK  6 active torsions:
REMARK  status: ('A' for Active; 'I' for Inactive)
REMARK    1  A    between atoms: C_2  and  N_17
REMARK    2  A    between atoms: C_3  and  C_8
REMARK    3  A    between atoms: C_11  and  O_14
REMARK    4  A    between atoms: C_18  and  C_23
REMARK    5  A    between atoms: C_24  and  C_26
REMARK    6  A    between atoms: C_26  and  O_27
REMARK                            x       y       z     vdW  Elec       q    Type
REMARK                         _______ _______ _______ _____ _____    ______ ____
ROOT
ATOM      1  F   UNL     1      33.447 -21.156 -18.380  0.00  0.00    -0.203 F 
ATOM      2  C   UNL     1      35.791 -20.777 -18.461  0.00  0.00    +0.078 C 
ATOM      3  C   UNL     1      35.416 -19.037 -20.583  0.00  0.00    +0.002 C 
ATOM      4  C   UNL     1      34.508 -20.550 -18.933  0.00  0.00    +0.153 C 
ATOM      5  C   UNL     1      36.889 -20.153 -19.027  0.00  0.00    +0.017 C 
ATOM      6  C   UNL     1      34.320 -19.674 -20.001  0.00  0.00    +0.031 C 
ATOM      7  C   UNL     1      36.702 -19.277 -20.096  0.00  0.00    +0.001 C 
ENDROOT
BRANCH   3   8
ATOM      8  C   UNL     1      35.221 -18.128 -21.691  0.00  0.00    +0.003 C 
ATOM      9  C   UNL     1      34.652 -18.588 -22.879  0.00  0.00    +0.037 C 
ATOM     10  C   UNL     1      35.604 -16.792 -21.573  0.00  0.00    +0.000 C 
ATOM     11  C   UNL     1      34.465 -17.712 -23.947  0.00  0.00    +0.139 C 
ATOM     12  C   UNL     1      35.416 -15.915 -22.641  0.00  0.00    +0.003 C 
ATOM     13  C   UNL     1      34.847 -16.375 -23.829  0.00  0.00    +0.037 C 
BRANCH  11  14
ATOM     14  O   UNL     1      33.909 -18.159 -25.106  0.00  0.00    -0.471 OA
ATOM     15  C   UNL     1      32.594 -17.703 -25.416  0.00  0.00    +0.252 C 
ENDBRANCH  11  14
ENDBRANCH   3   8
BRANCH   2  17
ATOM     16  O   UNL     1      37.441 -20.481 -15.956  0.00  0.00    -0.270 OA
ATOM     17  N   UNL     1      35.985 -21.667 -17.378  0.00  0.00    -0.279 N 
ATOM     18  C   UNL     1      36.765 -21.475 -16.240  0.00  0.00    +0.245 C 
ATOM     19  H   UNL     1      35.510 -22.527 -17.436  0.00  0.00    +0.155 HD
BRANCH  18  23
ATOM     20  C   UNL     1      37.490 -24.144 -13.713  0.00  0.00    +0.010 C 
ATOM     21  C   UNL     1      37.976 -23.297 -14.889  0.00  0.00    +0.031 C 
ATOM     22  C   UNL     1      35.986 -24.335 -13.922  0.00  0.00    +0.033 C 
ATOM     23  C   UNL     1      36.723 -22.616 -15.335  0.00  0.00    +0.034 C 
ATOM     24  C   UNL     1      35.635 -23.184 -14.806  0.00  0.00    +0.054 C 
BRANCH  24  26
ATOM     25  O   UNL     1      33.634 -22.936 -16.064  0.00  0.00    -0.245 OA
ATOM     26  C   UNL     1      34.249 -22.790 -15.018  0.00  0.00    +0.334 C 
BRANCH  26  27
ATOM     27  O   UNL     1      33.748 -22.240 -13.888  0.00  0.00    -0.477 OA
ATOM     28  H   UNL     1      34.307 -22.097 -13.150  0.00  0.00    +0.295 HD
ENDBRANCH  26  27
ENDBRANCH  24  26
ENDBRANCH  18  23
ENDBRANCH   2  17
TORSDOF 6
ENDMDL
MODEL 8
REMARK VINA RESULT:     -10.7      2.746      4.353
REMARK  Name = 9820008
REMARK  6 active torsions:
REMARK  status: ('A' for Active; 'I' for Inactive)
REMARK    1  A    between atoms: C_2  and  N_17
REMARK    2  A    between atoms: C_3  and  C_8
REMARK    3  A    between atoms: C_11  and  O_14
REMARK    4  A    between atoms: C_18  and  C_23
REMARK    5  A    between atoms: C_24  and  C_26
REMARK    6  A    between atoms: C_26  and  O_27
REMARK                            x       y       z     vdW  Elec       q    Type
REMARK                         _______ _______ _______ _____ _____    ______ ____
ROOT
ATOM      1  F   UNL     1      35.404 -22.371 -16.629  0.00  0.00    -0.203 F 
ATOM      2  C   UNL     1      33.334 -21.676 -17.563  0.00  0.00    +0.078 C 
ATOM      3  C   UNL     1      34.706 -20.143 -19.416  0.00  0.00    +0.002 C 
ATOM      4  C   UNL     1      34.718 -21.659 -17.535  0.00  0.00    +0.153 C 
ATOM      5  C   UNL     1      32.621 -20.944 -18.497  0.00  0.00    +0.017 C 
ATOM      6  C   UNL     1      35.409 -20.887 -18.469  0.00  0.00    +0.031 C 
ATOM      7  C   UNL     1      33.311 -20.171 -19.430  0.00  0.00    +0.001 C 
ENDROOT
BRANCH   3   8
ATOM      8  C   UNL     1      35.422 -19.343 -20.386  0.00  0.00    +0.003 C 
ATOM      9  C   UNL     1      34.768 -18.879 -21.527  0.00  0.00    +0.037 C 
ATOM     10  C   UNL     1      36.767 -19.036 -20.179  0.00  0.00    +0.000 C 
ATOM     11  C   UNL     1      35.458 -18.108 -22.462  0.00  0.00    +0.139 C 
ATOM     12  C   UNL     1      37.457 -18.263 -21.113  0.00  0.00    +0.003 C 
ATOM     13  C   UNL     1      36.803 -17.800 -22.255  0.00  0.00    +0.037 C 
BRANCH  11  14
ATOM     14  O   UNL     1      34.821 -17.655 -23.575  0.00  0.00    -0.471 OA
ATOM     15  C   UNL     1      34.871 -16.252 -23.828  0.00  0.00    +0.252 C 
ENDBRANCH  11  14
ENDBRANCH   3   8
BRANCH   2  17
ATOM     16  O   UNL     1      30.489 -21.475 -16.586  0.00  0.00    -0.270 OA
ATOM     17  N   UNL     1      32.630 -22.457 -16.615  0.00  0.00    -0.279 N 
ATOM     18  C   UNL     1      31.307 -22.317 -16.201  0.00  0.00    +0.245 C 
ATOM     19  H   UNL     1      33.137 -23.191 -16.199  0.00  0.00    +0.155 HD
BRANCH  18  23
ATOM     20  C   UNL     1      29.905 -25.247 -14.335  0.00  0.00    +0.010 C 
ATOM     21  C   UNL     1      29.701 -24.149 -15.378  0.00  0.00    +0.031 C 
ATOM     22  C   UNL     1      30.874 -24.672 -13.299  0.00  0.00    +0.033 C 
ATOM     23  C   UNL     1      30.925 -23.309 -15.205  0.00  0.00    +0.034 C 
ATOM     24  C   UNL     1      31.566 -23.596 -14.068  0.00  0.00    +0.054 C 
BRANCH  24  26
ATOM     25  O   UNL     1      33.886 -23.083 -14.098  0.00  0.00    -0.245 OA
ATOM     26  C   UNL     1      32.788 -22.979 -13.571  0.00  0.00    +0.334 C 
BRANCH  26  27
ATOM     27  O   UNL     1      32.526 -22.278 -12.445  0.00  0.00    -0.477 OA
ATOM     28  H   UNL     1      32.833 -21.397 -12.359  0.00  0.00    +0.295 HD
ENDBRANCH  26  27
ENDBRANCH  24  26
ENDBRANCH  18  23
ENDBRANCH   2  17
TORSDOF 6
ENDMDL
MODEL 9
REMARK VINA RESULT:     -10.6      3.280      5.591
REMARK  Name = 9820008
REMARK  6 active torsions:
REMARK  status: ('A' for Active; 'I' for Inactive)
REMARK    1  A    between atoms: C_2  and  N_17
REMARK    2  A    between atoms: C_3  and  C_8
REMARK    3  A    between atoms: C_11  and  O_14
REMARK    4  A    between atoms: C_18  and  C_23
REMARK    5  A    between atoms: C_24  and  C_26
REMARK    6  A    between atoms: C_26  and  O_27
REMARK                            x       y       z     vdW  Elec       q    Type
REMARK                         _______ _______ _______ _____ _____    ______ ____
ROOT
ATOM      1  F   UNL     1      34.935 -14.917 -19.416  0.00  0.00    -0.203 F 
ATOM      2  C   UNL     1      35.070 -16.164 -21.433  0.00  0.00    +0.078 C 
ATOM      3  C   UNL     1      34.576 -13.851 -22.873  0.00  0.00    +0.002 C 
ATOM      4  C   UNL     1      34.881 -14.971 -20.754  0.00  0.00    +0.153 C 
ATOM      5  C   UNL     1      35.018 -16.225 -22.815  0.00  0.00    +0.017 C 
ATOM      6  C   UNL     1      34.633 -13.806 -21.480  0.00  0.00    +0.031 C 
ATOM      7  C   UNL     1      34.769 -15.061 -23.541  0.00  0.00    +0.001 C 
ENDROOT
BRANCH   3   8
ATOM      8  C   UNL     1      34.319 -12.643 -23.626  0.00  0.00    +0.003 C 
ATOM      9  C   UNL     1      34.353 -11.403 -22.988  0.00  0.00    +0.037 C 
ATOM     10  C   UNL     1      34.035 -12.718 -24.990  0.00  0.00    +0.000 C 
ATOM     11  C   UNL     1      34.104 -10.238 -23.714  0.00  0.00    +0.139 C 
ATOM     12  C   UNL     1      33.787 -11.553 -25.716  0.00  0.00    +0.003 C 
ATOM     13  C   UNL     1      33.820 -10.313 -25.078  0.00  0.00    +0.037 C 
BRANCH  11  14
ATOM     14  O   UNL     1      34.136  -9.028 -23.093  0.00  0.00    -0.471 OA
ATOM     15  C   UNL     1      33.016  -8.684 -22.280  0.00  0.00    +0.252 C 
ENDBRANCH  11  14
ENDBRANCH   3   8
BRANCH   2  17
ATOM     16  O   UNL     1      34.815 -19.058 -22.238  0.00  0.00    -0.270 OA
ATOM     17  N   UNL     1      35.321 -17.348 -20.699  0.00  0.00    -0.279 N 
ATOM     18  C   UNL     1      35.184 -18.666 -21.126  0.00  0.00    +0.245 C 
ATOM     19  H   UNL     1      35.632 -17.224 -19.773  0.00  0.00    +0.155 HD
BRANCH  18  23
ATOM     20  C   UNL     1      36.838 -20.655 -18.416  0.00  0.00    +0.010 C 
ATOM     21  C   UNL     1      36.963 -19.907 -19.743  0.00  0.00    +0.031 C 
ATOM     22  C   UNL     1      35.423 -21.237 -18.389  0.00  0.00    +0.033 C 
ATOM     23  C   UNL     1      35.536 -19.629 -20.091  0.00  0.00    +0.034 C 
ATOM     24  C   UNL     1      34.695 -20.357 -19.350  0.00  0.00    +0.054 C 
BRANCH  24  26
ATOM     25  O   UNL     1      32.584 -19.901 -20.343  0.00  0.00    -0.245 OA
ATOM     26  C   UNL     1      33.240 -20.351 -19.414  0.00  0.00    +0.334 C 
BRANCH  26  27
ATOM     27  O   UNL     1      32.727 -20.913 -18.296  0.00  0.00    -0.477 OA
ATOM     28  H   UNL     1      32.009 -21.512 -18.360  0.00  0.00    +0.295 HD
ENDBRANCH  26  27
ENDBRANCH  24  26
ENDBRANCH  18  23
ENDBRANCH   2  17
TORSDOF 6
ENDMDL
