MODEL 1
REMARK VINA RESULT:     -12.6      0.000      0.000
REMARK  Name = 5326868
REMARK  6 active torsions:
REMARK  status: ('A' for Active; 'I' for Inactive)
REMARK    1  A    between atoms: C_2  and  C_28
REMARK    2  A    between atoms: C_7  and  N_12
REMARK    3  A    between atoms: C_13  and  C_18
REMARK    4  A    between atoms: C_16  and  N_23
REMARK    5  A    between atoms: C_28  and  C_29
REMARK    6  A    between atoms: C_29  and  C_31
REMARK                            x       y       z     vdW  Elec       q    Type
REMARK                         _______ _______ _______ _____ _____    ______ ____
ROOT
ATOM      1  N   UNL     1      35.332 -15.706 -23.728  0.00  0.00    -0.312 N 
ATOM      2  C   UNL     1      34.956 -14.868 -21.706  0.00  0.00    -0.006 C 
ATOM      3  C   UNL     1      35.043 -16.284 -21.592  0.00  0.00    +0.012 C 
ATOM      4  C   UNL     1      35.278 -16.784 -22.874  0.00  0.00    +0.048 C 
ATOM      5  C   UNL     1      35.138 -14.543 -23.031  0.00  0.00    +0.058 C 
ATOM      6  C   UNL     1      34.941 -17.190 -20.518  0.00  0.00    +0.016 C 
ATOM      7  C   UNL     1      35.080 -18.560 -20.765  0.00  0.00    +0.051 C 
ATOM      8  C   UNL     1      35.419 -18.152 -23.137  0.00  0.00    +0.016 C 
ATOM      9  C   UNL     1      35.316 -19.032 -22.055  0.00  0.00    +0.016 C 
ATOM     10  H   UNL     1      35.487 -15.762 -24.698  0.00  0.00    +0.152 HD
ENDROOT
BRANCH   7  12
ATOM     11  O   UNL     1      32.835 -20.387 -19.983  0.00  0.00    -0.270 OA
ATOM     12  N   UNL     1      34.981 -19.465 -19.706  0.00  0.00    -0.280 N 
ATOM     13  C   UNL     1      33.902 -20.298 -19.384  0.00  0.00    +0.250 C 
ATOM     14  H   UNL     1      35.764 -19.523 -19.112  0.00  0.00    +0.155 HD
BRANCH  13  18
ATOM     15  F   UNL     1      36.769 -22.371 -16.087  0.00  0.00    -0.204 F 
ATOM     16  C   UNL     1      33.145 -22.447 -16.410  0.00  0.00    +0.050 C 
ATOM     17  C   UNL     1      32.972 -21.662 -17.550  0.00  0.00    +0.019 C 
ATOM     18  C   UNL     1      34.086 -21.137 -18.170  0.00  0.00    +0.057 C 
ATOM     19  C   UNL     1      34.428 -22.687 -15.916  0.00  0.00    +0.044 C 
ATOM     20  C   UNL     1      35.364 -21.357 -17.702  0.00  0.00    +0.034 C 
ATOM     21  C   UNL     1      35.538 -22.142 -16.562  0.00  0.00    +0.142 C 
BRANCH  16  23
ATOM     22  O   UNL     1      29.828 -23.890 -14.266  0.00  0.00    -0.350 OA
ATOM     23  N   UNL     1      32.033 -22.993 -15.760  0.00  0.00    -0.303 N 
ATOM     24  C   UNL     1      30.698 -22.437 -16.005  0.00  0.00    +0.123 C 
ATOM     25  C   UNL     1      32.229 -23.589 -14.431  0.00  0.00    +0.123 C 
ATOM     26  C   UNL     1      29.635 -23.458 -15.612  0.00  0.00    +0.164 C 
ATOM     27  C   UNL     1      31.086 -24.550 -14.125  0.00  0.00    +0.164 C 
ENDBRANCH  16  23
ENDBRANCH  13  18
ENDBRANCH   7  12
BRANCH   2  28
ATOM     28  C   UNL     1      34.715 -13.910 -20.608  0.00  0.00    +0.032 C 
BRANCH  28  29
ATOM     29  C   UNL     1      33.264 -13.893 -20.080  0.00  0.00    +0.031 C 
BRANCH  29  31
ATOM     30  N   UNL     1      31.360 -10.076 -20.493  0.00  0.00    -0.242 NA
ATOM     31  C   UNL     1      32.593 -12.550 -20.226  0.00  0.00    -0.019 C 
ATOM     32  C   UNL     1      31.930 -12.001 -19.146  0.00  0.00    +0.016 C 
ATOM     33  C   UNL     1      32.653 -11.888 -21.437  0.00  0.00    +0.016 C 
ATOM     34  C   UNL     1      31.331 -10.765 -19.330  0.00  0.00    +0.099 C 
ATOM     35  C   UNL     1      32.021 -10.657 -21.519  0.00  0.00    +0.099 C 
ENDBRANCH  29  31
ENDBRANCH  28  29
ENDBRANCH   2  28
TORSDOF 6
ENDMDL
MODEL 2
REMARK VINA RESULT:     -12.1      2.162      3.324
REMARK  Name = 5326868
REMARK  6 active torsions:
REMARK  status: ('A' for Active; 'I' for Inactive)
REMARK    1  A    between atoms: C_2  and  C_28
REMARK    2  A    between atoms: C_7  and  N_12
REMARK    3  A    between atoms: C_13  and  C_18
REMARK    4  A    between atoms: C_16  and  N_23
REMARK    5  A    between atoms: C_28  and  C_29
REMARK    6  A    between atoms: C_29  and  C_31
REMARK                            x       y       z     vdW  Elec       q    Type
REMARK                         _______ _______ _______ _____ _____    ______ ____
ROOT
ATOM      1  N   UNL     1      35.497 -15.889 -23.485  0.00  0.00    -0.312 N 
ATOM      2  C   UNL     1      35.043 -15.019 -21.493  0.00  0.00    -0.006 C 
ATOM      3  C   UNL     1      35.044 -16.437 -21.371  0.00  0.00    +0.012 C 
ATOM      4  C   UNL     1      35.331 -16.958 -22.634  0.00  0.00    +0.048 C 
ATOM      5  C   UNL     1      35.325 -14.713 -22.805  0.00  0.00    +0.058 C 
ATOM      6  C   UNL     1      34.826 -17.330 -20.302  0.00  0.00    +0.016 C 
ATOM      7  C   UNL     1      34.905 -18.707 -20.537  0.00  0.00    +0.051 C 
ATOM      8  C   UNL     1      35.412 -18.333 -22.884  0.00  0.00    +0.016 C 
ATOM      9  C   UNL     1      35.193 -19.199 -21.809  0.00  0.00    +0.016 C 
ATOM     10  H   UNL     1      35.708 -15.959 -24.444  0.00  0.00    +0.152 HD
ENDROOT
BRANCH   7  12
ATOM     11  O   UNL     1      32.657 -20.633 -20.058  0.00  0.00    -0.270 OA
ATOM     12  N   UNL     1      34.689 -19.599 -19.484  0.00  0.00    -0.280 N 
ATOM     13  C   UNL     1      33.616 -20.481 -19.309  0.00  0.00    +0.250 C 
ATOM     14  H   UNL     1      35.376 -19.608 -18.779  0.00  0.00    +0.155 HD
BRANCH  13  18
ATOM     15  F   UNL     1      31.362 -22.969 -15.828  0.00  0.00    -0.204 F 
ATOM     16  C   UNL     1      34.909 -22.315 -16.308  0.00  0.00    +0.050 C 
ATOM     17  C   UNL     1      34.875 -21.555 -17.478  0.00  0.00    +0.019 C 
ATOM     18  C   UNL     1      33.654 -21.289 -18.061  0.00  0.00    +0.057 C 
ATOM     19  C   UNL     1      33.723 -22.793 -15.751  0.00  0.00    +0.044 C 
ATOM     20  C   UNL     1      32.467 -21.750 -17.531  0.00  0.00    +0.034 C 
ATOM     21  C   UNL     1      32.501 -22.510 -16.363  0.00  0.00    +0.142 C 
BRANCH  16  23
ATOM     22  O   UNL     1      38.548 -22.953 -14.300  0.00  0.00    -0.350 OA
ATOM     23  N   UNL     1      36.134 -22.600 -15.695  0.00  0.00    -0.303 N 
ATOM     24  C   UNL     1      36.168 -23.398 -14.465  0.00  0.00    +0.123 C 
ATOM     25  C   UNL     1      37.225 -21.626 -15.839  0.00  0.00    +0.123 C 
ATOM     26  C   UNL     1      37.562 -23.985 -14.270  0.00  0.00    +0.164 C 
ATOM     27  C   UNL     1      38.562 -22.308 -15.573  0.00  0.00    +0.164 C 
ENDBRANCH  16  23
ENDBRANCH  13  18
ENDBRANCH   7  12
BRANCH   2  28
ATOM     28  C   UNL     1      34.787 -14.044 -20.414  0.00  0.00    +0.032 C 
BRANCH  28  29
ATOM     29  C   UNL     1      33.310 -13.949 -19.974  0.00  0.00    +0.031 C 
BRANCH  29  31
ATOM     30  N   UNL     1      31.559 -10.114 -20.746  0.00  0.00    -0.242 NA
ATOM     31  C   UNL     1      32.694 -12.599 -20.245  0.00  0.00    -0.019 C 
ATOM     32  C   UNL     1      32.905 -11.989 -21.466  0.00  0.00    +0.016 C 
ATOM     33  C   UNL     1      31.928 -11.992 -19.269  0.00  0.00    +0.016 C 
ATOM     34  C   UNL     1      32.317 -10.750 -21.667  0.00  0.00    +0.099 C 
ATOM     35  C   UNL     1      31.383 -10.753 -19.568  0.00  0.00    +0.099 C 
ENDBRANCH  29  31
ENDBRANCH  28  29
ENDBRANCH   2  28
TORSDOF 6
ENDMDL
MODEL 3
REMARK VINA RESULT:     -12.1      3.809     11.105
REMARK  Name = 5326868
REMARK  6 active torsions:
REMARK  status: ('A' for Active; 'I' for Inactive)
REMARK    1  A    between atoms: C_2  and  C_28
REMARK    2  A    between atoms: C_7  and  N_12
REMARK    3  A    between atoms: C_13  and  C_18
REMARK    4  A    between atoms: C_16  and  N_23
REMARK    5  A    between atoms: C_28  and  C_29
REMARK    6  A    between atoms: C_29  and  C_31
REMARK                            x       y       z     vdW  Elec       q    Type
REMARK                         _______ _______ _______ _____ _____    ______ ____
ROOT
ATOM      1  N   UNL     1      33.831 -23.971 -14.108  0.00  0.00    -0.312 N 
ATOM      2  C   UNL     1      35.715 -22.833 -13.823  0.00  0.00    -0.006 C 
ATOM      3  C   UNL     1      35.192 -22.512 -15.107  0.00  0.00    +0.012 C 
ATOM      4  C   UNL     1      34.010 -23.240 -15.261  0.00  0.00    +0.048 C 
ATOM      5  C   UNL     1      34.857 -23.732 -13.233  0.00  0.00    +0.058 C 
ATOM      6  C   UNL     1      35.612 -21.672 -16.157  0.00  0.00    +0.016 C 
ATOM      7  C   UNL     1      34.836 -21.589 -17.318  0.00  0.00    +0.051 C 
ATOM      8  C   UNL     1      33.224 -23.168 -16.417  0.00  0.00    +0.016 C 
ATOM      9  C   UNL     1      33.660 -22.326 -17.444  0.00  0.00    +0.016 C 
ATOM     10  H   UNL     1      33.075 -24.578 -13.938  0.00  0.00    +0.152 HD
ENDROOT
BRANCH   7  12
ATOM     11  O   UNL     1      33.237 -20.269 -19.484  0.00  0.00    -0.270 OA
ATOM     12  N   UNL     1      35.246 -20.758 -18.363  0.00  0.00    -0.280 N 
ATOM     13  C   UNL     1      34.453 -20.165 -19.353  0.00  0.00    +0.250 C 
ATOM     14  H   UNL     1      36.210 -20.566 -18.409  0.00  0.00    +0.155 HD
BRANCH  13  18
ATOM     15  F   UNL     1      38.557 -18.206 -20.997  0.00  0.00    -0.204 F 
ATOM     16  C   UNL     1      35.185 -18.043 -22.353  0.00  0.00    +0.050 C 
ATOM     17  C   UNL     1      34.492 -18.807 -21.413  0.00  0.00    +0.019 C 
ATOM     18  C   UNL     1      35.189 -19.349 -20.354  0.00  0.00    +0.057 C 
ATOM     19  C   UNL     1      36.557 -17.840 -22.212  0.00  0.00    +0.044 C 
ATOM     20  C   UNL     1      36.546 -19.164 -20.192  0.00  0.00    +0.034 C 
ATOM     21  C   UNL     1      37.239 -18.401 -21.131  0.00  0.00    +0.142 C 
BRANCH  16  23
ATOM     22  O   UNL     1      33.372 -16.362 -25.755  0.00  0.00    -0.350 OA
ATOM     23  N   UNL     1      34.502 -17.481 -23.437  0.00  0.00    -0.303 N 
ATOM     24  C   UNL     1      33.966 -18.348 -24.493  0.00  0.00    +0.123 C 
ATOM     25  C   UNL     1      34.883 -16.130 -23.871  0.00  0.00    +0.123 C 
ATOM     26  C   UNL     1      32.879 -17.607 -25.264  0.00  0.00    +0.164 C 
ATOM     27  C   UNL     1      33.745 -15.507 -24.673  0.00  0.00    +0.164 C 
ENDBRANCH  16  23
ENDBRANCH  13  18
ENDBRANCH   7  12
BRANCH   2  28
ATOM     28  C   UNL     1      36.955 -22.302 -13.222  0.00  0.00    +0.032 C 
BRANCH  28  29
ATOM     29  C   UNL     1      37.635 -23.252 -12.211  0.00  0.00    +0.031 C 
BRANCH  29  31
ATOM     30  N   UNL     1      40.012 -26.289 -14.081  0.00  0.00    -0.242 NA
ATOM     31  C   UNL     1      38.472 -24.321 -12.869  0.00  0.00    -0.019 C 
ATOM     32  C   UNL     1      37.888 -25.525 -13.212  0.00  0.00    +0.016 C 
ATOM     33  C   UNL     1      39.809 -24.081 -13.118  0.00  0.00    +0.016 C 
ATOM     34  C   UNL     1      38.699 -26.474 -13.815  0.00  0.00    +0.099 C 
ATOM     35  C   UNL     1      40.534 -25.094 -13.724  0.00  0.00    +0.099 C 
ENDBRANCH  29  31
ENDBRANCH  28  29
ENDBRANCH   2  28
TORSDOF 6
ENDMDL
MODEL 4
REMARK VINA RESULT:     -11.9      3.428     10.141
REMARK  Name = 5326868
REMARK  6 active torsions:
REMARK  status: ('A' for Active; 'I' for Inactive)
REMARK    1  A    between atoms: C_2  and  C_28
REMARK    2  A    between atoms: C_7  and  N_12
REMARK    3  A    between atoms: C_13  and  C_18
REMARK    4  A    between atoms: C_16  and  N_23
REMARK    5  A    between atoms: C_28  and  C_29
REMARK    6  A    between atoms: C_29  and  C_31
REMARK                            x       y       z     vdW  Elec       q    Type
REMARK                         _______ _______ _______ _____ _____    ______ ____
ROOT
ATOM      1  N   UNL     1      35.999 -22.483 -15.477  0.00  0.00    -0.312 N 
ATOM      2  C   UNL     1      33.924 -22.520 -16.266  0.00  0.00    -0.006 C 
ATOM      3  C   UNL     1      34.730 -21.770 -17.168  0.00  0.00    +0.012 C 
ATOM      4  C   UNL     1      36.026 -21.762 -16.650  0.00  0.00    +0.048 C 
ATOM      5  C   UNL     1      34.732 -22.945 -15.237  0.00  0.00    +0.058 C 
ATOM      6  C   UNL     1      34.479 -21.094 -18.379  0.00  0.00    +0.016 C 
ATOM      7  C   UNL     1      35.532 -20.438 -19.025  0.00  0.00    +0.051 C 
ATOM      8  C   UNL     1      37.089 -21.110 -17.285  0.00  0.00    +0.016 C 
ATOM      9  C   UNL     1      36.817 -20.447 -18.485  0.00  0.00    +0.016 C 
ATOM     10  H   UNL     1      36.776 -22.643 -14.896  0.00  0.00    +0.152 HD
ENDROOT
BRANCH   7  12
ATOM     11  O   UNL     1      36.155 -17.615 -19.821  0.00  0.00    -0.270 OA
ATOM     12  N   UNL     1      35.292 -19.765 -20.225  0.00  0.00    -0.280 N 
ATOM     13  C   UNL     1      35.605 -18.438 -20.546  0.00  0.00    +0.250 C 
ATOM     14  H   UNL     1      34.848 -20.287 -20.931  0.00  0.00    +0.155 HD
BRANCH  13  18
ATOM     15  F   UNL     1      34.521 -19.437 -25.151  0.00  0.00    -0.204 F 
ATOM     16  C   UNL     1      34.579 -16.246 -23.406  0.00  0.00    +0.050 C 
ATOM     17  C   UNL     1      34.965 -16.657 -22.130  0.00  0.00    +0.019 C 
ATOM     18  C   UNL     1      35.194 -17.998 -21.905  0.00  0.00    +0.057 C 
ATOM     19  C   UNL     1      34.429 -17.185 -24.426  0.00  0.00    +0.044 C 
ATOM     20  C   UNL     1      35.052 -18.947 -22.896  0.00  0.00    +0.034 C 
ATOM     21  C   UNL     1      34.666 -18.536 -24.171  0.00  0.00    +0.142 C 
BRANCH  16  23
ATOM     22  O   UNL     1      34.133 -12.143 -24.214  0.00  0.00    -0.350 OA
ATOM     23  N   UNL     1      34.340 -14.891 -23.661  0.00  0.00    -0.303 N 
ATOM     24  C   UNL     1      34.187 -14.424 -25.043  0.00  0.00    +0.123 C 
ATOM     25  C   UNL     1      34.887 -13.901 -22.723  0.00  0.00    +0.123 C 
ATOM     26  C   UNL     1      33.463 -13.081 -25.055  0.00  0.00    +0.164 C 
ATOM     27  C   UNL     1      34.124 -12.588 -22.858  0.00  0.00    +0.164 C 
ENDBRANCH  16  23
ENDBRANCH  13  18
ENDBRANCH   7  12
BRANCH   2  28
ATOM     28  C   UNL     1      32.480 -22.798 -16.401  0.00  0.00    +0.032 C 
BRANCH  28  29
ATOM     29  C   UNL     1      31.684 -22.711 -15.080  0.00  0.00    +0.031 C 
BRANCH  29  31
ATOM     30  N   UNL     1      27.439 -22.630 -15.664  0.00  0.00    -0.242 NA
ATOM     31  C   UNL     1      30.190 -22.682 -15.286  0.00  0.00    -0.019 C 
ATOM     32  C   UNL     1      29.602 -23.607 -16.126  0.00  0.00    +0.016 C 
ATOM     33  C   UNL     1      29.432 -21.731 -14.631  0.00  0.00    +0.016 C 
ATOM     34  C   UNL     1      28.227 -23.539 -16.281  0.00  0.00    +0.099 C 
ATOM     35  C   UNL     1      28.063 -21.746 -14.853  0.00  0.00    +0.099 C 
ENDBRANCH  29  31
ENDBRANCH  28  29
ENDBRANCH   2  28
TORSDOF 6
ENDMDL
MODEL 5
REMARK VINA RESULT:     -11.8      4.366     11.237
REMARK  Name = 5326868
REMARK  6 active torsions:
REMARK  status: ('A' for Active; 'I' for Inactive)
REMARK    1  A    between atoms: C_2  and  C_28
REMARK    2  A    between atoms: C_7  and  N_12
REMARK    3  A    between atoms: C_13  and  C_18
REMARK    4  A    between atoms: C_16  and  N_23
REMARK    5  A    between atoms: C_28  and  C_29
REMARK    6  A    between atoms: C_29  and  C_31
REMARK                            x       y       z     vdW  Elec       q    Type
REMARK                         _______ _______ _______ _____ _____    ______ ____
ROOT
ATOM      1  N   UNL     1      35.186 -17.326 -24.122  0.00  0.00    -0.312 N 
ATOM      2  C   UNL     1      35.584 -17.202 -21.941  0.00  0.00    -0.006 C 
ATOM      3  C   UNL     1      34.963 -15.989 -22.350  0.00  0.00    +0.012 C 
ATOM      4  C   UNL     1      34.725 -16.092 -23.722  0.00  0.00    +0.048 C 
ATOM      5  C   UNL     1      35.707 -18.004 -23.052  0.00  0.00    +0.058 C 
ATOM      6  C   UNL     1      34.581 -14.807 -21.683  0.00  0.00    +0.016 C 
ATOM      7  C   UNL     1      33.975 -13.778 -22.410  0.00  0.00    +0.051 C 
ATOM      8  C   UNL     1      34.120 -15.070 -24.463  0.00  0.00    +0.016 C 
ATOM      9  C   UNL     1      33.749 -13.908 -23.779  0.00  0.00    +0.016 C 
ATOM     10  H   UNL     1      35.147 -17.671 -25.042  0.00  0.00    +0.152 HD
ENDROOT
BRANCH   7  12
ATOM     11  O   UNL     1      31.882 -13.321 -20.313  0.00  0.00    -0.270 OA
ATOM     12  N   UNL     1      33.595 -12.604 -21.757  0.00  0.00    -0.280 N 
ATOM     13  C   UNL     1      32.604 -12.445 -20.779  0.00  0.00    +0.250 C 
ATOM     14  H   UNL     1      34.081 -11.788 -22.015  0.00  0.00    +0.155 HD
BRANCH  13  18
ATOM     15  F   UNL     1      32.039  -9.294 -17.155  0.00  0.00    -0.204 F 
ATOM     16  C   UNL     1      32.156  -8.725 -20.747  0.00  0.00    +0.050 C 
ATOM     17  C   UNL     1      32.336 -10.030 -21.208  0.00  0.00    +0.019 C 
ATOM     18  C   UNL     1      32.410 -11.055 -20.289  0.00  0.00    +0.057 C 
ATOM     19  C   UNL     1      32.056  -8.477 -19.378  0.00  0.00    +0.044 C 
ATOM     20  C   UNL     1      32.315 -10.836 -18.930  0.00  0.00    +0.034 C 
ATOM     21  C   UNL     1      32.135  -9.533 -18.469  0.00  0.00    +0.142 C 
BRANCH  16  23
ATOM     22  O   UNL     1      32.192  -5.497 -23.441  0.00  0.00    -0.350 OA
ATOM     23  N   UNL     1      32.078  -7.666 -21.657  0.00  0.00    -0.303 N 
ATOM     24  C   UNL     1      32.436  -7.882 -23.063  0.00  0.00    +0.123 C 
ATOM     25  C   UNL     1      32.305  -6.303 -21.156  0.00  0.00    +0.123 C 
ATOM     26  C   UNL     1      31.818  -6.786 -23.926  0.00  0.00    +0.164 C 
ATOM     27  C   UNL     1      31.692  -5.293 -22.119  0.00  0.00    +0.164 C 
ENDBRANCH  16  23
ENDBRANCH  13  18
ENDBRANCH   7  12
BRANCH   2  28
ATOM     28  C   UNL     1      36.021 -17.548 -20.573  0.00  0.00    +0.032 C 
BRANCH  28  29
ATOM     29  C   UNL     1      36.384 -19.036 -20.374  0.00  0.00    +0.031 C 
BRANCH  29  31
ATOM     30  N   UNL     1      33.177 -21.354 -18.727  0.00  0.00    -0.242 NA
ATOM     31  C   UNL     1      35.255 -19.852 -19.795  0.00  0.00    -0.019 C 
ATOM     32  C   UNL     1      35.543 -20.905 -18.949  0.00  0.00    +0.016 C 
ATOM     33  C   UNL     1      33.950 -19.535 -20.119  0.00  0.00    +0.016 C 
ATOM     34  C   UNL     1      34.471 -21.623 -18.442  0.00  0.00    +0.099 C 
ATOM     35  C   UNL     1      32.949 -20.314 -19.560  0.00  0.00    +0.099 C 
ENDBRANCH  29  31
ENDBRANCH  28  29
ENDBRANCH   2  28
TORSDOF 6
ENDMDL
MODEL 6
REMARK VINA RESULT:     -11.7      5.102     11.678
REMARK  Name = 5326868
REMARK  6 active torsions:
REMARK  status: ('A' for Active; 'I' for Inactive)
REMARK    1  A    between atoms: C_2  and  C_28
REMARK    2  A    between atoms: C_7  and  N_12
REMARK    3  A    between atoms: C_13  and  C_18
REMARK    4  A    between atoms: C_16  and  N_23
REMARK    5  A    between atoms: C_28  and  C_29
REMARK    6  A    between atoms: C_29  and  C_31
REMARK                            x       y       z     vdW  Elec       q    Type
REMARK                         _______ _______ _______ _____ _____    ______ ____
ROOT
ATOM      1  N   UNL     1      34.282 -18.228 -24.185  0.00  0.00    -0.312 N 
ATOM      2  C   UNL     1      35.275 -17.404 -22.378  0.00  0.00    -0.006 C 
ATOM      3  C   UNL     1      34.832 -16.314 -23.179  0.00  0.00    +0.012 C 
ATOM      4  C   UNL     1      34.214 -16.859 -24.306  0.00  0.00    +0.048 C 
ATOM      5  C   UNL     1      34.921 -18.568 -23.022  0.00  0.00    +0.058 C 
ATOM      6  C   UNL     1      34.901 -14.912 -23.054  0.00  0.00    +0.016 C 
ATOM      7  C   UNL     1      34.348 -14.109 -24.057  0.00  0.00    +0.051 C 
ATOM      8  C   UNL     1      33.656 -16.068 -25.318  0.00  0.00    +0.016 C 
ATOM      9  C   UNL     1      33.735 -14.680 -25.171  0.00  0.00    +0.016 C 
ATOM     10  H   UNL     1      33.923 -18.870 -24.838  0.00  0.00    +0.152 HD
ENDROOT
BRANCH   7  12
ATOM     11  O   UNL     1      32.834 -12.244 -22.263  0.00  0.00    -0.270 OA
ATOM     12  N   UNL     1      34.412 -12.719 -23.941  0.00  0.00    -0.280 N 
ATOM     13  C   UNL     1      33.678 -11.892 -23.081  0.00  0.00    +0.250 C 
ATOM     14  H   UNL     1      35.051 -12.265 -24.536  0.00  0.00    +0.155 HD
BRANCH  13  18
ATOM     15  F   UNL     1      35.969  -8.208 -25.216  0.00  0.00    -0.204 F 
ATOM     16  C   UNL     1      33.552  -8.193 -22.497  0.00  0.00    +0.050 C 
ATOM     17  C   UNL     1      33.297  -9.559 -22.372  0.00  0.00    +0.019 C 
ATOM     18  C   UNL     1      33.951 -10.437 -23.211  0.00  0.00    +0.057 C 
ATOM     19  C   UNL     1      34.455  -7.737 -23.457  0.00  0.00    +0.044 C 
ATOM     20  C   UNL     1      34.848 -10.012 -24.169  0.00  0.00    +0.034 C 
ATOM     21  C   UNL     1      35.103  -8.647 -24.293  0.00  0.00    +0.142 C 
BRANCH  16  23
ATOM     22  O   UNL     1      31.829  -5.298 -19.981  0.00  0.00    -0.350 OA
ATOM     23  N   UNL     1      32.902  -7.281 -21.659  0.00  0.00    -0.303 N 
ATOM     24  C   UNL     1      32.239  -6.105 -22.233  0.00  0.00    +0.123 C 
ATOM     25  C   UNL     1      33.416  -7.106 -20.293  0.00  0.00    +0.123 C 
ATOM     26  C   UNL     1      31.216  -5.556 -21.244  0.00  0.00    +0.164 C 
ATOM     27  C   UNL     1      32.329  -6.506 -19.408  0.00  0.00    +0.164 C 
ENDBRANCH  16  23
ENDBRANCH  13  18
ENDBRANCH   7  12
BRANCH   2  28
ATOM     28  C   UNL     1      35.985 -17.314 -21.087  0.00  0.00    +0.032 C 
BRANCH  28  29
ATOM     29  C   UNL     1      36.734 -18.601 -20.676  0.00  0.00    +0.031 C 
BRANCH  29  31
ATOM     30  N   UNL     1      34.329 -21.289 -18.359  0.00  0.00    -0.242 NA
ATOM     31  C   UNL     1      35.888 -19.547 -19.860  0.00  0.00    -0.019 C 
ATOM     32  C   UNL     1      34.514 -19.524 -20.001  0.00  0.00    +0.016 C 
ATOM     33  C   UNL     1      36.499 -20.423 -18.984  0.00  0.00    +0.016 C 
ATOM     34  C   UNL     1      33.781 -20.412 -19.231  0.00  0.00    +0.099 C 
ATOM     35  C   UNL     1      35.678 -21.271 -18.258  0.00  0.00    +0.099 C 
ENDBRANCH  29  31
ENDBRANCH  28  29
ENDBRANCH   2  28
TORSDOF 6
ENDMDL
MODEL 7
REMARK VINA RESULT:     -11.2      3.672     10.850
REMARK  Name = 5326868
REMARK  6 active torsions:
REMARK  status: ('A' for Active; 'I' for Inactive)
REMARK    1  A    between atoms: C_2  and  C_28
REMARK    2  A    between atoms: C_7  and  N_12
REMARK    3  A    between atoms: C_13  and  C_18
REMARK    4  A    between atoms: C_16  and  N_23
REMARK    5  A    between atoms: C_28  and  C_29
REMARK    6  A    between atoms: C_29  and  C_31
REMARK                            x       y       z     vdW  Elec       q    Type
REMARK                         _______ _______ _______ _____ _____    ______ ____
ROOT
ATOM      1  N   UNL     1      32.862 -24.045 -14.520  0.00  0.00    -0.312 N 
ATOM      2  C   UNL     1      35.071 -24.003 -14.740  0.00  0.00    -0.006 C 
ATOM      3  C   UNL     1      34.510 -23.121 -15.706  0.00  0.00    +0.012 C 
ATOM      4  C   UNL     1      33.123 -23.166 -15.547  0.00  0.00    +0.048 C 
ATOM      5  C   UNL     1      34.033 -24.556 -14.026  0.00  0.00    +0.058 C 
ATOM      6  C   UNL     1      35.051 -22.287 -16.706  0.00  0.00    +0.016 C 
ATOM      7  C   UNL     1      34.187 -21.530 -17.504  0.00  0.00    +0.051 C 
ATOM      8  C   UNL     1      32.247 -22.415 -16.339  0.00  0.00    +0.016 C 
ATOM      9  C   UNL     1      32.807 -21.594 -17.322  0.00  0.00    +0.016 C 
ATOM     10  H   UNL     1      31.964 -24.273 -14.188  0.00  0.00    +0.152 HD
ENDROOT
BRANCH   7  12
ATOM     11  O   UNL     1      32.889 -20.355 -19.938  0.00  0.00    -0.270 OA
ATOM     12  N   UNL     1      34.715 -20.702 -18.497  0.00  0.00    -0.280 N 
ATOM     13  C   UNL     1      34.061 -20.178 -19.619  0.00  0.00    +0.250 C 
ATOM     14  H   UNL     1      35.662 -20.456 -18.395  0.00  0.00    +0.155 HD
BRANCH  13  18
ATOM     15  F   UNL     1      38.362 -18.354 -20.866  0.00  0.00    -0.204 F 
ATOM     16  C   UNL     1      35.102 -17.920 -22.422  0.00  0.00    +0.050 C 
ATOM     17  C   UNL     1      34.309 -18.700 -21.580  0.00  0.00    +0.019 C 
ATOM     18  C   UNL     1      34.904 -19.345 -20.516  0.00  0.00    +0.057 C 
ATOM     19  C   UNL     1      36.471 -17.803 -22.180  0.00  0.00    +0.044 C 
ATOM     20  C   UNL     1      36.255 -19.246 -20.256  0.00  0.00    +0.034 C 
ATOM     21  C   UNL     1      37.048 -18.466 -21.097  0.00  0.00    +0.142 C 
BRANCH  16  23
ATOM     22  O   UNL     1      33.607 -15.949 -25.823  0.00  0.00    -0.350 OA
ATOM     23  N   UNL     1      34.524 -17.255 -23.509  0.00  0.00    -0.303 N 
ATOM     24  C   UNL     1      33.943 -18.027 -24.613  0.00  0.00    +0.123 C 
ATOM     25  C   UNL     1      35.058 -15.937 -23.879  0.00  0.00    +0.123 C 
ATOM     26  C   UNL     1      32.969 -17.152 -25.395  0.00  0.00    +0.164 C 
ATOM     27  C   UNL     1      34.023 -15.174 -24.698  0.00  0.00    +0.164 C 
ENDBRANCH  16  23
ENDBRANCH  13  18
ENDBRANCH   7  12
BRANCH   2  28
ATOM     28  C   UNL     1      36.506 -24.282 -14.534  0.00  0.00    +0.032 C 
BRANCH  28  29
ATOM     29  C   UNL     1      36.837 -24.980 -13.196  0.00  0.00    +0.031 C 
BRANCH  29  31
ATOM     30  N   UNL     1      37.162 -22.254  -9.904  0.00  0.00    -0.242 NA
ATOM     31  C   UNL     1      36.951 -24.021 -12.037  0.00  0.00    -0.019 C 
ATOM     32  C   UNL     1      37.866 -22.987 -12.098  0.00  0.00    +0.016 C 
ATOM     33  C   UNL     1      36.140 -24.190 -10.931  0.00  0.00    +0.016 C 
ATOM     34  C   UNL     1      37.932 -22.133 -11.009  0.00  0.00    +0.099 C 
ATOM     35  C   UNL     1      36.283 -23.282  -9.894  0.00  0.00    +0.099 C 
ENDBRANCH  29  31
ENDBRANCH  28  29
ENDBRANCH   2  28
TORSDOF 6
ENDMDL
MODEL 8
REMARK VINA RESULT:     -11.0      3.669     10.566
REMARK  Name = 5326868
REMARK  6 active torsions:
REMARK  status: ('A' for Active; 'I' for Inactive)
REMARK    1  A    between atoms: C_2  and  C_28
REMARK    2  A    between atoms: C_7  and  N_12
REMARK    3  A    between atoms: C_13  and  C_18
REMARK    4  A    between atoms: C_16  and  N_23
REMARK    5  A    between atoms: C_28  and  C_29
REMARK    6  A    between atoms: C_29  and  C_31
REMARK                            x       y       z     vdW  Elec       q    Type
REMARK                         _______ _______ _______ _____ _____    ______ ____
ROOT
ATOM      1  N   UNL     1      37.102 -20.870 -19.265  0.00  0.00    -0.312 N 
ATOM      2  C   UNL     1      34.919 -20.516 -19.073  0.00  0.00    -0.006 C 
ATOM      3  C   UNL     1      35.475 -19.460 -19.848  0.00  0.00    +0.012 C 
ATOM      4  C   UNL     1      36.845 -19.706 -19.953  0.00  0.00    +0.048 C 
ATOM      5  C   UNL     1      35.944 -21.367 -18.729  0.00  0.00    +0.058 C 
ATOM      6  C   UNL     1      34.941 -18.314 -20.471  0.00  0.00    +0.016 C 
ATOM      7  C   UNL     1      35.797 -17.460 -21.175  0.00  0.00    +0.051 C 
ATOM      8  C   UNL     1      37.713 -18.860 -20.653  0.00  0.00    +0.016 C 
ATOM      9  C   UNL     1      37.161 -17.730 -21.264  0.00  0.00    +0.016 C 
ATOM     10  H   UNL     1      37.989 -21.285 -19.171  0.00  0.00    +0.152 HD
ENDROOT
BRANCH   7  12
ATOM     11  O   UNL     1      35.077 -14.786 -20.025  0.00  0.00    -0.270 OA
ATOM     12  N   UNL     1      35.277 -16.321 -21.795  0.00  0.00    -0.280 N 
ATOM     13  C   UNL     1      34.956 -15.091 -21.208  0.00  0.00    +0.250 C 
ATOM     14  H   UNL     1      35.115 -16.393 -22.763  0.00  0.00    +0.155 HD
BRANCH  13  18
ATOM     15  F   UNL     1      33.721 -13.660 -25.658  0.00  0.00    -0.204 F 
ATOM     16  C   UNL     1      33.406 -11.925 -22.477  0.00  0.00    +0.050 C 
ATOM     17  C   UNL     1      33.940 -12.878 -21.609  0.00  0.00    +0.019 C 
ATOM     18  C   UNL     1      34.389 -14.073 -22.131  0.00  0.00    +0.057 C 
ATOM     19  C   UNL     1      33.332 -12.189 -23.844  0.00  0.00    +0.044 C 
ATOM     20  C   UNL     1      34.326 -14.360 -23.479  0.00  0.00    +0.034 C 
ATOM     21  C   UNL     1      33.793 -13.407 -24.346  0.00  0.00    +0.142 C 
BRANCH  16  23
ATOM     22  O   UNL     1      31.825  -8.254 -21.169  0.00  0.00    -0.350 OA
ATOM     23  N   UNL     1      32.944 -10.704 -21.974  0.00  0.00    -0.303 N 
ATOM     24  C   UNL     1      31.809 -10.678 -21.045  0.00  0.00    +0.123 C 
ATOM     25  C   UNL     1      33.090  -9.508 -22.815  0.00  0.00    +0.123 C 
ATOM     26  C   UNL     1      31.807  -9.364 -20.271  0.00  0.00    +0.164 C 
ATOM     27  C   UNL     1      33.022  -8.257 -21.947  0.00  0.00    +0.164 C 
ENDBRANCH  16  23
ENDBRANCH  13  18
ENDBRANCH   7  12
BRANCH   2  28
ATOM     28  C   UNL     1      33.499 -20.679 -18.700  0.00  0.00    +0.032 C 
BRANCH  28  29
ATOM     29  C   UNL     1      33.103 -22.118 -18.302  0.00  0.00    +0.031 C 
BRANCH  29  31
ATOM     30  N   UNL     1      32.578 -22.623 -14.078  0.00  0.00    -0.242 NA
ATOM     31  C   UNL     1      32.918 -22.295 -16.815  0.00  0.00    -0.019 C 
ATOM     32  C   UNL     1      31.651 -22.211 -16.273  0.00  0.00    +0.016 C 
ATOM     33  C   UNL     1      34.019 -22.539 -16.018  0.00  0.00    +0.016 C 
ATOM     34  C   UNL     1      31.534 -22.382 -14.903  0.00  0.00    +0.099 C 
ATOM     35  C   UNL     1      33.797 -22.695 -14.658  0.00  0.00    +0.099 C 
ENDBRANCH  29  31
ENDBRANCH  28  29
ENDBRANCH   2  28
TORSDOF 6
ENDMDL
MODEL 9
REMARK VINA RESULT:     -11.0      3.539     10.980
REMARK  Name = 5326868
REMARK  6 active torsions:
REMARK  status: ('A' for Active; 'I' for Inactive)
REMARK    1  A    between atoms: C_2  and  C_28
REMARK    2  A    between atoms: C_7  and  N_12
REMARK    3  A    between atoms: C_13  and  C_18
REMARK    4  A    between atoms: C_16  and  N_23
REMARK    5  A    between atoms: C_28  and  C_29
REMARK    6  A    between atoms: C_29  and  C_31
REMARK                            x       y       z     vdW  Elec       q    Type
REMARK                         _______ _______ _______ _____ _____    ______ ____
ROOT
ATOM      1  N   UNL     1      34.172 -23.481 -14.809  0.00  0.00    -0.312 N 
ATOM      2  C   UNL     1      36.154 -22.562 -15.207  0.00  0.00    -0.006 C 
ATOM      3  C   UNL     1      35.258 -22.152 -16.234  0.00  0.00    +0.012 C 
ATOM      4  C   UNL     1      34.023 -22.743 -15.961  0.00  0.00    +0.048 C 
ATOM      5  C   UNL     1      35.457 -23.378 -14.345  0.00  0.00    +0.058 C 
ATOM      6  C   UNL     1      35.381 -21.333 -17.375  0.00  0.00    +0.016 C 
ATOM      7  C   UNL     1      34.266 -21.136 -18.196  0.00  0.00    +0.051 C 
ATOM      8  C   UNL     1      32.899 -22.554 -16.774  0.00  0.00    +0.016 C 
ATOM      9  C   UNL     1      33.045 -21.737 -17.899  0.00  0.00    +0.016 C 
ATOM     10  H   UNL     1      33.459 -24.006 -14.380  0.00  0.00    +0.152 HD
ENDROOT
BRANCH   7  12
ATOM     11  O   UNL     1      36.528 -19.393 -19.112  0.00  0.00    -0.270 OA
ATOM     12  N   UNL     1      34.380 -20.326 -19.329  0.00  0.00    -0.280 N 
ATOM     13  C   UNL     1      35.466 -19.528 -19.711  0.00  0.00    +0.250 C 
ATOM     14  H   UNL     1      33.603 -20.315 -19.932  0.00  0.00    +0.155 HD
BRANCH  13  18
ATOM     15  F   UNL     1      35.053 -19.334 -24.525  0.00  0.00    -0.204 F 
ATOM     16  C   UNL     1      34.940 -16.659 -22.063  0.00  0.00    +0.050 C 
ATOM     17  C   UNL     1      35.120 -17.385 -20.885  0.00  0.00    +0.019 C 
ATOM     18  C   UNL     1      35.275 -18.753 -20.965  0.00  0.00    +0.057 C 
ATOM     19  C   UNL     1      34.917 -17.317 -23.292  0.00  0.00    +0.044 C 
ATOM     20  C   UNL     1      35.256 -19.428 -22.168  0.00  0.00    +0.034 C 
ATOM     21  C   UNL     1      35.076 -18.703 -23.345  0.00  0.00    +0.142 C 
BRANCH  16  23
ATOM     22  O   UNL     1      34.729 -12.464 -21.851  0.00  0.00    -0.350 OA
ATOM     23  N   UNL     1      34.780 -15.270 -22.011  0.00  0.00    -0.303 N 
ATOM     24  C   UNL     1      35.061 -14.456 -23.198  0.00  0.00    +0.123 C 
ATOM     25  C   UNL     1      34.996 -14.595 -20.724  0.00  0.00    +0.123 C 
ATOM     26  C   UNL     1      34.365 -13.105 -23.073  0.00  0.00    +0.164 C 
ATOM     27  C   UNL     1      34.301 -13.238 -20.731  0.00  0.00    +0.164 C 
ENDBRANCH  16  23
ENDBRANCH  13  18
ENDBRANCH   7  12
BRANCH   2  28
ATOM     28  C   UNL     1      37.576 -22.185 -15.078  0.00  0.00    +0.032 C 
BRANCH  28  29
ATOM     29  C   UNL     1      38.533 -23.372 -14.831  0.00  0.00    +0.031 C 
BRANCH  29  31
ATOM     30  N   UNL     1      37.588 -25.594 -11.289  0.00  0.00    -0.242 NA
ATOM     31  C   UNL     1      38.201 -24.154 -13.584  0.00  0.00    -0.019 C 
ATOM     32  C   UNL     1      38.231 -23.521 -12.357  0.00  0.00    +0.016 C 
ATOM     33  C   UNL     1      37.871 -25.491 -13.688  0.00  0.00    +0.016 C 
ATOM     34  C   UNL     1      37.918 -24.283 -11.242  0.00  0.00    +0.099 C 
ATOM     35  C   UNL     1      37.574 -26.166 -12.514  0.00  0.00    +0.099 C 
ENDBRANCH  29  31
ENDBRANCH  28  29
ENDBRANCH   2  28
TORSDOF 6
ENDMDL
