MODEL 1
REMARK VINA RESULT:     -12.5      0.000      0.000
REMARK  Name = 24941248
REMARK  7 active torsions:
REMARK  status: ('A' for Active; 'I' for Inactive)
REMARK    1  A    between atoms: N_2  and  C_24
REMARK    2  A    between atoms: C_6  and  C_14
REMARK    3  A    between atoms: C_13  and  C_19
REMARK    4  A    between atoms: C_19  and  C_20
REMARK    5  A    between atoms: C_20  and  C_21
REMARK    6  A    between atoms: C_21  and  O_22
REMARK    7  A    between atoms: C_24  and  C_26
REMARK                            x       y       z     vdW  Elec       q    Type
REMARK                         _______ _______ _______ _____ _____    ______ ____
ROOT
ATOM      1  O   UNL     1      31.740 -23.529 -14.304  0.00  0.00    -0.352 OA
ATOM      2  N   UNL     1      34.682 -21.364 -18.321  0.00  0.00    -0.316 N 
ATOM      3  N   UNL     1      32.706 -23.943 -13.396  0.00  0.00    -0.077 NA
ATOM      4  N   UNL     1      32.525 -21.896 -17.465  0.00  0.00    -0.226 NA
ATOM      5  C   UNL     1      33.720 -22.984 -15.201  0.00  0.00    +0.062 A 
ATOM      6  C   UNL     1      33.877 -23.610 -13.948  0.00  0.00    +0.123 A 
ATOM      7  C   UNL     1      33.872 -21.919 -17.296  0.00  0.00    +0.129 C 
ATOM      8  C   UNL     1      34.540 -22.444 -16.194  0.00  0.00    +0.039 C 
ATOM      9  C   UNL     1      32.348 -22.959 -15.378  0.00  0.00    +0.196 A 
ATOM     10  C   UNL     1      31.737 -22.422 -16.496  0.00  0.00    +0.140 C 
ATOM     11  H   UNL     1      35.661 -21.374 -18.209  0.00  0.00    +0.148 HD
ENDROOT
BRANCH   6  14
ATOM     12 CL   UNL     1      36.748 -23.165  -9.689  0.00  0.00    -0.082 Cl
ATOM     13  C   UNL     1      37.305 -24.908 -13.246  0.00  0.00    -0.021 C 
ATOM     14  C   UNL     1      35.111 -23.898 -13.265  0.00  0.00    +0.021 C 
ATOM     15  C   UNL     1      36.109 -24.629 -13.908  0.00  0.00    -0.003 C 
ATOM     16  C   UNL     1      37.502 -24.455 -11.942  0.00  0.00    +0.007 C 
ATOM     17  C   UNL     1      35.308 -23.445 -11.961  0.00  0.00    +0.013 C 
ATOM     18  C   UNL     1      36.504 -23.724 -11.299  0.00  0.00    +0.057 C 
BRANCH  13  19
ATOM     19  C   UNL     1      38.372 -25.692 -13.933  0.00  0.00    +0.029 C 
BRANCH  19  20
ATOM     20  C   UNL     1      39.775 -25.331 -13.427  0.00  0.00    +0.036 C 
BRANCH  20  21
ATOM     21  C   UNL     1      40.591 -24.592 -14.478  0.00  0.00    +0.138 C 
BRANCH  21  22
ATOM     22  O   UNL     1      40.626 -25.373 -15.665  0.00  0.00    -0.382 OA
ATOM     23  H   UNL     1      40.154 -26.207 -15.516  0.00  0.00    +0.210 HD
ENDBRANCH  21  22
ENDBRANCH  20  21
ENDBRANCH  19  20
ENDBRANCH  13  19
ENDBRANCH   6  14
BRANCH   2  24
ATOM     24  C   UNL     1      34.136 -20.792 -19.507  0.00  0.00    +0.093 C 
ATOM     25  C   UNL     1      32.785 -20.156 -19.190  0.00  0.00    +0.026 C 
BRANCH  24  26
ATOM     26  C   UNL     1      35.119 -19.818 -20.119  0.00  0.00    -0.005 C 
ATOM     27  C   UNL     1      34.713 -18.971 -21.149  0.00  0.00    -0.003 C 
ATOM     28  C   UNL     1      36.433 -19.767 -19.652  0.00  0.00    -0.003 C 
ATOM     29  C   UNL     1      35.619 -18.074 -21.714  0.00  0.00    -0.000 C 
ATOM     30  C   UNL     1      37.339 -18.870 -20.216  0.00  0.00    -0.000 C 
ATOM     31  C   UNL     1      36.932 -18.022 -21.247  0.00  0.00    -0.000 C 
ENDBRANCH  24  26
ENDBRANCH   2  24
TORSDOF 7
ENDMDL
MODEL 2
REMARK VINA RESULT:     -12.2      7.548     12.670
REMARK  Name = 24941248
REMARK  7 active torsions:
REMARK  status: ('A' for Active; 'I' for Inactive)
REMARK    1  A    between atoms: N_2  and  C_24
REMARK    2  A    between atoms: C_6  and  C_14
REMARK    3  A    between atoms: C_13  and  C_19
REMARK    4  A    between atoms: C_19  and  C_20
REMARK    5  A    between atoms: C_20  and  C_21
REMARK    6  A    between atoms: C_21  and  O_22
REMARK    7  A    between atoms: C_24  and  C_26
REMARK                            x       y       z     vdW  Elec       q    Type
REMARK                         _______ _______ _______ _____ _____    ______ ____
ROOT
ATOM      1  O   UNL     1      34.028 -15.048 -25.621  0.00  0.00    -0.352 OA
ATOM      2  N   UNL     1      35.676 -17.348 -20.987  0.00  0.00    -0.316 N 
ATOM      3  N   UNL     1      33.617 -13.785 -25.215  0.00  0.00    -0.077 NA
ATOM      4  N   UNL     1      35.361 -17.555 -23.338  0.00  0.00    -0.226 NA
ATOM      5  C   UNL     1      34.364 -14.959 -23.407  0.00  0.00    +0.062 A 
ATOM      6  C   UNL     1      33.824 -13.752 -23.895  0.00  0.00    +0.123 A 
ATOM      7  C   UNL     1      35.257 -16.788 -22.222  0.00  0.00    +0.129 C 
ATOM      8  C   UNL     1      34.770 -15.485 -22.179  0.00  0.00    +0.039 C 
ATOM      9  C   UNL     1      34.472 -15.744 -24.541  0.00  0.00    +0.196 A 
ATOM     10  C   UNL     1      34.966 -17.035 -24.526  0.00  0.00    +0.140 C 
ATOM     11  H   UNL     1      35.606 -16.801 -20.171  0.00  0.00    +0.148 HD
ENDROOT
BRANCH   6  14
ATOM     12 CL   UNL     1      34.163  -8.633 -23.383  0.00  0.00    -0.082 Cl
ATOM     13  C   UNL     1      32.444 -11.533 -21.230  0.00  0.00    -0.021 C 
ATOM     14  C   UNL     1      33.503 -12.571 -23.137  0.00  0.00    +0.021 C 
ATOM     15  C   UNL     1      32.756 -12.677 -21.964  0.00  0.00    -0.003 C 
ATOM     16  C   UNL     1      32.880 -10.282 -21.669  0.00  0.00    +0.007 C 
ATOM     17  C   UNL     1      33.939 -11.320 -23.576  0.00  0.00    +0.013 C 
ATOM     18  C   UNL     1      33.626 -10.176 -22.842  0.00  0.00    +0.057 C 
BRANCH  13  19
ATOM     19  C   UNL     1      31.644 -11.646 -19.977  0.00  0.00    +0.029 C 
BRANCH  19  20
ATOM     20  C   UNL     1      31.183 -10.279 -19.456  0.00  0.00    +0.036 C 
BRANCH  20  21
ATOM     21  C   UNL     1      31.855  -9.908 -18.142  0.00  0.00    +0.138 C 
BRANCH  21  22
ATOM     22  O   UNL     1      32.701  -8.787 -18.359  0.00  0.00    -0.382 OA
ATOM     23  H   UNL     1      33.542  -9.086 -18.737  0.00  0.00    +0.210 HD
ENDBRANCH  21  22
ENDBRANCH  20  21
ENDBRANCH  19  20
ENDBRANCH  13  19
ENDBRANCH   6  14
BRANCH   2  24
ATOM     24  C   UNL     1      36.194 -18.672 -20.879  0.00  0.00    +0.093 C 
ATOM     25  C   UNL     1      37.604 -18.621 -20.296  0.00  0.00    +0.026 C 
BRANCH  24  26
ATOM     26  C   UNL     1      35.251 -19.538 -20.073  0.00  0.00    -0.005 C 
ATOM     27  C   UNL     1      33.873 -19.409 -20.235  0.00  0.00    -0.003 C 
ATOM     28  C   UNL     1      35.762 -20.468 -19.167  0.00  0.00    -0.003 C 
ATOM     29  C   UNL     1      33.004 -20.207 -19.490  0.00  0.00    -0.000 C 
ATOM     30  C   UNL     1      34.894 -21.266 -18.422  0.00  0.00    -0.000 C 
ATOM     31  C   UNL     1      33.515 -21.137 -18.585  0.00  0.00    -0.000 C 
ENDBRANCH  24  26
ENDBRANCH   2  24
TORSDOF 7
ENDMDL
MODEL 3
REMARK VINA RESULT:     -11.9      7.758     12.989
REMARK  Name = 24941248
REMARK  7 active torsions:
REMARK  status: ('A' for Active; 'I' for Inactive)
REMARK    1  A    between atoms: N_2  and  C_24
REMARK    2  A    between atoms: C_6  and  C_14
REMARK    3  A    between atoms: C_13  and  C_19
REMARK    4  A    between atoms: C_19  and  C_20
REMARK    5  A    between atoms: C_20  and  C_21
REMARK    6  A    between atoms: C_21  and  O_22
REMARK    7  A    between atoms: C_24  and  C_26
REMARK                            x       y       z     vdW  Elec       q    Type
REMARK                         _______ _______ _______ _____ _____    ______ ____
ROOT
ATOM      1  O   UNL     1      33.942 -14.078 -25.288  0.00  0.00    -0.352 OA
ATOM      2  N   UNL     1      35.526 -17.062 -21.037  0.00  0.00    -0.316 N 
ATOM      3  N   UNL     1      33.444 -12.925 -24.694  0.00  0.00    -0.077 NA
ATOM      4  N   UNL     1      35.320 -16.874 -23.402  0.00  0.00    -0.226 NA
ATOM      5  C   UNL     1      34.182 -14.357 -23.077  0.00  0.00    +0.062 A 
ATOM      6  C   UNL     1      33.595 -13.112 -23.379  0.00  0.00    +0.123 A 
ATOM      7  C   UNL     1      35.127 -16.318 -22.178  0.00  0.00    +0.129 C 
ATOM      8  C   UNL     1      34.566 -15.067 -21.938  0.00  0.00    +0.039 C 
ATOM      9  C   UNL     1      34.381 -14.928 -24.322  0.00  0.00    +0.196 A 
ATOM     10  C   UNL     1      34.945 -16.177 -24.502  0.00  0.00    +0.140 C 
ATOM     11  H   UNL     1      35.392 -16.668 -20.144  0.00  0.00    +0.148 HD
ENDROOT
BRANCH   6  14
ATOM     12 CL   UNL     1      31.694 -11.923 -18.736  0.00  0.00    -0.082 Cl
ATOM     13  C   UNL     1      32.850  -9.767 -21.901  0.00  0.00    -0.021 C 
ATOM     14  C   UNL     1      33.177 -12.096 -22.448  0.00  0.00    +0.021 C 
ATOM     15  C   UNL     1      33.255 -10.750 -22.803  0.00  0.00    -0.003 C 
ATOM     16  C   UNL     1      32.367 -10.130 -20.643  0.00  0.00    +0.007 C 
ATOM     17  C   UNL     1      32.694 -12.459 -21.190  0.00  0.00    +0.013 C 
ATOM     18  C   UNL     1      32.290 -11.476 -20.288  0.00  0.00    +0.057 C 
BRANCH  13  19
ATOM     19  C   UNL     1      32.934  -8.327 -22.280  0.00  0.00    +0.029 C 
BRANCH  19  20
ATOM     20  C   UNL     1      32.399  -7.403 -21.178  0.00  0.00    +0.036 C 
BRANCH  20  21
ATOM     21  C   UNL     1      33.517  -6.682 -20.439  0.00  0.00    +0.138 C 
BRANCH  21  22
ATOM     22  O   UNL     1      33.507  -7.091 -19.078  0.00  0.00    -0.382 OA
ATOM     23  H   UNL     1      32.736  -7.656 -18.917  0.00  0.00    +0.210 HD
ENDBRANCH  21  22
ENDBRANCH  20  21
ENDBRANCH  19  20
ENDBRANCH  13  19
ENDBRANCH   6  14
BRANCH   2  24
ATOM     24  C   UNL     1      36.113 -18.357 -21.131  0.00  0.00    +0.093 C 
ATOM     25  C   UNL     1      37.600 -18.268 -20.795  0.00  0.00    +0.026 C 
BRANCH  24  26
ATOM     26  C   UNL     1      35.366 -19.336 -20.251  0.00  0.00    -0.005 C 
ATOM     27  C   UNL     1      36.069 -20.185 -19.399  0.00  0.00    -0.003 C 
ATOM     28  C   UNL     1      33.972 -19.387 -20.292  0.00  0.00    -0.003 C 
ATOM     29  C   UNL     1      35.381 -21.088 -18.587  0.00  0.00    -0.000 C 
ATOM     30  C   UNL     1      33.284 -20.288 -19.481  0.00  0.00    -0.000 C 
ATOM     31  C   UNL     1      33.987 -21.138 -18.628  0.00  0.00    -0.000 C 
ENDBRANCH  24  26
ENDBRANCH   2  24
TORSDOF 7
ENDMDL
MODEL 4
REMARK VINA RESULT:     -11.9      7.568     12.891
REMARK  Name = 24941248
REMARK  7 active torsions:
REMARK  status: ('A' for Active; 'I' for Inactive)
REMARK    1  A    between atoms: N_2  and  C_24
REMARK    2  A    between atoms: C_6  and  C_14
REMARK    3  A    between atoms: C_13  and  C_19
REMARK    4  A    between atoms: C_19  and  C_20
REMARK    5  A    between atoms: C_20  and  C_21
REMARK    6  A    between atoms: C_21  and  O_22
REMARK    7  A    between atoms: C_24  and  C_26
REMARK                            x       y       z     vdW  Elec       q    Type
REMARK                         _______ _______ _______ _____ _____    ______ ____
ROOT
ATOM      1  O   UNL     1      34.015 -15.077 -25.616  0.00  0.00    -0.352 OA
ATOM      2  N   UNL     1      35.681 -17.343 -20.972  0.00  0.00    -0.316 N 
ATOM      3  N   UNL     1      33.609 -13.809 -25.219  0.00  0.00    -0.077 NA
ATOM      4  N   UNL     1      35.353 -17.569 -23.320  0.00  0.00    -0.226 NA
ATOM      5  C   UNL     1      34.363 -14.970 -23.405  0.00  0.00    +0.062 A 
ATOM      6  C   UNL     1      33.824 -13.766 -23.900  0.00  0.00    +0.123 A 
ATOM      7  C   UNL     1      35.257 -16.792 -22.210  0.00  0.00    +0.129 C 
ATOM      8  C   UNL     1      34.774 -15.487 -22.175  0.00  0.00    +0.039 C 
ATOM      9  C   UNL     1      34.463 -15.766 -24.533  0.00  0.00    +0.196 A 
ATOM     10  C   UNL     1      34.952 -17.058 -24.510  0.00  0.00    +0.140 C 
ATOM     11  H   UNL     1      35.617 -16.789 -20.160  0.00  0.00    +0.148 HD
ENDROOT
BRANCH   6  14
ATOM     12 CL   UNL     1      31.622 -11.644 -19.750  0.00  0.00    -0.082 Cl
ATOM     13  C   UNL     1      33.613 -10.178 -22.894  0.00  0.00    -0.021 C 
ATOM     14  C   UNL     1      33.510 -12.578 -23.151  0.00  0.00    +0.021 C 
ATOM     15  C   UNL     1      33.916 -11.330 -23.621  0.00  0.00    -0.003 C 
ATOM     16  C   UNL     1      32.903 -10.276 -21.697  0.00  0.00    +0.007 C 
ATOM     17  C   UNL     1      32.801 -12.676 -21.954  0.00  0.00    +0.013 C 
ATOM     18  C   UNL     1      32.498 -11.524 -21.227  0.00  0.00    +0.057 C 
BRANCH  13  19
ATOM     19  C   UNL     1      34.048  -8.843 -23.396  0.00  0.00    +0.029 C 
BRANCH  19  20
ATOM     20  C   UNL     1      35.546  -8.806 -23.728  0.00  0.00    +0.036 C 
BRANCH  20  21
ATOM     21  C   UNL     1      35.802  -8.454 -25.186  0.00  0.00    +0.138 C 
BRANCH  21  22
ATOM     22  O   UNL     1      35.796  -9.650 -25.955  0.00  0.00    -0.382 OA
ATOM     23  H   UNL     1      34.947  -9.733 -26.416  0.00  0.00    +0.210 HD
ENDBRANCH  21  22
ENDBRANCH  20  21
ENDBRANCH  19  20
ENDBRANCH  13  19
ENDBRANCH   6  14
BRANCH   2  24
ATOM     24  C   UNL     1      36.195 -18.668 -20.856  0.00  0.00    +0.093 C 
ATOM     25  C   UNL     1      37.600 -18.617 -20.260  0.00  0.00    +0.026 C 
BRANCH  24  26
ATOM     26  C   UNL     1      35.244 -19.531 -20.056  0.00  0.00    -0.005 C 
ATOM     27  C   UNL     1      35.744 -20.471 -19.157  0.00  0.00    -0.003 C 
ATOM     28  C   UNL     1      33.866 -19.385 -20.218  0.00  0.00    -0.003 C 
ATOM     29  C   UNL     1      34.866 -21.268 -18.420  0.00  0.00    -0.000 C 
ATOM     30  C   UNL     1      32.989 -20.180 -19.482  0.00  0.00    -0.000 C 
ATOM     31  C   UNL     1      33.489 -21.121 -18.582  0.00  0.00    -0.000 C 
ENDBRANCH  24  26
ENDBRANCH   2  24
TORSDOF 7
ENDMDL
MODEL 5
REMARK VINA RESULT:     -11.2      3.672      8.648
REMARK  Name = 24941248
REMARK  7 active torsions:
REMARK  status: ('A' for Active; 'I' for Inactive)
REMARK    1  A    between atoms: N_2  and  C_24
REMARK    2  A    between atoms: C_6  and  C_14
REMARK    3  A    between atoms: C_13  and  C_19
REMARK    4  A    between atoms: C_19  and  C_20
REMARK    5  A    between atoms: C_20  and  C_21
REMARK    6  A    between atoms: C_21  and  O_22
REMARK    7  A    between atoms: C_24  and  C_26
REMARK                            x       y       z     vdW  Elec       q    Type
REMARK                         _______ _______ _______ _____ _____    ______ ____
ROOT
ATOM      1  O   UNL     1      34.045 -21.811 -17.781  0.00  0.00    -0.352 OA
ATOM      2  N   UNL     1      35.849 -22.819 -12.760  0.00  0.00    -0.316 N 
ATOM      3  N   UNL     1      32.681 -22.052 -17.679  0.00  0.00    -0.077 NA
ATOM      4  N   UNL     1      36.361 -22.164 -14.992  0.00  0.00    -0.226 NA
ATOM      5  C   UNL     1      33.672 -22.417 -15.656  0.00  0.00    +0.062 A 
ATOM      6  C   UNL     1      32.480 -22.412 -16.407  0.00  0.00    +0.123 A 
ATOM      7  C   UNL     1      35.424 -22.545 -14.086  0.00  0.00    +0.129 C 
ATOM      8  C   UNL     1      34.064 -22.692 -14.345  0.00  0.00    +0.039 C 
ATOM      9  C   UNL     1      34.632 -22.030 -16.574  0.00  0.00    +0.196 A 
ATOM     10  C   UNL     1      35.972 -21.898 -16.262  0.00  0.00    +0.140 C 
ATOM     11  H   UNL     1      35.178 -23.095 -12.095  0.00  0.00    +0.148 HD
ENDROOT
BRANCH   6  14
ATOM     12 CL   UNL     1      29.425 -25.573 -13.712  0.00  0.00    -0.082 Cl
ATOM     13  C   UNL     1      28.794 -22.247 -15.844  0.00  0.00    -0.021 C 
ATOM     14  C   UNL     1      31.157 -22.740 -15.944  0.00  0.00    +0.021 C 
ATOM     15  C   UNL     1      30.076 -21.931 -16.293  0.00  0.00    -0.003 C 
ATOM     16  C   UNL     1      28.593 -23.374 -15.046  0.00  0.00    +0.007 C 
ATOM     17  C   UNL     1      30.956 -23.866 -15.146  0.00  0.00    +0.013 C 
ATOM     18  C   UNL     1      29.674 -24.183 -14.697  0.00  0.00    +0.057 C 
BRANCH  13  19
ATOM     19  C   UNL     1      27.638 -21.382 -16.216  0.00  0.00    +0.029 C 
BRANCH  19  20
ATOM     20  C   UNL     1      26.967 -21.836 -17.519  0.00  0.00    +0.036 C 
BRANCH  20  21
ATOM     21  C   UNL     1      25.935 -20.833 -18.013  0.00  0.00    +0.138 C 
BRANCH  21  22
ATOM     22  O   UNL     1      26.116 -19.607 -17.316  0.00  0.00    -0.382 OA
ATOM     23  H   UNL     1      26.148 -18.876 -17.952  0.00  0.00    +0.210 HD
ENDBRANCH  21  22
ENDBRANCH  20  21
ENDBRANCH  19  20
ENDBRANCH  13  19
ENDBRANCH   6  14
BRANCH   2  24
ATOM     24  C   UNL     1      37.211 -22.712 -12.353  0.00  0.00    +0.093 C 
ATOM     25  C   UNL     1      37.276 -22.523 -10.839  0.00  0.00    +0.026 C 
BRANCH  24  26
ATOM     26  C   UNL     1      37.997 -23.912 -12.833  0.00  0.00    -0.005 C 
ATOM     27  C   UNL     1      39.385 -23.839 -12.943  0.00  0.00    -0.003 C 
ATOM     28  C   UNL     1      37.333 -25.094 -13.165  0.00  0.00    -0.003 C 
ATOM     29  C   UNL     1      40.110 -24.946 -13.386  0.00  0.00    -0.000 C 
ATOM     30  C   UNL     1      38.057 -26.200 -13.608  0.00  0.00    -0.000 C 
ATOM     31  C   UNL     1      39.446 -26.127 -13.718  0.00  0.00    -0.000 C 
ENDBRANCH  24  26
ENDBRANCH   2  24
TORSDOF 7
ENDMDL
MODEL 6
REMARK VINA RESULT:     -11.0      2.205      2.855
REMARK  Name = 24941248
REMARK  7 active torsions:
REMARK  status: ('A' for Active; 'I' for Inactive)
REMARK    1  A    between atoms: N_2  and  C_24
REMARK    2  A    between atoms: C_6  and  C_14
REMARK    3  A    between atoms: C_13  and  C_19
REMARK    4  A    between atoms: C_19  and  C_20
REMARK    5  A    between atoms: C_20  and  C_21
REMARK    6  A    between atoms: C_21  and  O_22
REMARK    7  A    between atoms: C_24  and  C_26
REMARK                            x       y       z     vdW  Elec       q    Type
REMARK                         _______ _______ _______ _____ _____    ______ ____
ROOT
ATOM      1  O   UNL     1      32.161 -23.425 -14.852  0.00  0.00    -0.352 OA
ATOM      2  N   UNL     1      34.768 -20.946 -18.919  0.00  0.00    -0.316 N 
ATOM      3  N   UNL     1      33.197 -23.850 -14.029  0.00  0.00    -0.077 NA
ATOM      4  N   UNL     1      32.688 -21.602 -17.961  0.00  0.00    -0.226 NA
ATOM      5  C   UNL     1      34.061 -22.762 -15.838  0.00  0.00    +0.062 A 
ATOM      6  C   UNL     1      34.318 -23.446 -14.634  0.00  0.00    +0.123 A 
ATOM      7  C   UNL     1      34.044 -21.583 -17.878  0.00  0.00    +0.129 C 
ATOM      8  C   UNL     1      34.798 -22.141 -16.849  0.00  0.00    +0.039 C 
ATOM      9  C   UNL     1      32.681 -22.778 -15.929  0.00  0.00    +0.196 A 
ATOM     10  C   UNL     1      31.982 -22.206 -16.975  0.00  0.00    +0.140 C 
ATOM     11  H   UNL     1      35.751 -20.926 -18.868  0.00  0.00    +0.148 HD
ENDROOT
BRANCH   6  14
ATOM     12 CL   UNL     1      38.586 -26.338 -14.561  0.00  0.00    -0.082 Cl
ATOM     13  C   UNL     1      37.313 -23.209 -12.419  0.00  0.00    -0.021 C 
ATOM     14  C   UNL     1      35.602 -23.723 -14.045  0.00  0.00    +0.021 C 
ATOM     15  C   UNL     1      36.068 -22.941 -12.989  0.00  0.00    -0.003 C 
ATOM     16  C   UNL     1      38.091 -24.260 -12.906  0.00  0.00    +0.007 C 
ATOM     17  C   UNL     1      36.381 -24.774 -14.531  0.00  0.00    +0.013 C 
ATOM     18  C   UNL     1      37.625 -25.042 -13.962  0.00  0.00    +0.057 C 
BRANCH  13  19
ATOM     19  C   UNL     1      37.813 -22.372 -11.290  0.00  0.00    +0.029 C 
BRANCH  19  20
ATOM     20  C   UNL     1      36.986 -22.565 -10.013  0.00  0.00    +0.036 C 
BRANCH  20  21
ATOM     21  C   UNL     1      35.938 -23.658 -10.168  0.00  0.00    +0.138 C 
BRANCH  21  22
ATOM     22  O   UNL     1      35.537 -24.097  -8.877  0.00  0.00    -0.382 OA
ATOM     23  H   UNL     1      35.463 -23.333  -8.285  0.00  0.00    +0.210 HD
ENDBRANCH  21  22
ENDBRANCH  20  21
ENDBRANCH  19  20
ENDBRANCH  13  19
ENDBRANCH   6  14
BRANCH   2  24
ATOM     24  C   UNL     1      34.128 -20.334 -20.036  0.00  0.00    +0.093 C 
ATOM     25  C   UNL     1      32.829 -19.675 -19.581  0.00  0.00    +0.026 C 
BRANCH  24  26
ATOM     26  C   UNL     1      35.074 -19.368 -20.716  0.00  0.00    -0.005 C 
ATOM     27  C   UNL     1      34.687 -18.720 -21.887  0.00  0.00    -0.003 C 
ATOM     28  C   UNL     1      36.335 -19.125 -20.169  0.00  0.00    -0.003 C 
ATOM     29  C   UNL     1      35.559 -17.829 -22.514  0.00  0.00    -0.000 C 
ATOM     30  C   UNL     1      37.207 -18.236 -20.796  0.00  0.00    -0.000 C 
ATOM     31  C   UNL     1      36.819 -17.587 -21.967  0.00  0.00    -0.000 C 
ENDBRANCH  24  26
ENDBRANCH   2  24
TORSDOF 7
ENDMDL
MODEL 7
REMARK VINA RESULT:     -10.6      2.859      4.439
REMARK  Name = 24941248
REMARK  7 active torsions:
REMARK  status: ('A' for Active; 'I' for Inactive)
REMARK    1  A    between atoms: N_2  and  C_24
REMARK    2  A    between atoms: C_6  and  C_14
REMARK    3  A    between atoms: C_13  and  C_19
REMARK    4  A    between atoms: C_19  and  C_20
REMARK    5  A    between atoms: C_20  and  C_21
REMARK    6  A    between atoms: C_21  and  O_22
REMARK    7  A    between atoms: C_24  and  C_26
REMARK                            x       y       z     vdW  Elec       q    Type
REMARK                         _______ _______ _______ _____ _____    ______ ____
ROOT
ATOM      1  O   UNL     1      32.184 -21.601 -18.406  0.00  0.00    -0.352 OA
ATOM      2  N   UNL     1      36.247 -18.749 -20.604  0.00  0.00    -0.316 N 
ATOM      3  N   UNL     1      32.768 -22.161 -17.277  0.00  0.00    -0.077 NA
ATOM      4  N   UNL     1      33.971 -19.436 -20.728  0.00  0.00    -0.226 NA
ATOM      5  C   UNL     1      34.311 -20.895 -18.384  0.00  0.00    +0.062 A 
ATOM      6  C   UNL     1      34.033 -21.729 -17.283  0.00  0.00    +0.123 A 
ATOM      7  C   UNL     1      35.156 -19.479 -20.066  0.00  0.00    +0.129 C 
ATOM      8  C   UNL     1      35.400 -20.185 -18.892  0.00  0.00    +0.039 C 
ATOM      9  C   UNL     1      33.106 -20.848 -19.063  0.00  0.00    +0.196 A 
ATOM     10  C   UNL     1      32.918 -20.128 -20.228  0.00  0.00    +0.140 C 
ATOM     11  H   UNL     1      37.112 -18.772 -20.132  0.00  0.00    +0.148 HD
ENDROOT
BRANCH   6  14
ATOM     12 CL   UNL     1      38.897 -22.262 -15.658  0.00  0.00    -0.082 Cl
ATOM     13  C   UNL     1      35.323 -22.996 -14.018  0.00  0.00    -0.021 C 
ATOM     14  C   UNL     1      34.941 -22.124 -16.238  0.00  0.00    +0.021 C 
ATOM     15  C   UNL     1      34.444 -22.614 -15.031  0.00  0.00    -0.003 C 
ATOM     16  C   UNL     1      36.701 -22.887 -14.212  0.00  0.00    +0.007 C 
ATOM     17  C   UNL     1      36.318 -22.015 -16.432  0.00  0.00    +0.013 C 
ATOM     18  C   UNL     1      37.198 -22.396 -15.419  0.00  0.00    +0.057 C 
BRANCH  13  19
ATOM     19  C   UNL     1      34.792 -23.520 -12.727  0.00  0.00    +0.029 C 
BRANCH  19  20
ATOM     20  C   UNL     1      35.668 -23.121 -11.532  0.00  0.00    +0.036 C 
BRANCH  20  21
ATOM     21  C   UNL     1      36.010 -24.311 -10.649  0.00  0.00    +0.138 C 
BRANCH  21  22
ATOM     22  O   UNL     1      35.638 -24.012  -9.310  0.00  0.00    -0.382 OA
ATOM     23  H   UNL     1      36.039 -24.660  -8.711  0.00  0.00    +0.210 HD
ENDBRANCH  21  22
ENDBRANCH  20  21
ENDBRANCH  19  20
ENDBRANCH  13  19
ENDBRANCH   6  14
BRANCH   2  24
ATOM     24  C   UNL     1      36.144 -17.982 -21.802  0.00  0.00    +0.093 C 
ATOM     25  C   UNL     1      35.293 -18.740 -22.819  0.00  0.00    +0.026 C 
BRANCH  24  26
ATOM     26  C   UNL     1      35.607 -16.601 -21.494  0.00  0.00    -0.005 C 
ATOM     27  C   UNL     1      35.345 -15.708 -22.532  0.00  0.00    -0.003 C 
ATOM     28  C   UNL     1      35.373 -16.222 -20.172  0.00  0.00    -0.003 C 
ATOM     29  C   UNL     1      34.850 -14.434 -22.248  0.00  0.00    -0.000 C 
ATOM     30  C   UNL     1      34.879 -14.950 -19.888  0.00  0.00    -0.000 C 
ATOM     31  C   UNL     1      34.617 -14.056 -20.926  0.00  0.00    -0.000 C 
ENDBRANCH  24  26
ENDBRANCH   2  24
TORSDOF 7
ENDMDL
MODEL 8
REMARK VINA RESULT:     -10.4      3.508      6.254
REMARK  Name = 24941248
REMARK  7 active torsions:
REMARK  status: ('A' for Active; 'I' for Inactive)
REMARK    1  A    between atoms: N_2  and  C_24
REMARK    2  A    between atoms: C_6  and  C_14
REMARK    3  A    between atoms: C_13  and  C_19
REMARK    4  A    between atoms: C_19  and  C_20
REMARK    5  A    between atoms: C_20  and  C_21
REMARK    6  A    between atoms: C_21  and  O_22
REMARK    7  A    between atoms: C_24  and  C_26
REMARK                            x       y       z     vdW  Elec       q    Type
REMARK                         _______ _______ _______ _____ _____    ______ ____
ROOT
ATOM      1  O   UNL     1      37.107 -21.914 -16.785  0.00  0.00    -0.352 OA
ATOM      2  N   UNL     1      34.415 -19.296 -20.707  0.00  0.00    -0.316 N 
ATOM      3  N   UNL     1      36.087 -22.442 -16.003  0.00  0.00    -0.077 NA
ATOM      4  N   UNL     1      36.516 -19.915 -19.772  0.00  0.00    -0.226 NA
ATOM      5  C   UNL     1      35.184 -21.277 -17.746  0.00  0.00    +0.062 A 
ATOM      6  C   UNL     1      34.952 -22.051 -16.591  0.00  0.00    +0.123 A 
ATOM      7  C   UNL     1      35.161 -19.966 -19.702  0.00  0.00    +0.129 C 
ATOM      8  C   UNL     1      34.427 -20.626 -18.721  0.00  0.00    +0.039 C 
ATOM      9  C   UNL     1      36.565 -21.221 -17.822  0.00  0.00    +0.196 A 
ATOM     10  C   UNL     1      37.243 -20.550 -18.822  0.00  0.00    +0.140 C 
ATOM     11  H   UNL     1      33.431 -19.327 -20.666  0.00  0.00    +0.148 HD
ENDROOT
BRANCH   6  14
ATOM     12 CL   UNL     1      32.321 -24.493 -12.890  0.00  0.00    -0.082 Cl
ATOM     13  C   UNL     1      31.264 -22.393 -16.127  0.00  0.00    -0.021 C 
ATOM     14  C   UNL     1      33.678 -22.427 -16.036  0.00  0.00    +0.021 C 
ATOM     15  C   UNL     1      32.498 -22.029 -16.665  0.00  0.00    -0.003 C 
ATOM     16  C   UNL     1      31.210 -23.155 -14.959  0.00  0.00    +0.007 C 
ATOM     17  C   UNL     1      33.623 -23.189 -14.868  0.00  0.00    +0.013 C 
ATOM     18  C   UNL     1      32.389 -23.552 -14.330  0.00  0.00    +0.057 C 
BRANCH  13  19
ATOM     19  C   UNL     1      30.003 -21.967 -16.798  0.00  0.00    +0.029 C 
BRANCH  19  20
ATOM     20  C   UNL     1      28.789 -22.776 -16.322  0.00  0.00    +0.036 C 
BRANCH  20  21
ATOM     21  C   UNL     1      27.771 -21.908 -15.596  0.00  0.00    +0.138 C 
BRANCH  21  22
ATOM     22  O   UNL     1      27.316 -20.894 -16.482  0.00  0.00    -0.382 OA
ATOM     23  H   UNL     1      27.301 -20.043 -16.018  0.00  0.00    +0.210 HD
ENDBRANCH  21  22
ENDBRANCH  20  21
ENDBRANCH  19  20
ENDBRANCH  13  19
ENDBRANCH   6  14
BRANCH   2  24
ATOM     24  C   UNL     1      35.032 -18.577 -21.772  0.00  0.00    +0.093 C 
ATOM     25  C   UNL     1      34.343 -18.927 -23.088  0.00  0.00    +0.026 C 
BRANCH  24  26
ATOM     26  C   UNL     1      35.024 -17.093 -21.476  0.00  0.00    -0.005 C 
ATOM     27  C   UNL     1      34.999 -16.645 -20.157  0.00  0.00    -0.003 C 
ATOM     28  C   UNL     1      35.042 -16.173 -22.525  0.00  0.00    -0.003 C 
ATOM     29  C   UNL     1      34.990 -15.277 -19.884  0.00  0.00    -0.000 C 
ATOM     30  C   UNL     1      35.034 -14.806 -22.253  0.00  0.00    -0.000 C 
ATOM     31  C   UNL     1      35.009 -14.357 -20.932  0.00  0.00    -0.000 C 
ENDBRANCH  24  26
ENDBRANCH   2  24
TORSDOF 7
ENDMDL
MODEL 9
REMARK VINA RESULT:     -10.3     10.089     13.740
REMARK  Name = 24941248
REMARK  7 active torsions:
REMARK  status: ('A' for Active; 'I' for Inactive)
REMARK    1  A    between atoms: N_2  and  C_24
REMARK    2  A    between atoms: C_6  and  C_14
REMARK    3  A    between atoms: C_13  and  C_19
REMARK    4  A    between atoms: C_19  and  C_20
REMARK    5  A    between atoms: C_20  and  C_21
REMARK    6  A    between atoms: C_21  and  O_22
REMARK    7  A    between atoms: C_24  and  C_26
REMARK                            x       y       z     vdW  Elec       q    Type
REMARK                         _______ _______ _______ _____ _____    ______ ____
ROOT
ATOM      1  O   UNL     1      31.851 -12.703 -18.735  0.00  0.00    -0.352 OA
ATOM      2  N   UNL     1      32.418  -8.076 -21.520  0.00  0.00    -0.316 N 
ATOM      3  N   UNL     1      32.445 -13.644 -19.567  0.00  0.00    -0.077 NA
ATOM      4  N   UNL     1      31.621  -9.161 -19.556  0.00  0.00    -0.226 NA
ATOM      5  C   UNL     1      32.563 -11.585 -20.543  0.00  0.00    +0.062 A 
ATOM      6  C   UNL     1      32.861 -12.959 -20.637  0.00  0.00    +0.123 A 
ATOM      7  C   UNL     1      32.248  -9.260 -20.756  0.00  0.00    +0.129 C 
ATOM      8  C   UNL     1      32.745 -10.435 -21.314  0.00  0.00    +0.039 C 
ATOM      9  C   UNL     1      31.924 -11.477 -19.320  0.00  0.00    +0.196 A 
ATOM     10  C   UNL     1      31.450 -10.282 -18.814  0.00  0.00    +0.140 C 
ATOM     11  H   UNL     1      32.873  -8.136 -22.392  0.00  0.00    +0.148 HD
ENDROOT
BRANCH   6  14
ATOM     12 CL   UNL     1      33.708 -13.375 -25.705  0.00  0.00    -0.082 Cl
ATOM     13  C   UNL     1      35.045 -15.349 -22.493  0.00  0.00    -0.021 C 
ATOM     14  C   UNL     1      33.532 -13.634 -21.717  0.00  0.00    +0.021 C 
ATOM     15  C   UNL     1      34.394 -14.696 -21.447  0.00  0.00    -0.003 C 
ATOM     16  C   UNL     1      34.832 -14.940 -23.810  0.00  0.00    +0.007 C 
ATOM     17  C   UNL     1      33.319 -13.225 -23.034  0.00  0.00    +0.013 C 
ATOM     18  C   UNL     1      33.970 -13.878 -24.080  0.00  0.00    +0.057 C 
BRANCH  13  19
ATOM     19  C   UNL     1      35.968 -16.484 -22.205  0.00  0.00    +0.029 C 
BRANCH  19  20
ATOM     20  C   UNL     1      35.241 -17.835 -22.190  0.00  0.00    +0.036 C 
BRANCH  20  21
ATOM     21  C   UNL     1      35.211 -18.454 -20.800  0.00  0.00    +0.138 C 
BRANCH  21  22
ATOM     22  O   UNL     1      35.972 -17.640 -19.918  0.00  0.00    -0.382 OA
ATOM     23  H   UNL     1      35.878 -16.710 -20.175  0.00  0.00    +0.210 HD
ENDBRANCH  21  22
ENDBRANCH  20  21
ENDBRANCH  19  20
ENDBRANCH  13  19
ENDBRANCH   6  14
BRANCH   2  24
ATOM     24  C   UNL     1      31.958  -6.802 -21.076  0.00  0.00    +0.093 C 
ATOM     25  C   UNL     1      32.814  -6.334 -19.901  0.00  0.00    +0.026 C 
BRANCH  24  26
ATOM     26  C   UNL     1      31.946  -5.820 -22.227  0.00  0.00    -0.005 C 
ATOM     27  C   UNL     1      32.072  -4.454 -21.979  0.00  0.00    -0.003 C 
ATOM     28  C   UNL     1      31.809  -6.281 -23.536  0.00  0.00    -0.003 C 
ATOM     29  C   UNL     1      32.060  -3.548 -23.040  0.00  0.00    -0.000 C 
ATOM     30  C   UNL     1      31.796  -5.376 -24.597  0.00  0.00    -0.000 C 
ATOM     31  C   UNL     1      31.923  -4.010 -24.349  0.00  0.00    -0.000 C 
ENDBRANCH  24  26
ENDBRANCH   2  24
TORSDOF 7
ENDMDL
