MODEL 1
REMARK VINA RESULT:     -12.4      0.000      0.000
REMARK  Name = 448903
REMARK  11 active torsions:
REMARK  status: ('A' for Active; 'I' for Inactive)
REMARK    1  A    between atoms: N_1  and  C_22
REMARK    2  A    between atoms: C_8  and  N_11
REMARK    3  A    between atoms: C_12  and  C_14
REMARK    4  A    between atoms: C_14  and  C_15
REMARK    5  A    between atoms: C_15  and  C_16
REMARK    6  A    between atoms: C_22  and  C_23
REMARK    7  A    between atoms: C_23  and  C_24
REMARK    8  A    between atoms: C_24  and  N_25
REMARK    9  A    between atoms: C_24  and  C_35
REMARK   10  A    between atoms: C_29  and  C_32
REMARK   11  A    between atoms: C_35  and  O_36
REMARK                            x       y       z     vdW  Elec       q    Type
REMARK                         _______ _______ _______ _____ _____    ______ ____
ROOT
ATOM      1  N   UNL     1      33.213 -23.820 -13.721  0.00  0.00    -0.286 N 
ATOM      2  C   UNL     1      32.516 -23.211 -14.741  0.00  0.00    +0.053 C 
ATOM      3  C   UNL     1      31.157 -23.401 -14.479  0.00  0.00    +0.015 C 
ATOM      4  C   UNL     1      32.345 -24.385 -12.827  0.00  0.00    +0.065 C 
ATOM      5  C   UNL     1      31.065 -24.143 -13.268  0.00  0.00    +0.017 C 
ATOM      6  C   UNL     1      32.980 -22.515 -15.863  0.00  0.00    +0.029 C 
ATOM      7  C   UNL     1      30.213 -22.871 -15.381  0.00  0.00    +0.003 C 
ATOM      8  C   UNL     1      32.024 -21.997 -16.743  0.00  0.00    +0.052 C 
ATOM      9  C   UNL     1      30.661 -22.171 -16.507  0.00  0.00    +0.015 C 
ENDROOT
BRANCH   8  11
ATOM     10  O   UNL     1      34.716 -21.875 -18.076  0.00  0.00    -0.275 OA
ATOM     11  N   UNL     1      32.443 -21.294 -17.873  0.00  0.00    -0.284 N 
ATOM     12  C   UNL     1      33.713 -21.283 -18.464  0.00  0.00    +0.226 C 
ATOM     13  H   UNL     1      31.761 -20.735 -18.311  0.00  0.00    +0.155 HD
BRANCH  12  14
ATOM     14  C   UNL     1      33.776 -20.387 -19.691  0.00  0.00    +0.090 C 
BRANCH  14  15
ATOM     15  C   UNL     1      35.162 -19.763 -19.864  0.00  0.00    +0.036 C 
BRANCH  15  16
ATOM     16  C   UNL     1      35.196 -18.656 -20.890  0.00  0.00    -0.022 C 
ATOM     17  C   UNL     1      35.571 -17.367 -20.513  0.00  0.00    -0.004 C 
ATOM     18  C   UNL     1      34.853 -18.924 -22.216  0.00  0.00    -0.004 C 
ATOM     19  C   UNL     1      35.603 -16.344 -21.461  0.00  0.00    -0.000 C 
ATOM     20  C   UNL     1      34.885 -17.901 -23.163  0.00  0.00    -0.000 C 
ATOM     21  C   UNL     1      35.259 -16.611 -22.786  0.00  0.00    -0.000 C 
ENDBRANCH  15  16
ENDBRANCH  14  15
ENDBRANCH  12  14
ENDBRANCH   8  11
BRANCH   1  22
ATOM     22  C   UNL     1      34.655 -23.864 -13.598  0.00  0.00    +0.097 C 
BRANCH  22  23
ATOM     23  C   UNL     1      35.197 -23.255 -12.299  0.00  0.00    +0.040 C 
BRANCH  23  24
ATOM     24  C   UNL     1      36.008 -24.224 -11.408  0.00  0.00    +0.091 C 
BRANCH  24  25
ATOM     25  N   UNL     1      37.122 -24.879 -12.114  0.00  0.00    -0.246 NA
ATOM     26  N   UNL     1      38.409 -26.369 -13.142  0.00  0.00    -0.251 NA
ATOM     27  C   UNL     1      38.305 -24.298 -12.497  0.00  0.00    +0.125 C 
ATOM     28  C   UNL     1      37.217 -26.126 -12.517  0.00  0.00    +0.201 C 
ATOM     29  C   UNL     1      39.120 -25.202 -13.136  0.00  0.00    +0.124 C 
BRANCH  29  32
ATOM     30  O   UNL     1      41.012 -23.916 -13.730  0.00  0.00    -0.269 OA
ATOM     31  N   UNL     1      41.081 -26.146 -14.198  0.00  0.00    -0.324 N 
ATOM     32  C   UNL     1      40.419 -25.021 -13.690  0.00  0.00    +0.257 C 
ATOM     33  H   UNL     1      41.980 -26.054 -14.588  0.00  0.00    +0.145 HD
ATOM     34  H   UNL     1      40.646 -27.029 -14.166  0.00  0.00    +0.145 HD
ENDBRANCH  29  32
ENDBRANCH  24  25
BRANCH  24  35
ATOM     35  C   UNL     1      36.519 -23.503 -10.150  0.00  0.00    +0.153 C 
BRANCH  35  36
ATOM     36  O   UNL     1      35.704 -23.849  -9.035  0.00  0.00    -0.381 OA
ATOM     37  H   UNL     1      36.196 -24.442  -8.447  0.00  0.00    +0.210 HD
ENDBRANCH  35  36
ENDBRANCH  24  35
ENDBRANCH  23  24
ENDBRANCH  22  23
ENDBRANCH   1  22
TORSDOF 11
ENDMDL
MODEL 2
REMARK VINA RESULT:     -12.0      3.045      6.911
REMARK  Name = 448903
REMARK  11 active torsions:
REMARK  status: ('A' for Active; 'I' for Inactive)
REMARK    1  A    between atoms: N_1  and  C_22
REMARK    2  A    between atoms: C_8  and  N_11
REMARK    3  A    between atoms: C_12  and  C_14
REMARK    4  A    between atoms: C_14  and  C_15
REMARK    5  A    between atoms: C_15  and  C_16
REMARK    6  A    between atoms: C_22  and  C_23
REMARK    7  A    between atoms: C_23  and  C_24
REMARK    8  A    between atoms: C_24  and  N_25
REMARK    9  A    between atoms: C_24  and  C_35
REMARK   10  A    between atoms: C_29  and  C_32
REMARK   11  A    between atoms: C_35  and  O_36
REMARK                            x       y       z     vdW  Elec       q    Type
REMARK                         _______ _______ _______ _____ _____    ______ ____
ROOT
ATOM      1  N   UNL     1      34.616 -23.383 -14.308  0.00  0.00    -0.286 N 
ATOM      2  C   UNL     1      35.290 -22.654 -15.262  0.00  0.00    +0.053 C 
ATOM      3  C   UNL     1      36.630 -22.607 -14.871  0.00  0.00    +0.015 C 
ATOM      4  C   UNL     1      35.481 -23.798 -13.332  0.00  0.00    +0.065 C 
ATOM      5  C   UNL     1      36.735 -23.334 -13.652  0.00  0.00    +0.017 C 
ATOM      6  C   UNL     1      34.821 -22.039 -16.428  0.00  0.00    +0.029 C 
ATOM      7  C   UNL     1      37.549 -21.912 -15.682  0.00  0.00    +0.003 C 
ATOM      8  C   UNL     1      35.751 -21.356 -17.218  0.00  0.00    +0.052 C 
ATOM      9  C   UNL     1      37.095 -21.293 -16.852  0.00  0.00    +0.015 C 
ENDROOT
BRANCH   8  11
ATOM     10  O   UNL     1      33.089 -21.429 -18.612  0.00  0.00    -0.275 OA
ATOM     11  N   UNL     1      35.325 -20.730 -18.390  0.00  0.00    -0.284 N 
ATOM     12  C   UNL     1      34.063 -20.786 -18.993  0.00  0.00    +0.226 C 
ATOM     13  H   UNL     1      35.998 -20.179 -18.853  0.00  0.00    +0.155 HD
BRANCH  12  14
ATOM     14  C   UNL     1      33.989 -19.964 -20.269  0.00  0.00    +0.090 C 
BRANCH  14  15
ATOM     15  C   UNL     1      35.247 -19.117 -20.470  0.00  0.00    +0.036 C 
BRANCH  15  16
ATOM     16  C   UNL     1      35.138 -18.145 -21.619  0.00  0.00    -0.022 C 
ATOM     17  C   UNL     1      35.536 -16.820 -21.452  0.00  0.00    -0.004 C 
ATOM     18  C   UNL     1      34.639 -18.574 -22.850  0.00  0.00    -0.004 C 
ATOM     19  C   UNL     1      35.435 -15.922 -22.515  0.00  0.00    -0.000 C 
ATOM     20  C   UNL     1      34.538 -17.676 -23.912  0.00  0.00    -0.000 C 
ATOM     21  C   UNL     1      34.936 -16.350 -23.745  0.00  0.00    -0.000 C 
ENDBRANCH  15  16
ENDBRANCH  14  15
ENDBRANCH  12  14
ENDBRANCH   8  11
BRANCH   1  22
ATOM     22  C   UNL     1      33.199 -23.678 -14.321  0.00  0.00    +0.097 C 
BRANCH  22  23
ATOM     23  C   UNL     1      32.297 -22.452 -14.124  0.00  0.00    +0.040 C 
BRANCH  23  24
ATOM     24  C   UNL     1      30.837 -22.768 -13.727  0.00  0.00    +0.091 C 
BRANCH  24  25
ATOM     25  N   UNL     1      29.854 -22.408 -14.762  0.00  0.00    -0.246 NA
ATOM     26  N   UNL     1      28.874 -21.969 -16.706  0.00  0.00    -0.251 NA
ATOM     27  C   UNL     1      28.539 -22.072 -14.562  0.00  0.00    +0.125 C 
ATOM     28  C   UNL     1      30.024 -22.338 -16.064  0.00  0.00    +0.201 C 
ATOM     29  C   UNL     1      27.910 -21.795 -15.753  0.00  0.00    +0.124 C 
BRANCH  29  32
ATOM     30  O   UNL     1      25.626 -21.581 -15.182  0.00  0.00    -0.269 OA
ATOM     31  N   UNL     1      26.268 -20.782 -17.217  0.00  0.00    -0.324 N 
ATOM     32  C   UNL     1      26.561 -21.410 -16.000  0.00  0.00    +0.257 C 
ATOM     33  H   UNL     1      25.345 -20.504 -17.418  0.00  0.00    +0.145 HD
ATOM     34  H   UNL     1      26.985 -20.620 -17.873  0.00  0.00    +0.145 HD
ENDBRANCH  29  32
ENDBRANCH  24  25
BRANCH  24  35
ATOM     35  C   UNL     1      30.691 -24.249 -13.339  0.00  0.00    +0.153 C 
BRANCH  35  36
ATOM     36  O   UNL     1      30.685 -24.375 -11.921  0.00  0.00    -0.381 OA
ATOM     37  H   UNL     1      29.869 -23.988 -11.565  0.00  0.00    +0.210 HD
ENDBRANCH  35  36
ENDBRANCH  24  35
ENDBRANCH  23  24
ENDBRANCH  22  23
ENDBRANCH   1  22
TORSDOF 11
ENDMDL
MODEL 3
REMARK VINA RESULT:     -11.9      3.724      7.289
REMARK  Name = 448903
REMARK  11 active torsions:
REMARK  status: ('A' for Active; 'I' for Inactive)
REMARK    1  A    between atoms: N_1  and  C_22
REMARK    2  A    between atoms: C_8  and  N_11
REMARK    3  A    between atoms: C_12  and  C_14
REMARK    4  A    between atoms: C_14  and  C_15
REMARK    5  A    between atoms: C_15  and  C_16
REMARK    6  A    between atoms: C_22  and  C_23
REMARK    7  A    between atoms: C_23  and  C_24
REMARK    8  A    between atoms: C_24  and  N_25
REMARK    9  A    between atoms: C_24  and  C_35
REMARK   10  A    between atoms: C_29  and  C_32
REMARK   11  A    between atoms: C_35  and  O_36
REMARK                            x       y       z     vdW  Elec       q    Type
REMARK                         _______ _______ _______ _____ _____    ______ ____
ROOT
ATOM      1  N   UNL     1      34.126 -22.446 -16.205  0.00  0.00    -0.286 N 
ATOM      2  C   UNL     1      34.882 -21.760 -17.129  0.00  0.00    +0.053 C 
ATOM      3  C   UNL     1      36.177 -21.669 -16.613  0.00  0.00    +0.015 C 
ATOM      4  C   UNL     1      34.896 -22.792 -15.128  0.00  0.00    +0.065 C 
ATOM      5  C   UNL     1      36.170 -22.325 -15.350  0.00  0.00    +0.017 C 
ATOM      6  C   UNL     1      34.522 -21.218 -18.368  0.00  0.00    +0.029 C 
ATOM      7  C   UNL     1      37.163 -21.004 -17.370  0.00  0.00    +0.003 C 
ATOM      8  C   UNL     1      35.517 -20.564 -19.101  0.00  0.00    +0.052 C 
ATOM      9  C   UNL     1      36.818 -20.458 -18.612  0.00  0.00    +0.015 C 
ENDROOT
BRANCH   8  11
ATOM     10  O   UNL     1      35.676 -17.722 -20.069  0.00  0.00    -0.275 OA
ATOM     11  N   UNL     1      35.201 -20.011 -20.343  0.00  0.00    -0.284 N 
ATOM     12  C   UNL     1      35.306 -18.675 -20.749  0.00  0.00    +0.226 C 
ATOM     13  H   UNL     1      34.859 -20.640 -21.020  0.00  0.00    +0.155 HD
BRANCH  12  14
ATOM     14  C   UNL     1      34.861 -18.466 -22.187  0.00  0.00    +0.090 C 
BRANCH  14  15
ATOM     15  C   UNL     1      35.766 -17.475 -22.920  0.00  0.00    +0.036 C 
BRANCH  15  16
ATOM     16  C   UNL     1      35.047 -16.225 -23.366  0.00  0.00    -0.022 C 
ATOM     17  C   UNL     1      34.954 -15.130 -22.509  0.00  0.00    -0.004 C 
ATOM     18  C   UNL     1      34.477 -16.165 -24.638  0.00  0.00    -0.004 C 
ATOM     19  C   UNL     1      34.290 -13.974 -22.921  0.00  0.00    -0.000 C 
ATOM     20  C   UNL     1      33.812 -15.010 -25.051  0.00  0.00    -0.000 C 
ATOM     21  C   UNL     1      33.719 -13.915 -24.192  0.00  0.00    -0.000 C 
ENDBRANCH  15  16
ENDBRANCH  14  15
ENDBRANCH  12  14
ENDBRANCH   8  11
BRANCH   1  22
ATOM     22  C   UNL     1      32.721 -22.765 -16.338  0.00  0.00    +0.097 C 
BRANCH  22  23
ATOM     23  C   UNL     1      32.159 -23.632 -15.205  0.00  0.00    +0.040 C 
BRANCH  23  24
ATOM     24  C   UNL     1      31.015 -22.987 -14.389  0.00  0.00    +0.091 C 
BRANCH  24  25
ATOM     25  N   UNL     1      29.731 -22.945 -15.108  0.00  0.00    -0.246 NA
ATOM     26  N   UNL     1      28.017 -23.429 -16.436  0.00  0.00    -0.251 NA
ATOM     27  C   UNL     1      28.763 -21.978 -15.002  0.00  0.00    +0.125 C 
ATOM     28  C   UNL     1      29.251 -23.805 -15.979  0.00  0.00    +0.201 C 
ATOM     29  C   UNL     1      27.690 -22.256 -15.816  0.00  0.00    +0.124 C 
BRANCH  29  32
ATOM     30  O   UNL     1      25.570 -21.447 -15.154  0.00  0.00    -0.269 OA
ATOM     31  N   UNL     1      26.320 -20.834 -17.217  0.00  0.00    -0.324 N 
ATOM     32  C   UNL     1      26.484 -21.524 -16.010  0.00  0.00    +0.257 C 
ATOM     33  H   UNL     1      25.497 -20.319 -17.382  0.00  0.00    +0.145 HD
ATOM     34  H   UNL     1      27.028 -20.863 -17.902  0.00  0.00    +0.145 HD
ENDBRANCH  29  32
ENDBRANCH  24  25
BRANCH  24  35
ATOM     35  C   UNL     1      30.850 -23.696 -13.035  0.00  0.00    +0.153 C 
BRANCH  35  36
ATOM     36  O   UNL     1      32.045 -24.398 -12.712  0.00  0.00    -0.381 OA
ATOM     37  H   UNL     1      32.023 -24.662 -11.779  0.00  0.00    +0.210 HD
ENDBRANCH  35  36
ENDBRANCH  24  35
ENDBRANCH  23  24
ENDBRANCH  22  23
ENDBRANCH   1  22
TORSDOF 11
ENDMDL
MODEL 4
REMARK VINA RESULT:     -11.2      8.877     15.313
REMARK  Name = 448903
REMARK  11 active torsions:
REMARK  status: ('A' for Active; 'I' for Inactive)
REMARK    1  A    between atoms: N_1  and  C_22
REMARK    2  A    between atoms: C_8  and  N_11
REMARK    3  A    between atoms: C_12  and  C_14
REMARK    4  A    between atoms: C_14  and  C_15
REMARK    5  A    between atoms: C_15  and  C_16
REMARK    6  A    between atoms: C_22  and  C_23
REMARK    7  A    between atoms: C_23  and  C_24
REMARK    8  A    between atoms: C_24  and  N_25
REMARK    9  A    between atoms: C_24  and  C_35
REMARK   10  A    between atoms: C_29  and  C_32
REMARK   11  A    between atoms: C_35  and  O_36
REMARK                            x       y       z     vdW  Elec       q    Type
REMARK                         _______ _______ _______ _____ _____    ______ ____
ROOT
ATOM      1  N   UNL     1      32.688 -10.338 -21.906  0.00  0.00    -0.286 N 
ATOM      2  C   UNL     1      32.864 -11.596 -21.375  0.00  0.00    +0.053 C 
ATOM      3  C   UNL     1      31.999 -11.705 -20.283  0.00  0.00    +0.015 C 
ATOM      4  C   UNL     1      31.745  -9.651 -21.191  0.00  0.00    +0.065 C 
ATOM      5  C   UNL     1      31.299 -10.470 -20.180  0.00  0.00    +0.017 C 
ATOM      6  C   UNL     1      33.713 -12.635 -21.773  0.00  0.00    +0.029 C 
ATOM      7  C   UNL     1      31.980 -12.909 -19.550  0.00  0.00    +0.003 C 
ATOM      8  C   UNL     1      33.676 -13.820 -21.031  0.00  0.00    +0.052 C 
ATOM      9  C   UNL     1      32.823 -13.957 -19.937  0.00  0.00    +0.015 C 
ENDROOT
BRANCH   8  11
ATOM     10  O   UNL     1      35.333 -15.671 -19.338  0.00  0.00    -0.275 OA
ATOM     11  N   UNL     1      34.505 -14.882 -21.395  0.00  0.00    -0.284 N 
ATOM     12  C   UNL     1      35.249 -15.726 -20.561  0.00  0.00    +0.226 C 
ATOM     13  H   UNL     1      34.577 -15.060 -22.361  0.00  0.00    +0.155 HD
BRANCH  12  14
ATOM     14  C   UNL     1      36.034 -16.770 -21.339  0.00  0.00    +0.090 C 
BRANCH  14  15
ATOM     15  C   UNL     1      35.162 -17.968 -21.715  0.00  0.00    +0.036 C 
BRANCH  15  16
ATOM     16  C   UNL     1      35.115 -19.032 -20.645  0.00  0.00    -0.022 C 
ATOM     17  C   UNL     1      36.298 -19.511 -20.084  0.00  0.00    -0.004 C 
ATOM     18  C   UNL     1      33.886 -19.537 -20.217  0.00  0.00    -0.004 C 
ATOM     19  C   UNL     1      36.255 -20.495 -19.096  0.00  0.00    -0.000 C 
ATOM     20  C   UNL     1      33.843 -20.520 -19.229  0.00  0.00    -0.000 C 
ATOM     21  C   UNL     1      35.027 -20.999 -18.668  0.00  0.00    -0.000 C 
ENDBRANCH  15  16
ENDBRANCH  14  15
ENDBRANCH  12  14
ENDBRANCH   8  11
BRANCH   1  22
ATOM     22  C   UNL     1      33.390  -9.805 -23.054  0.00  0.00    +0.097 C 
BRANCH  22  23
ATOM     23  C   UNL     1      32.715  -8.587 -23.698  0.00  0.00    +0.040 C 
BRANCH  23  24
ATOM     24  C   UNL     1      33.398  -7.230 -23.413  0.00  0.00    +0.091 C 
BRANCH  24  25
ATOM     25  N   UNL     1      32.788  -6.487 -22.298  0.00  0.00    -0.246 NA
ATOM     26  N   UNL     1      31.462  -5.190 -21.077  0.00  0.00    -0.251 NA
ATOM     27  C   UNL     1      33.218  -6.466 -20.995  0.00  0.00    +0.125 C 
ATOM     28  C   UNL     1      31.728  -5.710 -22.314  0.00  0.00    +0.201 C 
ATOM     29  C   UNL     1      32.411  -5.667 -20.218  0.00  0.00    +0.124 C 
BRANCH  29  32
ATOM     30  O   UNL     1      32.371  -6.228 -17.922  0.00  0.00    -0.269 OA
ATOM     31  N   UNL     1      32.757  -4.045 -18.454  0.00  0.00    -0.324 N 
ATOM     32  C   UNL     1      32.496  -5.369 -18.828  0.00  0.00    +0.257 C 
ATOM     33  H   UNL     1      32.822  -3.807 -17.501  0.00  0.00    +0.145 HD
ATOM     34  H   UNL     1      32.875  -3.353 -19.144  0.00  0.00    +0.145 HD
ENDBRANCH  29  32
ENDBRANCH  24  25
BRANCH  24  35
ATOM     35  C   UNL     1      34.904  -7.423 -23.170  0.00  0.00    +0.153 C 
BRANCH  35  36
ATOM     36  O   UNL     1      35.612  -7.253 -24.392  0.00  0.00    -0.381 OA
ATOM     37  H   UNL     1      36.365  -7.864 -24.418  0.00  0.00    +0.210 HD
ENDBRANCH  35  36
ENDBRANCH  24  35
ENDBRANCH  23  24
ENDBRANCH  22  23
ENDBRANCH   1  22
TORSDOF 11
ENDMDL
MODEL 5
REMARK VINA RESULT:     -11.1      8.189     14.997
REMARK  Name = 448903
REMARK  11 active torsions:
REMARK  status: ('A' for Active; 'I' for Inactive)
REMARK    1  A    between atoms: N_1  and  C_22
REMARK    2  A    between atoms: C_8  and  N_11
REMARK    3  A    between atoms: C_12  and  C_14
REMARK    4  A    between atoms: C_14  and  C_15
REMARK    5  A    between atoms: C_15  and  C_16
REMARK    6  A    between atoms: C_22  and  C_23
REMARK    7  A    between atoms: C_23  and  C_24
REMARK    8  A    between atoms: C_24  and  N_25
REMARK    9  A    between atoms: C_24  and  C_35
REMARK   10  A    between atoms: C_29  and  C_32
REMARK   11  A    between atoms: C_35  and  O_36
REMARK                            x       y       z     vdW  Elec       q    Type
REMARK                         _______ _______ _______ _____ _____    ______ ____
ROOT
ATOM      1  N   UNL     1      34.012 -10.949 -24.161  0.00  0.00    -0.286 N 
ATOM      2  C   UNL     1      34.173 -12.308 -24.012  0.00  0.00    +0.053 C 
ATOM      3  C   UNL     1      33.924 -12.889 -25.258  0.00  0.00    +0.015 C 
ATOM      4  C   UNL     1      33.673 -10.652 -25.453  0.00  0.00    +0.065 C 
ATOM      5  C   UNL     1      33.611 -11.831 -26.156  0.00  0.00    +0.017 C 
ATOM      6  C   UNL     1      34.516 -13.060 -22.882  0.00  0.00    +0.029 C 
ATOM      7  C   UNL     1      34.022 -14.290 -25.384  0.00  0.00    +0.003 C 
ATOM      8  C   UNL     1      34.607 -14.447 -23.033  0.00  0.00    +0.052 C 
ATOM      9  C   UNL     1      34.365 -15.054 -24.263  0.00  0.00    +0.015 C 
ENDROOT
BRANCH   8  11
ATOM     10  O   UNL     1      35.571 -17.292 -22.890  0.00  0.00    -0.275 OA
ATOM     11  N   UNL     1      34.948 -15.234 -21.931  0.00  0.00    -0.284 N 
ATOM     12  C   UNL     1      35.407 -16.557 -21.920  0.00  0.00    +0.226 C 
ATOM     13  H   UNL     1      34.854 -14.804 -21.050  0.00  0.00    +0.155 HD
BRANCH  12  14
ATOM     14  C   UNL     1      35.672 -17.070 -20.514  0.00  0.00    +0.090 C 
BRANCH  14  15
ATOM     15  C   UNL     1      36.268 -18.478 -20.529  0.00  0.00    +0.036 C 
BRANCH  15  16
ATOM     16  C   UNL     1      35.387 -19.508 -19.865  0.00  0.00    -0.022 C 
ATOM     17  C   UNL     1      34.011 -19.501 -20.092  0.00  0.00    -0.004 C 
ATOM     18  C   UNL     1      35.950 -20.469 -19.024  0.00  0.00    -0.004 C 
ATOM     19  C   UNL     1      33.197 -20.452 -19.478  0.00  0.00    -0.000 C 
ATOM     20  C   UNL     1      35.136 -21.421 -18.410  0.00  0.00    -0.000 C 
ATOM     21  C   UNL     1      33.759 -21.412 -18.637  0.00  0.00    -0.000 C 
ENDBRANCH  15  16
ENDBRANCH  14  15
ENDBRANCH  12  14
ENDBRANCH   8  11
BRANCH   1  22
ATOM     22  C   UNL     1      34.175  -9.964 -23.113  0.00  0.00    +0.097 C 
BRANCH  22  23
ATOM     23  C   UNL     1      32.875  -9.262 -22.698  0.00  0.00    +0.040 C 
BRANCH  23  24
ATOM     24  C   UNL     1      32.399  -9.559 -21.258  0.00  0.00    +0.091 C 
BRANCH  24  25
ATOM     25  N   UNL     1      32.418  -8.380 -20.377  0.00  0.00    -0.246 NA
ATOM     26  N   UNL     1      32.462  -7.054 -18.595  0.00  0.00    -0.251 NA
ATOM     27  C   UNL     1      32.406  -7.064 -20.767  0.00  0.00    +0.125 C 
ATOM     28  C   UNL     1      32.453  -8.339 -19.063  0.00  0.00    +0.201 C 
ATOM     29  C   UNL     1      32.432  -6.223 -19.679  0.00  0.00    +0.124 C 
BRANCH  29  32
ATOM     30  O   UNL     1      32.169  -4.069 -20.618  0.00  0.00    -0.269 OA
ATOM     31  N   UNL     1      32.719  -4.181 -18.409  0.00  0.00    -0.324 N 
ATOM     32  C   UNL     1      32.432  -4.799 -19.632  0.00  0.00    +0.257 C 
ATOM     33  H   UNL     1      32.726  -3.199 -18.343  0.00  0.00    +0.145 HD
ATOM     34  H   UNL     1      32.914  -4.729 -17.614  0.00  0.00    +0.145 HD
ENDBRANCH  29  32
ENDBRANCH  24  25
BRANCH  24  35
ATOM     35  C   UNL     1      31.000 -10.196 -21.272  0.00  0.00    +0.153 C 
BRANCH  35  36
ATOM     36  O   UNL     1      30.963 -11.292 -20.365  0.00  0.00    -0.381 OA
ATOM     37  H   UNL     1      30.364 -11.084 -19.631  0.00  0.00    +0.210 HD
ENDBRANCH  35  36
ENDBRANCH  24  35
ENDBRANCH  23  24
ENDBRANCH  22  23
ENDBRANCH   1  22
TORSDOF 11
ENDMDL
MODEL 6
REMARK VINA RESULT:     -10.9      7.292     14.153
REMARK  Name = 448903
REMARK  11 active torsions:
REMARK  status: ('A' for Active; 'I' for Inactive)
REMARK    1  A    between atoms: N_1  and  C_22
REMARK    2  A    between atoms: C_8  and  N_11
REMARK    3  A    between atoms: C_12  and  C_14
REMARK    4  A    between atoms: C_14  and  C_15
REMARK    5  A    between atoms: C_15  and  C_16
REMARK    6  A    between atoms: C_22  and  C_23
REMARK    7  A    between atoms: C_23  and  C_24
REMARK    8  A    between atoms: C_24  and  N_25
REMARK    9  A    between atoms: C_24  and  C_35
REMARK   10  A    between atoms: C_29  and  C_32
REMARK   11  A    between atoms: C_35  and  O_36
REMARK                            x       y       z     vdW  Elec       q    Type
REMARK                         _______ _______ _______ _____ _____    ______ ____
ROOT
ATOM      1  N   UNL     1      34.084 -13.368 -23.296  0.00  0.00    -0.286 N 
ATOM      2  C   UNL     1      34.504 -14.676 -23.201  0.00  0.00    +0.053 C 
ATOM      3  C   UNL     1      34.177 -15.300 -24.408  0.00  0.00    +0.015 C 
ATOM      4  C   UNL     1      33.507 -13.144 -24.516  0.00  0.00    +0.065 C 
ATOM      5  C   UNL     1      33.550 -14.320 -25.227  0.00  0.00    +0.017 C 
ATOM      6  C   UNL     1      35.141 -15.348 -22.151  0.00  0.00    +0.029 C 
ATOM      7  C   UNL     1      34.501 -16.661 -24.577  0.00  0.00    +0.003 C 
ATOM      8  C   UNL     1      35.453 -16.698 -22.343  0.00  0.00    +0.052 C 
ATOM      9  C   UNL     1      35.139 -17.345 -23.536  0.00  0.00    +0.015 C 
ENDROOT
BRANCH   8  11
ATOM     10  O   UNL     1      34.608 -19.175 -20.864  0.00  0.00    -0.275 OA
ATOM     11  N   UNL     1      36.089 -17.404 -21.321  0.00  0.00    -0.284 N 
ATOM     12  C   UNL     1      35.657 -18.567 -20.672  0.00  0.00    +0.226 C 
ATOM     13  H   UNL     1      36.952 -17.039 -21.018  0.00  0.00    +0.155 HD
BRANCH  12  14
ATOM     14  C   UNL     1      36.634 -19.037 -19.606  0.00  0.00    +0.090 C 
BRANCH  14  15
ATOM     15  C   UNL     1      36.710 -20.563 -19.544  0.00  0.00    +0.036 C 
BRANCH  15  16
ATOM     16  C   UNL     1      36.091 -21.144 -18.296  0.00  0.00    -0.022 C 
ATOM     17  C   UNL     1      34.766 -21.577 -18.311  0.00  0.00    -0.004 C 
ATOM     18  C   UNL     1      36.846 -21.247 -17.127  0.00  0.00    -0.004 C 
ATOM     19  C   UNL     1      34.194 -22.113 -17.157  0.00  0.00    -0.000 C 
ATOM     20  C   UNL     1      36.273 -21.783 -15.973  0.00  0.00    -0.000 C 
ATOM     21  C   UNL     1      34.947 -22.216 -15.988  0.00  0.00    -0.000 C 
ENDBRANCH  15  16
ENDBRANCH  14  15
ENDBRANCH  12  14
ENDBRANCH   8  11
BRANCH   1  22
ATOM     22  C   UNL     1      34.226 -12.364 -22.263  0.00  0.00    +0.097 C 
BRANCH  22  23
ATOM     23  C   UNL     1      32.897 -11.792 -21.751  0.00  0.00    +0.040 C 
BRANCH  23  24
ATOM     24  C   UNL     1      32.621 -10.322 -22.141  0.00  0.00    +0.091 C 
BRANCH  24  25
ATOM     25  N   UNL     1      32.397  -9.439 -20.985  0.00  0.00    -0.246 NA
ATOM     26  N   UNL     1      31.861  -8.654 -18.977  0.00  0.00    -0.251 NA
ATOM     27  C   UNL     1      32.646  -8.091 -20.923  0.00  0.00    +0.125 C 
ATOM     28  C   UNL     1      31.925  -9.747 -19.797  0.00  0.00    +0.201 C 
ATOM     29  C   UNL     1      32.321  -7.581 -19.687  0.00  0.00    +0.124 C 
BRANCH  29  32
ATOM     30  O   UNL     1      33.223  -5.890 -18.303  0.00  0.00    -0.269 OA
ATOM     31  N   UNL     1      31.594  -5.273 -19.773  0.00  0.00    -0.324 N 
ATOM     32  C   UNL     1      32.422  -6.247 -19.200  0.00  0.00    +0.257 C 
ATOM     33  H   UNL     1      31.640  -4.341 -19.458  0.00  0.00    +0.145 HD
ATOM     34  H   UNL     1      30.966  -5.520 -20.490  0.00  0.00    +0.145 HD
ENDBRANCH  29  32
ENDBRANCH  24  25
BRANCH  24  35
ATOM     35  C   UNL     1      33.754  -9.775 -23.024  0.00  0.00    +0.153 C 
BRANCH  35  36
ATOM     36  O   UNL     1      33.226  -9.352 -24.275  0.00  0.00    -0.381 OA
ATOM     37  H   UNL     1      33.950  -9.063 -24.852  0.00  0.00    +0.210 HD
ENDBRANCH  35  36
ENDBRANCH  24  35
ENDBRANCH  23  24
ENDBRANCH  22  23
ENDBRANCH   1  22
TORSDOF 11
ENDMDL
MODEL 7
REMARK VINA RESULT:     -10.9      7.662     12.792
REMARK  Name = 448903
REMARK  11 active torsions:
REMARK  status: ('A' for Active; 'I' for Inactive)
REMARK    1  A    between atoms: N_1  and  C_22
REMARK    2  A    between atoms: C_8  and  N_11
REMARK    3  A    between atoms: C_12  and  C_14
REMARK    4  A    between atoms: C_14  and  C_15
REMARK    5  A    between atoms: C_15  and  C_16
REMARK    6  A    between atoms: C_22  and  C_23
REMARK    7  A    between atoms: C_23  and  C_24
REMARK    8  A    between atoms: C_24  and  N_25
REMARK    9  A    between atoms: C_24  and  C_35
REMARK   10  A    between atoms: C_29  and  C_32
REMARK   11  A    between atoms: C_35  and  O_36
REMARK                            x       y       z     vdW  Elec       q    Type
REMARK                         _______ _______ _______ _____ _____    ______ ____
ROOT
ATOM      1  N   UNL     1      32.995 -13.167 -21.206  0.00  0.00    -0.286 N 
ATOM      2  C   UNL     1      32.515 -11.971 -20.720  0.00  0.00    +0.053 C 
ATOM      3  C   UNL     1      32.076 -12.207 -19.414  0.00  0.00    +0.015 C 
ATOM      4  C   UNL     1      32.876 -14.145 -20.257  0.00  0.00    +0.065 C 
ATOM      5  C   UNL     1      32.311 -13.583 -19.136  0.00  0.00    +0.017 C 
ATOM      6  C   UNL     1      32.436 -10.714 -21.328  0.00  0.00    +0.029 C 
ATOM      7  C   UNL     1      31.531 -11.135 -18.679  0.00  0.00    +0.003 C 
ATOM      8  C   UNL     1      31.893  -9.666 -20.579  0.00  0.00    +0.052 C 
ATOM      9  C   UNL     1      31.447  -9.871 -19.274  0.00  0.00    +0.015 C 
ENDROOT
BRANCH   8  11
ATOM     10  O   UNL     1      33.410  -7.140 -19.978  0.00  0.00    -0.275 OA
ATOM     11  N   UNL     1      31.798  -8.395 -21.148  0.00  0.00    -0.284 N 
ATOM     12  C   UNL     1      32.542  -7.249 -20.839  0.00  0.00    +0.226 C 
ATOM     13  H   UNL     1      31.122  -8.290 -21.856  0.00  0.00    +0.155 HD
BRANCH  12  14
ATOM     14  C   UNL     1      32.142  -6.050 -21.683  0.00  0.00    +0.090 C 
BRANCH  14  15
ATOM     15  C   UNL     1      32.241  -6.353 -23.179  0.00  0.00    +0.036 C 
BRANCH  15  16
ATOM     16  C   UNL     1      33.357  -7.310 -23.523  0.00  0.00    -0.022 C 
ATOM     17  C   UNL     1      34.679  -6.972 -23.235  0.00  0.00    -0.004 C 
ATOM     18  C   UNL     1      33.065  -8.533 -24.127  0.00  0.00    -0.004 C 
ATOM     19  C   UNL     1      35.710  -7.855 -23.553  0.00  0.00    -0.000 C 
ATOM     20  C   UNL     1      34.097  -9.417 -24.445  0.00  0.00    -0.000 C 
ATOM     21  C   UNL     1      35.419  -9.078 -24.158  0.00  0.00    -0.000 C 
ENDBRANCH  15  16
ENDBRANCH  14  15
ENDBRANCH  12  14
ENDBRANCH   8  11
BRANCH   1  22
ATOM     22  C   UNL     1      33.548 -13.375 -22.527  0.00  0.00    +0.097 C 
BRANCH  22  23
ATOM     23  C   UNL     1      34.892 -14.115 -22.540  0.00  0.00    +0.040 C 
BRANCH  23  24
ATOM     24  C   UNL     1      34.999 -15.266 -23.566  0.00  0.00    +0.091 C 
BRANCH  24  25
ATOM     25  N   UNL     1      35.055 -16.601 -22.950  0.00  0.00    -0.246 NA
ATOM     26  N   UNL     1      34.888 -18.785 -22.582  0.00  0.00    -0.251 NA
ATOM     27  C   UNL     1      35.522 -16.906 -21.696  0.00  0.00    +0.125 C 
ATOM     28  C   UNL     1      34.681 -17.755 -23.457  0.00  0.00    +0.201 C 
ATOM     29  C   UNL     1      35.428 -18.255 -21.444  0.00  0.00    +0.124 C 
BRANCH  29  32
ATOM     30  O   UNL     1      36.860 -18.800 -19.644  0.00  0.00    -0.269 OA
ATOM     31  N   UNL     1      34.909 -19.965 -19.811  0.00  0.00    -0.324 N 
ATOM     32  C   UNL     1      35.797 -18.990 -20.281  0.00  0.00    +0.257 C 
ATOM     33  H   UNL     1      35.134 -20.490 -19.009  0.00  0.00    +0.145 HD
ATOM     34  H   UNL     1      34.059 -20.126 -20.281  0.00  0.00    +0.145 HD
ENDBRANCH  29  32
ENDBRANCH  24  25
BRANCH  24  35
ATOM     35  C   UNL     1      33.848 -15.192 -24.583  0.00  0.00    +0.153 C 
BRANCH  35  36
ATOM     36  O   UNL     1      34.369 -14.910 -25.877  0.00  0.00    -0.381 OA
ATOM     37  H   UNL     1      34.406 -15.729 -26.396  0.00  0.00    +0.210 HD
ENDBRANCH  35  36
ENDBRANCH  24  35
ENDBRANCH  23  24
ENDBRANCH  22  23
ENDBRANCH   1  22
TORSDOF 11
ENDMDL
MODEL 8
REMARK VINA RESULT:     -10.9      5.887     11.104
REMARK  Name = 448903
REMARK  11 active torsions:
REMARK  status: ('A' for Active; 'I' for Inactive)
REMARK    1  A    between atoms: N_1  and  C_22
REMARK    2  A    between atoms: C_8  and  N_11
REMARK    3  A    between atoms: C_12  and  C_14
REMARK    4  A    between atoms: C_14  and  C_15
REMARK    5  A    between atoms: C_15  and  C_16
REMARK    6  A    between atoms: C_22  and  C_23
REMARK    7  A    between atoms: C_23  and  C_24
REMARK    8  A    between atoms: C_24  and  N_25
REMARK    9  A    between atoms: C_24  and  C_35
REMARK   10  A    between atoms: C_29  and  C_32
REMARK   11  A    between atoms: C_35  and  O_36
REMARK                            x       y       z     vdW  Elec       q    Type
REMARK                         _______ _______ _______ _____ _____    ______ ____
ROOT
ATOM      1  N   UNL     1      35.051 -15.860 -22.615  0.00  0.00    -0.286 N 
ATOM      2  C   UNL     1      34.575 -14.694 -23.173  0.00  0.00    +0.053 C 
ATOM      3  C   UNL     1      34.161 -15.001 -24.471  0.00  0.00    +0.015 C 
ATOM      4  C   UNL     1      34.951 -16.888 -23.512  0.00  0.00    +0.065 C 
ATOM      5  C   UNL     1      34.404 -16.389 -24.670  0.00  0.00    +0.017 C 
ATOM      6  C   UNL     1      34.481 -13.406 -22.634  0.00  0.00    +0.029 C 
ATOM      7  C   UNL     1      33.627 -13.972 -25.273  0.00  0.00    +0.003 C 
ATOM      8  C   UNL     1      33.947 -12.402 -23.447  0.00  0.00    +0.052 C 
ATOM      9  C   UNL     1      33.525 -12.679 -24.746  0.00  0.00    +0.015 C 
ENDROOT
BRANCH   8  11
ATOM     10  O   UNL     1      34.097  -9.750 -24.855  0.00  0.00    -0.275 OA
ATOM     11  N   UNL     1      33.834 -11.104 -22.948  0.00  0.00    -0.284 N 
ATOM     12  C   UNL     1      33.898  -9.896 -23.652  0.00  0.00    +0.226 C 
ATOM     13  H   UNL     1      33.692 -11.028 -21.976  0.00  0.00    +0.155 HD
BRANCH  12  14
ATOM     14  C   UNL     1      33.730  -8.684 -22.749  0.00  0.00    +0.090 C 
BRANCH  14  15
ATOM     15  C   UNL     1      32.266  -8.463 -22.368  0.00  0.00    +0.036 C 
BRANCH  15  16
ATOM     16  C   UNL     1      31.892  -9.079 -21.042  0.00  0.00    -0.022 C 
ATOM     17  C   UNL     1      32.362  -8.517 -19.855  0.00  0.00    -0.004 C 
ATOM     18  C   UNL     1      31.076 -10.209 -21.003  0.00  0.00    -0.004 C 
ATOM     19  C   UNL     1      32.017  -9.086 -18.629  0.00  0.00    -0.000 C 
ATOM     20  C   UNL     1      30.731 -10.779 -19.777  0.00  0.00    -0.000 C 
ATOM     21  C   UNL     1      31.201 -10.217 -18.590  0.00  0.00    -0.000 C 
ENDBRANCH  15  16
ENDBRANCH  14  15
ENDBRANCH  12  14
ENDBRANCH   8  11
BRANCH   1  22
ATOM     22  C   UNL     1      35.583 -15.994 -21.275  0.00  0.00    +0.097 C 
BRANCH  22  23
ATOM     23  C   UNL     1      35.252 -17.329 -20.595  0.00  0.00    +0.040 C 
BRANCH  23  24
ATOM     24  C   UNL     1      36.473 -18.214 -20.257  0.00  0.00    +0.091 C 
BRANCH  24  25
ATOM     25  N   UNL     1      36.122 -19.456 -19.548  0.00  0.00    -0.246 NA
ATOM     26  N   UNL     1      36.203 -21.287 -18.294  0.00  0.00    -0.251 NA
ATOM     27  C   UNL     1      34.901 -20.082 -19.547  0.00  0.00    +0.125 C 
ATOM     28  C   UNL     1      36.884 -20.207 -18.784  0.00  0.00    +0.201 C 
ATOM     29  C   UNL     1      34.926 -21.221 -18.776  0.00  0.00    +0.124 C 
BRANCH  29  32
ATOM     30  O   UNL     1      33.966 -23.381 -18.769  0.00  0.00    -0.269 OA
ATOM     31  N   UNL     1      32.724 -21.687 -17.884  0.00  0.00    -0.324 N 
ATOM     32  C   UNL     1      33.888 -22.157 -18.504  0.00  0.00    +0.257 C 
ATOM     33  H   UNL     1      31.988 -22.309 -17.682  0.00  0.00    +0.145 HD
ATOM     34  H   UNL     1      32.641 -20.734 -17.649  0.00  0.00    +0.145 HD
ENDBRANCH  29  32
ENDBRANCH  24  25
BRANCH  24  35
ATOM     35  C   UNL     1      37.279 -18.531 -21.528  0.00  0.00    +0.153 C 
BRANCH  35  36
ATOM     36  O   UNL     1      38.506 -17.810 -21.509  0.00  0.00    -0.381 OA
ATOM     37  H   UNL     1      38.748 -17.606 -20.592  0.00  0.00    +0.210 HD
ENDBRANCH  35  36
ENDBRANCH  24  35
ENDBRANCH  23  24
ENDBRANCH  22  23
ENDBRANCH   1  22
TORSDOF 11
ENDMDL
MODEL 9
REMARK VINA RESULT:     -10.8      8.681     13.702
REMARK  Name = 448903
REMARK  11 active torsions:
REMARK  status: ('A' for Active; 'I' for Inactive)
REMARK    1  A    between atoms: N_1  and  C_22
REMARK    2  A    between atoms: C_8  and  N_11
REMARK    3  A    between atoms: C_12  and  C_14
REMARK    4  A    between atoms: C_14  and  C_15
REMARK    5  A    between atoms: C_15  and  C_16
REMARK    6  A    between atoms: C_22  and  C_23
REMARK    7  A    between atoms: C_23  and  C_24
REMARK    8  A    between atoms: C_24  and  N_25
REMARK    9  A    between atoms: C_24  and  C_35
REMARK   10  A    between atoms: C_29  and  C_32
REMARK   11  A    between atoms: C_35  and  O_36
REMARK                            x       y       z     vdW  Elec       q    Type
REMARK                         _______ _______ _______ _____ _____    ______ ____
ROOT
ATOM      1  N   UNL     1      32.987 -12.852 -21.207  0.00  0.00    -0.286 N 
ATOM      2  C   UNL     1      32.528 -11.695 -20.619  0.00  0.00    +0.053 C 
ATOM      3  C   UNL     1      31.991 -12.051 -19.379  0.00  0.00    +0.015 C 
ATOM      4  C   UNL     1      32.761 -13.923 -20.385  0.00  0.00    +0.065 C 
ATOM      5  C   UNL     1      32.146 -13.459 -19.246  0.00  0.00    +0.017 C 
ATOM      6  C   UNL     1      32.546 -10.375 -21.084  0.00  0.00    +0.029 C 
ATOM      7  C   UNL     1      31.444 -11.040 -18.563  0.00  0.00    +0.003 C 
ATOM      8  C   UNL     1      31.999  -9.390 -20.256  0.00  0.00    +0.052 C 
ATOM      9  C   UNL     1      31.457  -9.716 -19.014  0.00  0.00    +0.015 C 
ENDROOT
BRANCH   8  11
ATOM     10  O   UNL     1      33.265  -6.951 -19.036  0.00  0.00    -0.275 OA
ATOM     11  N   UNL     1      31.999  -8.061 -20.681  0.00  0.00    -0.284 N 
ATOM     12  C   UNL     1      32.619  -6.959 -20.080  0.00  0.00    +0.226 C 
ATOM     13  H   UNL     1      31.498  -7.874 -21.509  0.00  0.00    +0.155 HD
BRANCH  12  14
ATOM     14  C   UNL     1      32.387  -5.668 -20.850  0.00  0.00    +0.090 C 
BRANCH  14  15
ATOM     15  C   UNL     1      31.663  -5.922 -22.173  0.00  0.00    +0.036 C 
BRANCH  15  16
ATOM     16  C   UNL     1      32.018  -4.925 -23.250  0.00  0.00    -0.022 C 
ATOM     17  C   UNL     1      32.190  -3.580 -22.926  0.00  0.00    -0.004 C 
ATOM     18  C   UNL     1      32.176  -5.351 -24.569  0.00  0.00    -0.004 C 
ATOM     19  C   UNL     1      32.518  -2.659 -23.921  0.00  0.00    -0.000 C 
ATOM     20  C   UNL     1      32.504  -4.430 -25.564  0.00  0.00    -0.000 C 
ATOM     21  C   UNL     1      32.675  -3.084 -25.240  0.00  0.00    -0.000 C 
ENDBRANCH  15  16
ENDBRANCH  14  15
ENDBRANCH  12  14
ENDBRANCH   8  11
BRANCH   1  22
ATOM     22  C   UNL     1      33.620 -12.941 -22.506  0.00  0.00    +0.097 C 
BRANCH  22  23
ATOM     23  C   UNL     1      34.886 -13.807 -22.534  0.00  0.00    +0.040 C 
BRANCH  23  24
ATOM     24  C   UNL     1      34.905 -14.907 -23.619  0.00  0.00    +0.091 C 
BRANCH  24  25
ATOM     25  N   UNL     1      34.942 -16.273 -23.072  0.00  0.00    -0.246 NA
ATOM     26  N   UNL     1      34.794 -18.477 -22.835  0.00  0.00    -0.251 NA
ATOM     27  C   UNL     1      35.317 -16.638 -21.803  0.00  0.00    +0.125 C 
ATOM     28  C   UNL     1      34.634 -17.403 -23.667  0.00  0.00    +0.201 C 
ATOM     29  C   UNL     1      35.233 -18.000 -21.632  0.00  0.00    +0.124 C 
BRANCH  29  32
ATOM     30  O   UNL     1      34.741 -19.646 -20.008  0.00  0.00    -0.269 OA
ATOM     31  N   UNL     1      36.771 -18.619 -19.867  0.00  0.00    -0.324 N 
ATOM     32  C   UNL     1      35.526 -18.791 -20.484  0.00  0.00    +0.257 C 
ATOM     33  H   UNL     1      37.004 -19.151 -19.071  0.00  0.00    +0.145 HD
ATOM     34  H   UNL     1      37.414 -17.966 -20.228  0.00  0.00    +0.145 HD
ENDBRANCH  29  32
ENDBRANCH  24  25
BRANCH  24  35
ATOM     35  C   UNL     1      33.713 -14.744 -24.576  0.00  0.00    +0.153 C 
BRANCH  35  36
ATOM     36  O   UNL     1      34.159 -14.859 -25.923  0.00  0.00    -0.381 OA
ATOM     37  H   UNL     1      33.566 -14.356 -26.504  0.00  0.00    +0.210 HD
ENDBRANCH  35  36
ENDBRANCH  24  35
ENDBRANCH  23  24
ENDBRANCH  22  23
ENDBRANCH   1  22
TORSDOF 11
ENDMDL
