MODEL 1
REMARK VINA RESULT:     -12.2      0.000      0.000
REMARK  Name = 9911830
REMARK  5 active torsions:
REMARK  status: ('A' for Active; 'I' for Inactive)
REMARK    1  A    between atoms: C_2  and  O_20
REMARK    2  A    between atoms: C_3  and  N_10
REMARK    3  A    between atoms: O_20  and  C_24
REMARK    4  A    between atoms: C_26  and  O_31
REMARK    5  A    between atoms: C_28  and  O_33
REMARK                            x       y       z     vdW  Elec       q    Type
REMARK                         _______ _______ _______ _____ _____    ______ ____
ROOT
ATOM      1 CL   UNL     1      33.310 -20.427 -19.104  0.00  0.00    -0.081 Cl
ATOM      2  C   UNL     1      36.127 -18.186 -20.792  0.00  0.00    +0.146 C 
ATOM      3  C   UNL     1      36.027 -20.232 -18.932  0.00  0.00    +0.062 C 
ATOM      4  C   UNL     1      34.901 -18.729 -20.451  0.00  0.00    +0.050 C 
ATOM      5  C   UNL     1      37.305 -18.641 -20.225  0.00  0.00    +0.039 C 
ATOM      6  C   UNL     1      34.850 -19.761 -19.515  0.00  0.00    +0.074 C 
ATOM      7  C   UNL     1      37.254 -19.673 -19.288  0.00  0.00    +0.019 C 
ENDROOT
BRANCH   3  10
ATOM      8  O   UNL     1      38.040 -23.196 -13.096  0.00  0.00    -0.357 OA
ATOM      9  O   UNL     1      37.531 -20.527 -16.368  0.00  0.00    -0.252 OA
ATOM     10  N   UNL     1      36.011 -21.267 -17.991  0.00  0.00    -0.267 N 
ATOM     11  N   UNL     1      36.425 -22.575 -16.137  0.00  0.00    -0.251 N 
ATOM     12  N   UNL     1      37.811 -22.385 -14.201  0.00  0.00    -0.062 NA
ATOM     13  C   UNL     1      36.740 -21.369 -16.783  0.00  0.00    +0.309 C 
ATOM     14  C   UNL     1      36.931 -23.064 -14.909  0.00  0.00    +0.177 C 
ATOM     15  C   UNL     1      36.552 -24.275 -14.355  0.00  0.00    +0.073 C 
ATOM     16  C   UNL     1      37.284 -24.319 -13.199  0.00  0.00    +0.156 C 
ATOM     17  C   UNL     1      37.404 -25.293 -12.107  0.00  0.00    +0.075 C 
ATOM     18  H   UNL     1      35.413 -22.021 -18.195  0.00  0.00    +0.156 HD
ATOM     19  H   UNL     1      35.771 -23.152 -16.594  0.00  0.00    +0.158 HD
ENDBRANCH   3  10
BRANCH   2  20
ATOM     20  O   UNL     1      36.178 -17.161 -21.720  0.00  0.00    -0.453 OA
BRANCH  20  24
ATOM     21  N   UNL     1      33.803 -17.585 -25.093  0.00  0.00    -0.244 NA
ATOM     22  C   UNL     1      34.804 -16.155 -23.432  0.00  0.00    +0.055 C 
ATOM     23  C   UNL     1      34.006 -16.358 -24.576  0.00  0.00    +0.087 C 
ATOM     24  C   UNL     1      35.393 -17.276 -22.830  0.00  0.00    +0.148 C 
ATOM     25  C   UNL     1      34.994 -14.860 -22.920  0.00  0.00    +0.045 C 
ATOM     26  C   UNL     1      34.398 -13.764 -23.537  0.00  0.00    +0.173 C 
ATOM     27  C   UNL     1      33.421 -15.245 -25.173  0.00  0.00    +0.059 C 
ATOM     28  C   UNL     1      33.610 -13.958 -24.664  0.00  0.00    +0.174 C 
ATOM     29  C   UNL     1      35.185 -18.541 -23.360  0.00  0.00    +0.058 C 
ATOM     30  C   UNL     1      34.389 -18.641 -24.483  0.00  0.00    +0.102 C 
BRANCH  26  31
ATOM     31  O   UNL     1      34.592 -12.516 -23.028  0.00  0.00    -0.468 OA
ATOM     32  C   UNL     1      33.638 -12.046 -22.078  0.00  0.00    +0.253 C 
ENDBRANCH  26  31
BRANCH  28  33
ATOM     33  O   UNL     1      33.017 -12.899 -25.285  0.00  0.00    -0.468 OA
ATOM     34  C   UNL     1      33.818 -12.148 -26.194  0.00  0.00    +0.253 C 
ENDBRANCH  28  33
ENDBRANCH  20  24
ENDBRANCH   2  20
TORSDOF 5
ENDMDL
MODEL 2
REMARK VINA RESULT:     -11.9      3.334     11.016
REMARK  Name = 9911830
REMARK  5 active torsions:
REMARK  status: ('A' for Active; 'I' for Inactive)
REMARK    1  A    between atoms: C_2  and  O_20
REMARK    2  A    between atoms: C_3  and  N_10
REMARK    3  A    between atoms: O_20  and  C_24
REMARK    4  A    between atoms: C_26  and  O_31
REMARK    5  A    between atoms: C_28  and  O_33
REMARK                            x       y       z     vdW  Elec       q    Type
REMARK                         _______ _______ _______ _____ _____    ______ ____
ROOT
ATOM      1 CL   UNL     1      35.018 -15.662 -24.696  0.00  0.00    -0.081 Cl
ATOM      2  C   UNL     1      35.590 -17.414 -21.172  0.00  0.00    +0.146 C 
ATOM      3  C   UNL     1      35.016 -14.865 -22.086  0.00  0.00    +0.062 C 
ATOM      4  C   UNL     1      35.464 -17.196 -22.533  0.00  0.00    +0.050 C 
ATOM      5  C   UNL     1      35.436 -16.386 -20.257  0.00  0.00    +0.039 C 
ATOM      6  C   UNL     1      35.173 -15.913 -22.993  0.00  0.00    +0.074 C 
ATOM      7  C   UNL     1      35.146 -15.102 -20.718  0.00  0.00    +0.019 C 
ENDROOT
BRANCH   3  10
ATOM      8  O   UNL     1      31.587  -8.949 -21.709  0.00  0.00    -0.357 OA
ATOM      9  O   UNL     1      33.037 -12.890 -21.034  0.00  0.00    -0.252 OA
ATOM     10  N   UNL     1      34.722 -13.566 -22.514  0.00  0.00    -0.267 N 
ATOM     11  N   UNL     1      33.805 -11.460 -22.717  0.00  0.00    -0.251 N 
ATOM     12  N   UNL     1      32.121 -10.223 -21.561  0.00  0.00    -0.062 NA
ATOM     13  C   UNL     1      33.775 -12.658 -21.987  0.00  0.00    +0.309 C 
ATOM     14  C   UNL     1      33.021 -10.298 -22.520  0.00  0.00    +0.177 C 
ATOM     15  C   UNL     1      33.131  -9.161 -23.303  0.00  0.00    +0.073 C 
ATOM     16  C   UNL     1      32.197  -8.326 -22.750  0.00  0.00    +0.156 C 
ATOM     17  C   UNL     1      31.752  -6.959 -23.048  0.00  0.00    +0.075 C 
ATOM     18  H   UNL     1      35.245 -13.242 -23.282  0.00  0.00    +0.156 HD
ATOM     19  H   UNL     1      34.453 -11.422 -23.459  0.00  0.00    +0.158 HD
ENDBRANCH   3  10
BRANCH   2  20
ATOM     20  O   UNL     1      35.879 -18.686 -20.714  0.00  0.00    -0.453 OA
BRANCH  20  24
ATOM     21  N   UNL     1      32.698 -20.900 -19.239  0.00  0.00    -0.244 NA
ATOM     22  C   UNL     1      35.028 -20.296 -19.128  0.00  0.00    +0.055 C 
ATOM     23  C   UNL     1      33.912 -21.023 -18.668  0.00  0.00    +0.087 C 
ATOM     24  C   UNL     1      34.848 -19.425 -20.212  0.00  0.00    +0.148 C 
ATOM     25  C   UNL     1      36.281 -20.450 -18.509  0.00  0.00    +0.045 C 
ATOM     26  C   UNL     1      36.432 -21.322 -17.435  0.00  0.00    +0.173 C 
ATOM     27  C   UNL     1      34.092 -21.889 -17.592  0.00  0.00    +0.059 C 
ATOM     28  C   UNL     1      35.336 -22.042 -16.976  0.00  0.00    +0.174 C 
ATOM     29  C   UNL     1      33.599 -19.295 -20.802  0.00  0.00    +0.058 C 
ATOM     30  C   UNL     1      32.566 -20.048 -20.282  0.00  0.00    +0.102 C 
BRANCH  26  31
ATOM     31  O   UNL     1      37.652 -21.460 -16.845  0.00  0.00    -0.468 OA
ATOM     32  C   UNL     1      37.706 -21.331 -15.425  0.00  0.00    +0.253 C 
ENDBRANCH  26  31
BRANCH  28  33
ATOM     33  O   UNL     1      35.461 -22.901 -15.925  0.00  0.00    -0.468 OA
ATOM     34  C   UNL     1      34.305 -23.109 -15.117  0.00  0.00    +0.253 C 
ENDBRANCH  28  33
ENDBRANCH  20  24
ENDBRANCH   2  20
TORSDOF 5
ENDMDL
MODEL 3
REMARK VINA RESULT:     -11.8      2.548     11.186
REMARK  Name = 9911830
REMARK  5 active torsions:
REMARK  status: ('A' for Active; 'I' for Inactive)
REMARK    1  A    between atoms: C_2  and  O_20
REMARK    2  A    between atoms: C_3  and  N_10
REMARK    3  A    between atoms: O_20  and  C_24
REMARK    4  A    between atoms: C_26  and  O_31
REMARK    5  A    between atoms: C_28  and  O_33
REMARK                            x       y       z     vdW  Elec       q    Type
REMARK                         _______ _______ _______ _____ _____    ______ ____
ROOT
ATOM      1 CL   UNL     1      37.842 -18.292 -20.834  0.00  0.00    -0.081 Cl
ATOM      2  C   UNL     1      35.505 -20.903 -18.955  0.00  0.00    +0.146 C 
ATOM      3  C   UNL     1      35.156 -18.743 -20.649  0.00  0.00    +0.062 C 
ATOM      4  C   UNL     1      36.617 -20.220 -19.415  0.00  0.00    +0.050 C 
ATOM      5  C   UNL     1      34.223 -20.532 -19.322  0.00  0.00    +0.039 C 
ATOM      6  C   UNL     1      36.441 -19.132 -20.269  0.00  0.00    +0.074 C 
ATOM      7  C   UNL     1      34.048 -19.444 -20.177  0.00  0.00    +0.019 C 
ENDROOT
BRANCH   3  10
ATOM      8  O   UNL     1      34.556 -12.052 -21.978  0.00  0.00    -0.357 OA
ATOM      9  O   UNL     1      35.096 -15.814 -20.069  0.00  0.00    -0.252 OA
ATOM     10  N   UNL     1      34.946 -17.658 -21.506  0.00  0.00    -0.267 N 
ATOM     11  N   UNL     1      34.681 -15.528 -22.352  0.00  0.00    -0.251 N 
ATOM     12  N   UNL     1      34.720 -13.322 -21.439  0.00  0.00    -0.062 NA
ATOM     13  C   UNL     1      34.926 -16.279 -21.191  0.00  0.00    +0.309 C 
ATOM     14  C   UNL     1      34.583 -14.122 -22.477  0.00  0.00    +0.177 C 
ATOM     15  C   UNL     1      34.336 -13.478 -23.678  0.00  0.00    +0.073 C 
ATOM     16  C   UNL     1      34.328 -12.158 -23.313  0.00  0.00    +0.156 C 
ATOM     17  C   UNL     1      34.130 -10.901 -24.045  0.00  0.00    +0.075 C 
ATOM     18  H   UNL     1      34.794 -17.883 -22.452  0.00  0.00    +0.156 HD
ATOM     19  H   UNL     1      34.564 -16.044 -23.184  0.00  0.00    +0.158 HD
ENDBRANCH   3  10
BRANCH   2  20
ATOM     20  O   UNL     1      35.678 -21.982 -18.106  0.00  0.00    -0.453 OA
BRANCH  20  24
ATOM     21  N   UNL     1      32.768 -22.564 -15.210  0.00  0.00    -0.244 NA
ATOM     22  C   UNL     1      35.099 -22.412 -15.801  0.00  0.00    +0.055 C 
ATOM     23  C   UNL     1      34.067 -22.603 -14.859  0.00  0.00    +0.087 C 
ATOM     24  C   UNL     1      34.738 -22.177 -17.136  0.00  0.00    +0.148 C 
ATOM     25  C   UNL     1      36.445 -22.459 -15.400  0.00  0.00    +0.045 C 
ATOM     26  C   UNL     1      36.775 -22.693 -14.069  0.00  0.00    +0.173 C 
ATOM     27  C   UNL     1      34.426 -22.836 -13.534  0.00  0.00    +0.059 C 
ATOM     28  C   UNL     1      35.764 -22.882 -13.135  0.00  0.00    +0.174 C 
ATOM     29  C   UNL     1      33.400 -22.137 -17.500  0.00  0.00    +0.058 C 
ATOM     30  C   UNL     1      32.462 -22.335 -16.507  0.00  0.00    +0.102 C 
BRANCH  26  31
ATOM     31  O   UNL     1      38.084 -22.735 -13.696  0.00  0.00    -0.468 OA
ATOM     32  C   UNL     1      38.845 -23.864 -14.124  0.00  0.00    +0.253 C 
ENDBRANCH  26  31
BRANCH  28  33
ATOM     33  O   UNL     1      36.064 -23.114 -11.826  0.00  0.00    -0.468 OA
ATOM     34  C   UNL     1      36.333 -24.463 -11.451  0.00  0.00    +0.253 C 
ENDBRANCH  28  33
ENDBRANCH  20  24
ENDBRANCH   2  20
TORSDOF 5
ENDMDL
MODEL 4
REMARK VINA RESULT:     -11.6      2.334     11.330
REMARK  Name = 9911830
REMARK  5 active torsions:
REMARK  status: ('A' for Active; 'I' for Inactive)
REMARK    1  A    between atoms: C_2  and  O_20
REMARK    2  A    between atoms: C_3  and  N_10
REMARK    3  A    between atoms: O_20  and  C_24
REMARK    4  A    between atoms: C_26  and  O_31
REMARK    5  A    between atoms: C_28  and  O_33
REMARK                            x       y       z     vdW  Elec       q    Type
REMARK                         _______ _______ _______ _____ _____    ______ ____
ROOT
ATOM      1 CL   UNL     1      32.819 -19.565 -20.350  0.00  0.00    -0.081 Cl
ATOM      2  C   UNL     1      35.982 -20.977 -18.397  0.00  0.00    +0.146 C 
ATOM      3  C   UNL     1      35.475 -18.949 -20.212  0.00  0.00    +0.062 C 
ATOM      4  C   UNL     1      34.693 -20.796 -18.865  0.00  0.00    +0.050 C 
ATOM      5  C   UNL     1      37.024 -20.167 -18.815  0.00  0.00    +0.039 C 
ATOM      6  C   UNL     1      34.436 -19.775 -19.779  0.00  0.00    +0.074 C 
ATOM      7  C   UNL     1      36.768 -19.145 -19.729  0.00  0.00    +0.019 C 
ENDROOT
BRANCH   3  10
ATOM      8  O   UNL     1      34.510 -12.373 -21.858  0.00  0.00    -0.357 OA
ATOM      9  O   UNL     1      35.172 -16.013 -19.760  0.00  0.00    -0.252 OA
ATOM     10  N   UNL     1      35.251 -17.915 -21.126  0.00  0.00    -0.267 N 
ATOM     11  N   UNL     1      34.900 -15.843 -22.076  0.00  0.00    -0.251 N 
ATOM     12  N   UNL     1      34.724 -13.607 -21.256  0.00  0.00    -0.062 NA
ATOM     13  C   UNL     1      35.114 -16.530 -20.871  0.00  0.00    +0.309 C 
ATOM     14  C   UNL     1      34.714 -14.453 -22.266  0.00  0.00    +0.177 C 
ATOM     15  C   UNL     1      34.509 -13.873 -23.507  0.00  0.00    +0.073 C 
ATOM     16  C   UNL     1      34.384 -12.544 -23.199  0.00  0.00    +0.156 C 
ATOM     17  C   UNL     1      34.152 -11.333 -23.996  0.00  0.00    +0.075 C 
ATOM     18  H   UNL     1      35.181 -18.185 -22.069  0.00  0.00    +0.156 HD
ATOM     19  H   UNL     1      34.878 -16.396 -22.891  0.00  0.00    +0.158 HD
ENDBRANCH   3  10
BRANCH   2  20
ATOM     20  O   UNL     1      36.238 -21.991 -17.492  0.00  0.00    -0.453 OA
BRANCH  20  24
ATOM     21  N   UNL     1      33.169 -22.969 -14.881  0.00  0.00    -0.244 NA
ATOM     22  C   UNL     1      35.530 -22.766 -15.317  0.00  0.00    +0.055 C 
ATOM     23  C   UNL     1      34.447 -23.084 -14.473  0.00  0.00    +0.087 C 
ATOM     24  C   UNL     1      35.245 -22.319 -16.615  0.00  0.00    +0.148 C 
ATOM     25  C   UNL     1      36.851 -22.898 -14.858  0.00  0.00    +0.045 C 
ATOM     26  C   UNL     1      37.106 -23.344 -13.565  0.00  0.00    +0.173 C 
ATOM     27  C   UNL     1      34.730 -23.528 -13.184  0.00  0.00    +0.059 C 
ATOM     28  C   UNL     1      36.044 -23.660 -12.727  0.00  0.00    +0.174 C 
ATOM     29  C   UNL     1      33.929 -22.199 -17.039  0.00  0.00    +0.058 C 
ATOM     30  C   UNL     1      32.936 -22.534 -16.141  0.00  0.00    +0.102 C 
BRANCH  26  31
ATOM     31  O   UNL     1      38.393 -23.467 -13.135  0.00  0.00    -0.468 OA
ATOM     32  C   UNL     1      39.065 -24.688 -13.438  0.00  0.00    +0.253 C 
ENDBRANCH  26  31
BRANCH  28  33
ATOM     33  O   UNL     1      36.269 -24.098 -11.456  0.00  0.00    -0.468 OA
ATOM     34  C   UNL     1      36.151 -23.138 -10.409  0.00  0.00    +0.253 C 
ENDBRANCH  28  33
ENDBRANCH  20  24
ENDBRANCH   2  20
TORSDOF 5
ENDMDL
MODEL 5
REMARK VINA RESULT:     -11.5      3.395      3.776
REMARK  Name = 9911830
REMARK  5 active torsions:
REMARK  status: ('A' for Active; 'I' for Inactive)
REMARK    1  A    between atoms: C_2  and  O_20
REMARK    2  A    between atoms: C_3  and  N_10
REMARK    3  A    between atoms: O_20  and  C_24
REMARK    4  A    between atoms: C_26  and  O_31
REMARK    5  A    between atoms: C_28  and  O_33
REMARK                            x       y       z     vdW  Elec       q    Type
REMARK                         _______ _______ _______ _____ _____    ______ ____
ROOT
ATOM      1 CL   UNL     1      37.038 -21.179 -17.768  0.00  0.00    -0.081 Cl
ATOM      2  C   UNL     1      35.656 -18.941 -20.749  0.00  0.00    +0.146 C 
ATOM      3  C   UNL     1      34.594 -20.675 -18.872  0.00  0.00    +0.062 C 
ATOM      4  C   UNL     1      36.501 -19.553 -19.841  0.00  0.00    +0.050 C 
ATOM      5  C   UNL     1      34.292 -19.175 -20.742  0.00  0.00    +0.039 C 
ATOM      6  C   UNL     1      35.966 -20.426 -18.894  0.00  0.00    +0.074 C 
ATOM      7  C   UNL     1      33.757 -20.048 -19.795  0.00  0.00    +0.019 C 
ENDROOT
BRANCH   3  10
ATOM      8  O   UNL     1      29.338 -23.108 -15.219  0.00  0.00    -0.357 OA
ATOM      9  O   UNL     1      31.779 -20.880 -17.896  0.00  0.00    -0.252 OA
ATOM     10  N   UNL     1      34.025 -21.543 -17.935  0.00  0.00    -0.267 N 
ATOM     11  N   UNL     1      32.540 -22.631 -16.545  0.00  0.00    -0.251 N 
ATOM     12  N   UNL     1      30.208 -22.435 -16.067  0.00  0.00    -0.062 NA
ATOM     13  C   UNL     1      32.681 -21.610 -17.499  0.00  0.00    +0.309 C 
ATOM     14  C   UNL     1      31.366 -23.028 -15.861  0.00  0.00    +0.177 C 
ATOM     15  C   UNL     1      31.335 -24.055 -14.933  0.00  0.00    +0.073 C 
ATOM     16  C   UNL     1      30.021 -24.072 -14.549  0.00  0.00    +0.156 C 
ATOM     17  C   UNL     1      29.248 -24.886 -13.603  0.00  0.00    +0.075 C 
ATOM     18  H   UNL     1      34.640 -22.194 -17.527  0.00  0.00    +0.156 HD
ATOM     19  H   UNL     1      33.358 -23.134 -16.326  0.00  0.00    +0.158 HD
ENDBRANCH   3  10
BRANCH   2  20
ATOM     20  O   UNL     1      36.186 -18.076 -21.690  0.00  0.00    -0.453 OA
BRANCH  20  24
ATOM     21  N   UNL     1      33.960 -17.442 -25.131  0.00  0.00    -0.244 NA
ATOM     22  C   UNL     1      34.986 -16.560 -23.137  0.00  0.00    +0.055 C 
ATOM     23  C   UNL     1      34.234 -16.403 -24.319  0.00  0.00    +0.087 C 
ATOM     24  C   UNL     1      35.451 -17.843 -22.817  0.00  0.00    +0.148 C 
ATOM     25  C   UNL     1      35.253 -15.453 -22.313  0.00  0.00    +0.045 C 
ATOM     26  C   UNL     1      34.779 -14.190 -22.656  0.00  0.00    +0.173 C 
ATOM     27  C   UNL     1      33.771 -15.129 -24.638  0.00  0.00    +0.059 C 
ATOM     28  C   UNL     1      34.038 -14.028 -23.819  0.00  0.00    +0.174 C 
ATOM     29  C   UNL     1      35.170 -18.916 -23.650  0.00  0.00    +0.058 C 
ATOM     30  C   UNL     1      34.427 -18.664 -24.786  0.00  0.00    +0.102 C 
BRANCH  26  31
ATOM     31  O   UNL     1      35.047 -13.127 -21.847  0.00  0.00    -0.468 OA
ATOM     32  C   UNL     1      34.288 -13.019 -20.644  0.00  0.00    +0.253 C 
ENDBRANCH  26  31
BRANCH  28  33
ATOM     33  O   UNL     1      33.564 -12.801 -24.174  0.00  0.00    -0.468 OA
ATOM     34  C   UNL     1      33.842 -12.357 -25.500  0.00  0.00    +0.253 C 
ENDBRANCH  28  33
ENDBRANCH  20  24
ENDBRANCH   2  20
TORSDOF 5
ENDMDL
MODEL 6
REMARK VINA RESULT:     -11.2      2.643     11.312
REMARK  Name = 9911830
REMARK  5 active torsions:
REMARK  status: ('A' for Active; 'I' for Inactive)
REMARK    1  A    between atoms: C_2  and  O_20
REMARK    2  A    between atoms: C_3  and  N_10
REMARK    3  A    between atoms: O_20  and  C_24
REMARK    4  A    between atoms: C_26  and  O_31
REMARK    5  A    between atoms: C_28  and  O_33
REMARK                            x       y       z     vdW  Elec       q    Type
REMARK                         _______ _______ _______ _____ _____    ______ ____
ROOT
ATOM      1 CL   UNL     1      37.589 -18.668 -20.576  0.00  0.00    -0.081 Cl
ATOM      2  C   UNL     1      35.036 -21.043 -18.667  0.00  0.00    +0.146 C 
ATOM      3  C   UNL     1      34.875 -18.917 -20.431  0.00  0.00    +0.062 C 
ATOM      4  C   UNL     1      36.202 -20.457 -19.125  0.00  0.00    +0.050 C 
ATOM      5  C   UNL     1      33.791 -20.592 -19.070  0.00  0.00    +0.039 C 
ATOM      6  C   UNL     1      36.122 -19.386 -20.015  0.00  0.00    +0.074 C 
ATOM      7  C   UNL     1      33.711 -19.521 -19.960  0.00  0.00    +0.019 C 
ENDROOT
BRANCH   3  10
ATOM      8  O   UNL     1      34.616 -12.244 -21.946  0.00  0.00    -0.357 OA
ATOM      9  O   UNL     1      34.893 -15.974 -19.922  0.00  0.00    -0.252 OA
ATOM     10  N   UNL     1      34.760 -17.846 -21.324  0.00  0.00    -0.267 N 
ATOM     11  N   UNL     1      34.630 -15.731 -22.233  0.00  0.00    -0.251 N 
ATOM     12  N   UNL     1      34.699 -13.505 -21.369  0.00  0.00    -0.062 NA
ATOM     13  C   UNL     1      34.774 -16.460 -21.042  0.00  0.00    +0.309 C 
ATOM     14  C   UNL     1      34.594 -14.325 -22.395  0.00  0.00    +0.177 C 
ATOM     15  C   UNL     1      34.446 -13.702 -23.623  0.00  0.00    +0.073 C 
ATOM     16  C   UNL     1      34.466 -12.374 -23.289  0.00  0.00    +0.156 C 
ATOM     17  C   UNL     1      34.362 -11.130 -24.061  0.00  0.00    +0.075 C 
ATOM     18  H   UNL     1      34.657 -18.089 -22.272  0.00  0.00    +0.156 HD
ATOM     19  H   UNL     1      34.544 -16.262 -23.058  0.00  0.00    +0.158 HD
ENDBRANCH   3  10
BRANCH   2  20
ATOM     20  O   UNL     1      35.114 -22.105 -17.783  0.00  0.00    -0.453 OA
BRANCH  20  24
ATOM     21  N   UNL     1      37.681 -21.657 -14.557  0.00  0.00    -0.244 NA
ATOM     22  C   UNL     1      35.595 -22.473 -15.445  0.00  0.00    +0.055 C 
ATOM     23  C   UNL     1      36.506 -22.292 -14.385  0.00  0.00    +0.087 C 
ATOM     24  C   UNL     1      35.943 -21.969 -16.707  0.00  0.00    +0.148 C 
ATOM     25  C   UNL     1      34.377 -23.140 -15.229  0.00  0.00    +0.045 C 
ATOM     26  C   UNL     1      34.058 -23.630 -13.967  0.00  0.00    +0.173 C 
ATOM     27  C   UNL     1      36.161 -22.792 -13.132  0.00  0.00    +0.059 C 
ATOM     28  C   UNL     1      34.951 -23.456 -12.917  0.00  0.00    +0.174 C 
ATOM     29  C   UNL     1      37.152 -21.314 -16.888  0.00  0.00    +0.058 C 
ATOM     30  C   UNL     1      37.979 -21.186 -15.790  0.00  0.00    +0.102 C 
BRANCH  26  31
ATOM     31  O   UNL     1      32.873 -24.275 -13.774  0.00  0.00    -0.468 OA
ATOM     32  C   UNL     1      31.693 -23.475 -13.761  0.00  0.00    +0.253 C 
ENDBRANCH  26  31
BRANCH  28  33
ATOM     33  O   UNL     1      34.659 -23.928 -11.673  0.00  0.00    -0.468 OA
ATOM     34  C   UNL     1      35.717 -23.935 -10.717  0.00  0.00    +0.253 C 
ENDBRANCH  28  33
ENDBRANCH  20  24
ENDBRANCH   2  20
TORSDOF 5
ENDMDL
MODEL 7
REMARK VINA RESULT:     -11.2      1.558      2.408
REMARK  Name = 9911830
REMARK  5 active torsions:
REMARK  status: ('A' for Active; 'I' for Inactive)
REMARK    1  A    between atoms: C_2  and  O_20
REMARK    2  A    between atoms: C_3  and  N_10
REMARK    3  A    between atoms: O_20  and  C_24
REMARK    4  A    between atoms: C_26  and  O_31
REMARK    5  A    between atoms: C_28  and  O_33
REMARK                            x       y       z     vdW  Elec       q    Type
REMARK                         _______ _______ _______ _____ _____    ______ ____
ROOT
ATOM      1 CL   UNL     1      32.922 -21.013 -18.539  0.00  0.00    -0.081 Cl
ATOM      2  C   UNL     1      35.615 -18.938 -20.601  0.00  0.00    +0.146 C 
ATOM      3  C   UNL     1      35.638 -20.743 -18.502  0.00  0.00    +0.062 C 
ATOM      4  C   UNL     1      34.418 -19.461 -20.147  0.00  0.00    +0.050 C 
ATOM      5  C   UNL     1      36.825 -19.297 -20.030  0.00  0.00    +0.039 C 
ATOM      6  C   UNL     1      34.428 -20.371 -19.090  0.00  0.00    +0.074 C 
ATOM      7  C   UNL     1      36.835 -20.207 -18.973  0.00  0.00    +0.019 C 
ENDROOT
BRANCH   3  10
ATOM      8  O   UNL     1      38.224 -23.142 -12.633  0.00  0.00    -0.357 OA
ATOM      9  O   UNL     1      37.449 -20.849 -16.130  0.00  0.00    -0.252 OA
ATOM     10  N   UNL     1      35.683 -21.654 -17.443  0.00  0.00    -0.267 N 
ATOM     11  N   UNL     1      36.259 -22.762 -15.503  0.00  0.00    -0.251 N 
ATOM     12  N   UNL     1      37.900 -22.453 -13.795  0.00  0.00    -0.062 NA
ATOM     13  C   UNL     1      36.559 -21.669 -16.332  0.00  0.00    +0.309 C 
ATOM     14  C   UNL     1      36.893 -23.140 -14.296  0.00  0.00    +0.177 C 
ATOM     15  C   UNL     1      36.517 -24.245 -13.550  0.00  0.00    +0.073 C 
ATOM     16  C   UNL     1      37.393 -24.208 -12.498  0.00  0.00    +0.156 C 
ATOM     17  C   UNL     1      37.597 -25.052 -11.314  0.00  0.00    +0.075 C 
ATOM     18  H   UNL     1      35.018 -22.379 -17.473  0.00  0.00    +0.156 HD
ATOM     19  H   UNL     1      35.515 -23.337 -15.798  0.00  0.00    +0.158 HD
ENDBRANCH   3  10
BRANCH   2  20
ATOM     20  O   UNL     1      35.606 -18.035 -21.648  0.00  0.00    -0.453 OA
BRANCH  20  24
ATOM     21  N   UNL     1      34.701 -14.102 -20.694  0.00  0.00    -0.244 NA
ATOM     22  C   UNL     1      34.745 -15.880 -22.319  0.00  0.00    +0.055 C 
ATOM     23  C   UNL     1      34.458 -14.554 -21.939  0.00  0.00    +0.087 C 
ATOM     24  C   UNL     1      35.300 -16.736 -21.357  0.00  0.00    +0.148 C 
ATOM     25  C   UNL     1      34.478 -16.318 -23.628  0.00  0.00    +0.045 C 
ATOM     26  C   UNL     1      33.927 -15.447 -24.562  0.00  0.00    +0.173 C 
ATOM     27  C   UNL     1      33.907 -13.703 -22.894  0.00  0.00    +0.059 C 
ATOM     28  C   UNL     1      33.641 -14.138 -24.195  0.00  0.00    +0.174 C 
ATOM     29  C   UNL     1      35.552 -16.274 -20.074  0.00  0.00    +0.058 C 
ATOM     30  C   UNL     1      35.237 -14.960 -19.796  0.00  0.00    +0.102 C 
BRANCH  26  31
ATOM     31  O   UNL     1      33.674 -15.887 -25.826  0.00  0.00    -0.468 OA
ATOM     32  C   UNL     1      32.813 -17.017 -25.960  0.00  0.00    +0.253 C 
ENDBRANCH  26  31
BRANCH  28  33
ATOM     33  O   UNL     1      33.100 -13.268 -25.094  0.00  0.00    -0.468 OA
ATOM     34  C   UNL     1      33.862 -12.104 -25.408  0.00  0.00    +0.253 C 
ENDBRANCH  28  33
ENDBRANCH  20  24
ENDBRANCH   2  20
TORSDOF 5
ENDMDL
MODEL 8
REMARK VINA RESULT:     -11.2      2.673     11.484
REMARK  Name = 9911830
REMARK  5 active torsions:
REMARK  status: ('A' for Active; 'I' for Inactive)
REMARK    1  A    between atoms: C_2  and  O_20
REMARK    2  A    between atoms: C_3  and  N_10
REMARK    3  A    between atoms: O_20  and  C_24
REMARK    4  A    between atoms: C_26  and  O_31
REMARK    5  A    between atoms: C_28  and  O_33
REMARK                            x       y       z     vdW  Elec       q    Type
REMARK                         _______ _______ _______ _____ _____    ______ ____
ROOT
ATOM      1 CL   UNL     1      37.457 -19.343 -19.871  0.00  0.00    -0.081 Cl
ATOM      2  C   UNL     1      34.514 -21.665 -18.545  0.00  0.00    +0.146 C 
ATOM      3  C   UNL     1      34.730 -19.317 -19.994  0.00  0.00    +0.062 C 
ATOM      4  C   UNL     1      35.770 -21.150 -18.814  0.00  0.00    +0.050 C 
ATOM      5  C   UNL     1      33.363 -21.033 -18.984  0.00  0.00    +0.039 C 
ATOM      6  C   UNL     1      35.879 -19.968 -19.545  0.00  0.00    +0.074 C 
ATOM      7  C   UNL     1      33.473 -19.851 -19.715  0.00  0.00    +0.019 C 
ENDROOT
BRANCH   3  10
ATOM      8  O   UNL     1      34.147 -15.680 -25.767  0.00  0.00    -0.357 OA
ATOM      9  O   UNL     1      34.170 -18.805 -22.883  0.00  0.00    -0.252 OA
ATOM     10  N   UNL     1      34.805 -18.131 -20.731  0.00  0.00    -0.267 N 
ATOM     11  N   UNL     1      34.730 -16.580 -22.437  0.00  0.00    -0.251 N 
ATOM     12  N   UNL     1      34.182 -16.637 -24.760  0.00  0.00    -0.062 NA
ATOM     13  C   UNL     1      34.529 -17.928 -22.104  0.00  0.00    +0.309 C 
ATOM     14  C   UNL     1      34.567 -15.959 -23.698  0.00  0.00    +0.177 C 
ATOM     15  C   UNL     1      34.794 -14.611 -23.920  0.00  0.00    +0.073 C 
ATOM     16  C   UNL     1      34.514 -14.477 -25.254  0.00  0.00    +0.156 C 
ATOM     17  C   UNL     1      34.532 -13.344 -26.188  0.00  0.00    +0.075 C 
ATOM     18  H   UNL     1      35.084 -17.332 -20.229  0.00  0.00    +0.156 HD
ATOM     19  H   UNL     1      35.021 -15.992 -21.701  0.00  0.00    +0.158 HD
ENDBRANCH   3  10
BRANCH   2  20
ATOM     20  O   UNL     1      34.404 -22.837 -17.818  0.00  0.00    -0.453 OA
BRANCH  20  24
ATOM     21  N   UNL     1      32.317 -22.645 -14.240  0.00  0.00    -0.244 NA
ATOM     22  C   UNL     1      34.376 -23.078 -15.416  0.00  0.00    +0.055 C 
ATOM     23  C   UNL     1      33.617 -22.996 -14.230  0.00  0.00    +0.087 C 
ATOM     24  C   UNL     1      33.738 -22.781 -16.628  0.00  0.00    +0.148 C 
ATOM     25  C   UNL     1      35.731 -23.449 -15.368  0.00  0.00    +0.045 C 
ATOM     26  C   UNL     1      36.339 -23.738 -14.150  0.00  0.00    +0.173 C 
ATOM     27  C   UNL     1      34.251 -23.292 -13.026  0.00  0.00    +0.059 C 
ATOM     28  C   UNL     1      35.597 -23.660 -12.978  0.00  0.00    +0.174 C 
ATOM     29  C   UNL     1      32.399 -22.418 -16.642  0.00  0.00    +0.058 C 
ATOM     30  C   UNL     1      31.740 -22.366 -15.431  0.00  0.00    +0.102 C 
BRANCH  26  31
ATOM     31  O   UNL     1      37.653 -24.095 -14.121  0.00  0.00    -0.468 OA
ATOM     32  C   UNL     1      37.955 -25.476 -14.317  0.00  0.00    +0.253 C 
ENDBRANCH  26  31
BRANCH  28  33
ATOM     33  O   UNL     1      36.173 -23.939 -11.774  0.00  0.00    -0.468 OA
ATOM     34  C   UNL     1      36.723 -22.841 -11.049  0.00  0.00    +0.253 C 
ENDBRANCH  28  33
ENDBRANCH  20  24
ENDBRANCH   2  20
TORSDOF 5
ENDMDL
MODEL 9
REMARK VINA RESULT:     -10.7      3.486     11.103
REMARK  Name = 9911830
REMARK  5 active torsions:
REMARK  status: ('A' for Active; 'I' for Inactive)
REMARK    1  A    between atoms: C_2  and  O_20
REMARK    2  A    between atoms: C_3  and  N_10
REMARK    3  A    between atoms: O_20  and  C_24
REMARK    4  A    between atoms: C_26  and  O_31
REMARK    5  A    between atoms: C_28  and  O_33
REMARK                            x       y       z     vdW  Elec       q    Type
REMARK                         _______ _______ _______ _____ _____    ______ ____
ROOT
ATOM      1 CL   UNL     1      37.587 -18.659 -20.414  0.00  0.00    -0.081 Cl
ATOM      2  C   UNL     1      34.901 -21.160 -18.884  0.00  0.00    +0.146 C 
ATOM      3  C   UNL     1      34.863 -18.763 -20.267  0.00  0.00    +0.062 C 
ATOM      4  C   UNL     1      36.099 -20.577 -19.258  0.00  0.00    +0.050 C 
ATOM      5  C   UNL     1      33.684 -20.572 -19.186  0.00  0.00    +0.039 C 
ATOM      6  C   UNL     1      36.080 -19.370 -19.955  0.00  0.00    +0.074 C 
ATOM      7  C   UNL     1      33.666 -19.365 -19.883  0.00  0.00    +0.019 C 
ENDROOT
BRANCH   3  10
ATOM      8  O   UNL     1      34.214 -15.051 -25.985  0.00  0.00    -0.357 OA
ATOM      9  O   UNL     1      34.487 -18.239 -23.183  0.00  0.00    -0.252 OA
ATOM     10  N   UNL     1      34.810 -17.553 -20.966  0.00  0.00    -0.267 N 
ATOM     11  N   UNL     1      34.637 -15.970 -22.636  0.00  0.00    -0.251 N 
ATOM     12  N   UNL     1      34.313 -16.027 -25.001  0.00  0.00    -0.062 NA
ATOM     13  C   UNL     1      34.628 -17.346 -22.354  0.00  0.00    +0.309 C 
ATOM     14  C   UNL     1      34.487 -15.337 -23.892  0.00  0.00    +0.177 C 
ATOM     15  C   UNL     1      34.512 -13.963 -24.062  0.00  0.00    +0.073 C 
ATOM     16  C   UNL     1      34.333 -13.825 -25.413  0.00  0.00    +0.156 C 
ATOM     17  C   UNL     1      34.250 -12.670 -26.315  0.00  0.00    +0.075 C 
ATOM     18  H   UNL     1      34.911 -16.739 -20.422  0.00  0.00    +0.156 HD
ATOM     19  H   UNL     1      34.762 -15.372 -21.863  0.00  0.00    +0.158 HD
ENDBRANCH   3  10
BRANCH   2  20
ATOM     20  O   UNL     1      34.918 -22.357 -18.191  0.00  0.00    -0.453 OA
BRANCH  20  24
ATOM     21  N   UNL     1      35.545 -22.171 -14.096  0.00  0.00    -0.244 NA
ATOM     22  C   UNL     1      34.039 -22.506 -15.947  0.00  0.00    +0.055 C 
ATOM     23  C   UNL     1      34.310 -22.431 -14.566  0.00  0.00    +0.087 C 
ATOM     24  C   UNL     1      35.100 -22.300 -16.840  0.00  0.00    +0.148 C 
ATOM     25  C   UNL     1      32.737 -22.779 -16.401  0.00  0.00    +0.045 C 
ATOM     26  C   UNL     1      31.702 -22.979 -15.493  0.00  0.00    +0.173 C 
ATOM     27  C   UNL     1      33.256 -22.634 -13.679  0.00  0.00    +0.059 C 
ATOM     28  C   UNL     1      31.962 -22.906 -14.131  0.00  0.00    +0.174 C 
ATOM     29  C   UNL     1      36.373 -22.032 -16.360  0.00  0.00    +0.058 C 
ATOM     30  C   UNL     1      36.542 -21.979 -14.991  0.00  0.00    +0.102 C 
BRANCH  26  31
ATOM     31  O   UNL     1      30.446 -23.243 -15.950  0.00  0.00    -0.468 OA
ATOM     32  C   UNL     1      29.557 -22.135 -16.082  0.00  0.00    +0.253 C 
ENDBRANCH  26  31
BRANCH  28  33
ATOM     33  O   UNL     1      30.963 -23.099 -13.223  0.00  0.00    -0.468 OA
ATOM     34  C   UNL     1      30.862 -24.395 -12.636  0.00  0.00    +0.253 C 
ENDBRANCH  28  33
ENDBRANCH  20  24
ENDBRANCH   2  20
TORSDOF 5
ENDMDL
