MODEL 1
REMARK VINA RESULT:     -11.8      0.000      0.000
REMARK  Name = 446346
REMARK  6 active torsions:
REMARK  status: ('A' for Active; 'I' for Inactive)
REMARK    1  A    between atoms: N_1  and  C_20
REMARK    2  A    between atoms: N_2  and  S_8
REMARK    3  A    between atoms: S_8  and  C_11
REMARK    4  A    between atoms: C_12  and  C_14
REMARK    5  A    between atoms: C_20  and  C_22
REMARK    6  A    between atoms: N_21  and  C_28
REMARK                            x       y       z     vdW  Elec       q    Type
REMARK                         _______ _______ _______ _____ _____    ______ ____
ROOT
ATOM      1  N   UNL     1      35.571 -18.585 -20.532  0.00  0.00    +0.389 N 
ATOM      2  N   UNL     1      34.508 -20.975 -19.338  0.00  0.00    -0.160 NA
ATOM      3  C   UNL     1      34.308 -19.171 -21.006  0.00  0.00    -0.058 C 
ATOM      4  C   UNL     1      36.462 -19.631 -20.013  0.00  0.00    -0.058 C 
ATOM      5  C   UNL     1      33.602 -19.923 -19.880  0.00  0.00    +0.073 C 
ATOM      6  C   UNL     1      35.798 -20.392 -18.868  0.00  0.00    +0.073 C 
ATOM      7  H   UNL     1      35.359 -17.936 -19.774  0.00  0.00    -0.080 HD
ENDROOT
BRANCH   2   8
ATOM      8  S   UNL     1      33.778 -22.102 -18.277  0.00  0.00    +0.064 S 
ATOM      9  O   UNL     1      33.929 -23.423 -18.863  0.00  0.00    -0.153 OA
ATOM     10  O   UNL     1      32.454 -21.606 -17.944  0.00  0.00    -0.153 OA
BRANCH   8  11
ATOM     11  C   UNL     1      34.753 -22.033 -16.848  0.00  0.00    +0.141 C 
ATOM     12  C   UNL     1      34.424 -22.855 -15.844  0.00  0.00    +0.021 C 
BRANCH  12  14
ATOM     13 CL   UNL     1      37.330 -23.211 -10.646  0.00  0.00    -0.082 Cl
ATOM     14  C   UNL     1      35.142 -22.942 -14.560  0.00  0.00    +0.001 C 
ATOM     15  C   UNL     1      36.474 -22.565 -14.500  0.00  0.00    +0.001 C 
ATOM     16  C   UNL     1      34.471 -23.401 -13.437  0.00  0.00    +0.001 C 
ATOM     17  C   UNL     1      37.153 -22.649 -13.284  0.00  0.00    +0.011 C 
ATOM     18  C   UNL     1      35.151 -23.485 -12.222  0.00  0.00    +0.011 C 
ATOM     19  C   UNL     1      36.492 -23.108 -12.146  0.00  0.00    +0.058 C 
ENDBRANCH  12  14
ENDBRANCH   8  11
ENDBRANCH   2   8
BRANCH   1  20
ATOM     20  C   UNL     1      36.225 -17.837 -21.605  0.00  0.00    -0.077 C 
BRANCH  20  22
ATOM     21  N   UNL     1      34.146 -14.077 -21.293  0.00  0.00    -0.307 N 
ATOM     22  C   UNL     1      35.938 -16.341 -21.500  0.00  0.00    -0.017 C 
ATOM     23  C   UNL     1      35.197 -16.019 -20.199  0.00  0.00    +0.019 C 
ATOM     24  C   UNL     1      35.109 -15.859 -22.693  0.00  0.00    +0.019 C 
ATOM     25  C   UNL     1      34.870 -14.529 -20.097  0.00  0.00    +0.091 C 
ATOM     26  C   UNL     1      34.776 -14.370 -22.584  0.00  0.00    +0.091 C 
BRANCH  21  28
ATOM     27  N   UNL     1      31.695 -10.663 -20.905  0.00  0.00    -0.242 NA
ATOM     28  C   UNL     1      33.333 -12.945 -21.164  0.00  0.00    +0.051 C 
ATOM     29  C   UNL     1      33.398 -11.897 -22.097  0.00  0.00    +0.035 C 
ATOM     30  C   UNL     1      32.427 -12.820 -20.099  0.00  0.00    +0.035 C 
ATOM     31  C   UNL     1      32.573 -10.798 -21.925  0.00  0.00    +0.100 C 
ATOM     32  C   UNL     1      31.646 -11.680 -20.017  0.00  0.00    +0.100 C 
ENDBRANCH  21  28
ENDBRANCH  20  22
ENDBRANCH   1  20
TORSDOF 6
ENDMDL
MODEL 2
REMARK VINA RESULT:     -11.4      0.768      1.932
REMARK  Name = 446346
REMARK  6 active torsions:
REMARK  status: ('A' for Active; 'I' for Inactive)
REMARK    1  A    between atoms: N_1  and  C_20
REMARK    2  A    between atoms: N_2  and  S_8
REMARK    3  A    between atoms: S_8  and  C_11
REMARK    4  A    between atoms: C_12  and  C_14
REMARK    5  A    between atoms: C_20  and  C_22
REMARK    6  A    between atoms: N_21  and  C_28
REMARK                            x       y       z     vdW  Elec       q    Type
REMARK                         _______ _______ _______ _____ _____    ______ ____
ROOT
ATOM      1  N   UNL     1      35.802 -18.743 -20.991  0.00  0.00    +0.389 N 
ATOM      2  N   UNL     1      34.600 -20.520 -19.077  0.00  0.00    -0.160 NA
ATOM      3  C   UNL     1      36.578 -19.275 -19.862  0.00  0.00    -0.058 C 
ATOM      4  C   UNL     1      34.384 -18.616 -20.629  0.00  0.00    -0.058 C 
ATOM      5  C   UNL     1      36.044 -20.639 -19.430  0.00  0.00    +0.073 C 
ATOM      6  C   UNL     1      33.807 -19.967 -20.212  0.00  0.00    +0.073 C 
ATOM      7  H   UNL     1      35.879 -19.397 -21.770  0.00  0.00    -0.080 HD
ENDROOT
BRANCH   2   8
ATOM      8  S   UNL     1      33.918 -21.881 -18.294  0.00  0.00    +0.064 S 
ATOM      9  O   UNL     1      34.195 -23.048 -19.113  0.00  0.00    -0.153 OA
ATOM     10  O   UNL     1      32.547 -21.552 -17.945  0.00  0.00    -0.153 OA
BRANCH   8  11
ATOM     11  C   UNL     1      34.826 -22.025 -16.827  0.00  0.00    +0.141 C 
ATOM     12  C   UNL     1      34.229 -22.638 -15.797  0.00  0.00    +0.021 C 
BRANCH  12  14
ATOM     13 CL   UNL     1      36.733 -23.534 -10.458  0.00  0.00    -0.082 Cl
ATOM     14  C   UNL     1      34.847 -22.860 -14.479  0.00  0.00    +0.001 C 
ATOM     15  C   UNL     1      34.089 -23.408 -13.456  0.00  0.00    +0.001 C 
ATOM     16  C   UNL     1      36.176 -22.517 -14.285  0.00  0.00    +0.001 C 
ATOM     17  C   UNL     1      34.675 -23.616 -12.208  0.00  0.00    +0.011 C 
ATOM     18  C   UNL     1      36.761 -22.726 -13.037  0.00  0.00    +0.011 C 
ATOM     19  C   UNL     1      36.010 -23.276 -11.998  0.00  0.00    +0.058 C 
ENDBRANCH  12  14
ENDBRANCH   8  11
ENDBRANCH   2   8
BRANCH   1  20
ATOM     20  C   UNL     1      36.340 -17.453 -21.422  0.00  0.00    -0.077 C 
BRANCH  20  22
ATOM     21  N   UNL     1      34.298 -13.691 -21.897  0.00  0.00    -0.307 N 
ATOM     22  C   UNL     1      35.236 -16.411 -21.583  0.00  0.00    -0.017 C 
ATOM     23  C   UNL     1      35.388 -15.656 -22.907  0.00  0.00    +0.019 C 
ATOM     24  C   UNL     1      35.254 -15.414 -20.421  0.00  0.00    +0.019 C 
ATOM     25  C   UNL     1      34.312 -14.583 -23.065  0.00  0.00    +0.091 C 
ATOM     26  C   UNL     1      34.181 -14.337 -20.586  0.00  0.00    +0.091 C 
BRANCH  21  28
ATOM     27  N   UNL     1      32.747  -9.803 -22.442  0.00  0.00    -0.242 NA
ATOM     28  C   UNL     1      33.784 -12.401 -22.078  0.00  0.00    +0.051 C 
ATOM     29  C   UNL     1      32.751 -11.912 -21.262  0.00  0.00    +0.035 C 
ATOM     30  C   UNL     1      34.284 -11.556 -23.081  0.00  0.00    +0.035 C 
ATOM     31  C   UNL     1      32.276 -10.630 -21.482  0.00  0.00    +0.100 C 
ATOM     32  C   UNL     1      33.741 -10.290 -23.219  0.00  0.00    +0.100 C 
ENDBRANCH  21  28
ENDBRANCH  20  22
ENDBRANCH   1  20
TORSDOF 6
ENDMDL
MODEL 3
REMARK VINA RESULT:     -11.0      4.402     11.175
REMARK  Name = 446346
REMARK  6 active torsions:
REMARK  status: ('A' for Active; 'I' for Inactive)
REMARK    1  A    between atoms: N_1  and  C_20
REMARK    2  A    between atoms: N_2  and  S_8
REMARK    3  A    between atoms: S_8  and  C_11
REMARK    4  A    between atoms: C_12  and  C_14
REMARK    5  A    between atoms: C_20  and  C_22
REMARK    6  A    between atoms: N_21  and  C_28
REMARK                            x       y       z     vdW  Elec       q    Type
REMARK                         _______ _______ _______ _____ _____    ______ ____
ROOT
ATOM      1  N   UNL     1      34.606 -20.666 -18.793  0.00  0.00    +0.389 N 
ATOM      2  N   UNL     1      35.600 -19.060 -20.961  0.00  0.00    -0.160 NA
ATOM      3  C   UNL     1      35.943 -20.902 -19.359  0.00  0.00    -0.058 C 
ATOM      4  C   UNL     1      33.698 -20.135 -19.819  0.00  0.00    -0.058 C 
ATOM      5  C   UNL     1      36.526 -19.612 -19.931  0.00  0.00    +0.073 C 
ATOM      6  C   UNL     1      34.238 -18.830 -20.400  0.00  0.00    +0.073 C 
ATOM      7  H   UNL     1      34.691 -19.974 -18.048  0.00  0.00    -0.080 HD
ENDROOT
BRANCH   2   8
ATOM      8  S   UNL     1      36.231 -17.783 -21.912  0.00  0.00    +0.064 S 
ATOM      9  O   UNL     1      35.844 -18.026 -23.291  0.00  0.00    -0.153 OA
ATOM     10  O   UNL     1      37.635 -17.628 -21.572  0.00  0.00    -0.153 OA
BRANCH   8  11
ATOM     11  C   UNL     1      35.384 -16.381 -21.354  0.00  0.00    +0.141 C 
ATOM     12  C   UNL     1      35.114 -15.431 -22.258  0.00  0.00    +0.021 C 
BRANCH  12  14
ATOM     13 CL   UNL     1      32.211 -10.352 -21.089  0.00  0.00    -0.082 Cl
ATOM     14  C   UNL     1      34.396 -14.177 -21.970  0.00  0.00    +0.001 C 
ATOM     15  C   UNL     1      34.298 -13.209 -22.956  0.00  0.00    +0.001 C 
ATOM     16  C   UNL     1      33.834 -13.989 -20.717  0.00  0.00    +0.001 C 
ATOM     17  C   UNL     1      33.620 -12.021 -22.682  0.00  0.00    +0.011 C 
ATOM     18  C   UNL     1      33.155 -12.801 -20.444  0.00  0.00    +0.011 C 
ATOM     19  C   UNL     1      33.048 -11.817 -21.427  0.00  0.00    +0.058 C 
ENDBRANCH  12  14
ENDBRANCH   8  11
ENDBRANCH   2   8
BRANCH   1  20
ATOM     20  C   UNL     1      34.068 -21.897 -18.216  0.00  0.00    -0.077 C 
BRANCH  20  22
ATOM     21  N   UNL     1      35.372 -23.276 -14.349  0.00  0.00    -0.307 N 
ATOM     22  C   UNL     1      34.329 -21.971 -16.713  0.00  0.00    -0.017 C 
ATOM     23  C   UNL     1      35.832 -22.030 -16.424  0.00  0.00    +0.019 C 
ATOM     24  C   UNL     1      33.643 -23.195 -16.100  0.00  0.00    +0.019 C 
ATOM     25  C   UNL     1      36.109 -22.143 -14.925  0.00  0.00    +0.091 C 
ATOM     26  C   UNL     1      33.928 -23.310 -14.602  0.00  0.00    +0.091 C 
BRANCH  21  28
ATOM     27  N   UNL     1      36.899 -24.987 -10.806  0.00  0.00    -0.242 NA
ATOM     28  C   UNL     1      35.878 -23.843 -13.174  0.00  0.00    +0.051 C 
ATOM     29  C   UNL     1      36.880 -24.826 -13.217  0.00  0.00    +0.035 C 
ATOM     30  C   UNL     1      35.401 -23.448 -11.914  0.00  0.00    +0.035 C 
ATOM     31  C   UNL     1      37.348 -25.356 -12.026  0.00  0.00    +0.100 C 
ATOM     32  C   UNL     1      35.934 -24.040 -10.782  0.00  0.00    +0.100 C 
ENDBRANCH  21  28
ENDBRANCH  20  22
ENDBRANCH   1  20
TORSDOF 6
ENDMDL
MODEL 4
REMARK VINA RESULT:     -10.7      5.024     10.917
REMARK  Name = 446346
REMARK  6 active torsions:
REMARK  status: ('A' for Active; 'I' for Inactive)
REMARK    1  A    between atoms: N_1  and  C_20
REMARK    2  A    between atoms: N_2  and  S_8
REMARK    3  A    between atoms: S_8  and  C_11
REMARK    4  A    between atoms: C_12  and  C_14
REMARK    5  A    between atoms: C_20  and  C_22
REMARK    6  A    between atoms: N_21  and  C_28
REMARK                            x       y       z     vdW  Elec       q    Type
REMARK                         _______ _______ _______ _____ _____    ______ ____
ROOT
ATOM      1  N   UNL     1      35.475 -18.098 -21.448  0.00  0.00    +0.389 N 
ATOM      2  N   UNL     1      34.867 -16.445 -23.721  0.00  0.00    -0.160 NA
ATOM      3  C   UNL     1      35.908 -16.694 -21.500  0.00  0.00    -0.058 C 
ATOM      4  C   UNL     1      35.408 -18.667 -22.801  0.00  0.00    -0.058 C 
ATOM      5  C   UNL     1      34.952 -15.861 -22.352  0.00  0.00    +0.073 C 
ATOM      6  C   UNL     1      34.442 -17.873 -23.678  0.00  0.00    +0.073 C 
ATOM      7  H   UNL     1      34.542 -18.131 -21.038  0.00  0.00    -0.080 HD
ENDROOT
BRANCH   2   8
ATOM      8  S   UNL     1      34.074 -15.475 -24.888  0.00  0.00    +0.064 S 
ATOM      9  O   UNL     1      33.000 -16.265 -25.465  0.00  0.00    -0.153 OA
ATOM     10  O   UNL     1      35.091 -14.899 -25.751  0.00  0.00    -0.153 OA
BRANCH   8  11
ATOM     11  C   UNL     1      33.365 -14.195 -23.964  0.00  0.00    +0.141 C 
ATOM     12  C   UNL     1      34.018 -13.026 -23.937  0.00  0.00    +0.021 C 
BRANCH  12  14
ATOM     13 CL   UNL     1      32.175  -8.165 -21.012  0.00  0.00    -0.082 Cl
ATOM     14  C   UNL     1      33.564 -11.826 -23.214  0.00  0.00    +0.001 C 
ATOM     15  C   UNL     1      32.814 -11.972 -22.058  0.00  0.00    +0.001 C 
ATOM     16  C   UNL     1      33.893 -10.572 -23.705  0.00  0.00    +0.001 C 
ATOM     17  C   UNL     1      32.382 -10.836 -21.375  0.00  0.00    +0.011 C 
ATOM     18  C   UNL     1      33.462  -9.436 -23.021  0.00  0.00    +0.011 C 
ATOM     19  C   UNL     1      32.706  -9.568 -21.855  0.00  0.00    +0.058 C 
ENDBRANCH  12  14
ENDBRANCH   8  11
ENDBRANCH   2   8
BRANCH   1  20
ATOM     20  C   UNL     1      36.375 -18.882 -20.604  0.00  0.00    -0.077 C 
BRANCH  20  22
ATOM     21  N   UNL     1      34.194 -21.358 -17.834  0.00  0.00    -0.307 N 
ATOM     22  C   UNL     1      35.657 -20.075 -19.978  0.00  0.00    -0.017 C 
ATOM     23  C   UNL     1      34.190 -19.739 -19.692  0.00  0.00    +0.019 C 
ATOM     24  C   UNL     1      36.344 -20.507 -18.679  0.00  0.00    +0.019 C 
ATOM     25  C   UNL     1      33.467 -20.912 -19.030  0.00  0.00    +0.091 C 
ATOM     26  C   UNL     1      35.614 -21.675 -18.016  0.00  0.00    +0.091 C 
BRANCH  21  28
ATOM     27  N   UNL     1      31.983 -23.367 -14.852  0.00  0.00    -0.242 NA
ATOM     28  C   UNL     1      33.461 -22.024 -16.845  0.00  0.00    +0.051 C 
ATOM     29  C   UNL     1      34.106 -22.722 -15.811  0.00  0.00    +0.035 C 
ATOM     30  C   UNL     1      32.057 -22.016 -16.855  0.00  0.00    +0.035 C 
ATOM     31  C   UNL     1      33.335 -23.365 -14.857  0.00  0.00    +0.100 C 
ATOM     32  C   UNL     1      31.378 -22.691 -15.854  0.00  0.00    +0.100 C 
ENDBRANCH  21  28
ENDBRANCH  20  22
ENDBRANCH   1  20
TORSDOF 6
ENDMDL
MODEL 5
REMARK VINA RESULT:     -10.5      3.532      5.883
REMARK  Name = 446346
REMARK  6 active torsions:
REMARK  status: ('A' for Active; 'I' for Inactive)
REMARK    1  A    between atoms: N_1  and  C_20
REMARK    2  A    between atoms: N_2  and  S_8
REMARK    3  A    between atoms: S_8  and  C_11
REMARK    4  A    between atoms: C_12  and  C_14
REMARK    5  A    between atoms: C_20  and  C_22
REMARK    6  A    between atoms: N_21  and  C_28
REMARK                            x       y       z     vdW  Elec       q    Type
REMARK                         _______ _______ _______ _____ _____    ______ ____
ROOT
ATOM      1  N   UNL     1      34.204 -13.720 -23.368  0.00  0.00    +0.389 N 
ATOM      2  N   UNL     1      34.984 -16.377 -22.592  0.00  0.00    -0.160 NA
ATOM      3  C   UNL     1      34.177 -14.135 -21.958  0.00  0.00    -0.058 C 
ATOM      4  C   UNL     1      33.954 -14.869 -24.249  0.00  0.00    -0.058 C 
ATOM      5  C   UNL     1      35.223 -15.215 -21.689  0.00  0.00    +0.073 C 
ATOM      6  C   UNL     1      34.996 -15.963 -24.025  0.00  0.00    +0.073 C 
ATOM      7  H   UNL     1      35.131 -13.350 -23.576  0.00  0.00    -0.080 HD
ENDROOT
BRANCH   2   8
ATOM      8  S   UNL     1      35.877 -17.791 -22.226  0.00  0.00    +0.064 S 
ATOM      9  O   UNL     1      37.172 -17.377 -21.715  0.00  0.00    -0.153 OA
ATOM     10  O   UNL     1      35.802 -18.674 -23.376  0.00  0.00    -0.153 OA
BRANCH   8  11
ATOM     11  C   UNL     1      34.996 -18.523 -20.928  0.00  0.00    +0.141 C 
ATOM     12  C   UNL     1      35.449 -19.696 -20.468  0.00  0.00    +0.021 C 
BRANCH  12  14
ATOM     13 CL   UNL     1      32.970 -22.791 -16.011  0.00  0.00    -0.082 Cl
ATOM     14  C   UNL     1      34.837 -20.460 -19.367  0.00  0.00    +0.001 C 
ATOM     15  C   UNL     1      35.654 -21.104 -18.451  0.00  0.00    +0.001 C 
ATOM     16  C   UNL     1      33.456 -20.521 -19.268  0.00  0.00    +0.001 C 
ATOM     17  C   UNL     1      35.074 -21.828 -17.409  0.00  0.00    +0.011 C 
ATOM     18  C   UNL     1      32.877 -21.245 -18.226  0.00  0.00    +0.011 C 
ATOM     19  C   UNL     1      33.686 -21.898 -17.296  0.00  0.00    +0.058 C 
ENDBRANCH  12  14
ENDBRANCH   8  11
ENDBRANCH   2   8
BRANCH   1  20
ATOM     20  C   UNL     1      33.224 -12.663 -23.611  0.00  0.00    -0.077 C 
BRANCH  20  22
ATOM     21  N   UNL     1      32.762  -8.852 -21.656  0.00  0.00    -0.307 N 
ATOM     22  C   UNL     1      33.460 -11.461 -22.700  0.00  0.00    -0.017 C 
ATOM     23  C   UNL     1      32.283 -11.268 -21.738  0.00  0.00    +0.019 C 
ATOM     24  C   UNL     1      33.662 -10.184 -23.521  0.00  0.00    +0.019 C 
ATOM     25  C   UNL     1      32.488 -10.045 -20.844  0.00  0.00    +0.091 C 
ATOM     26  C   UNL     1      33.859  -8.962 -22.624  0.00  0.00    +0.091 C 
BRANCH  21  28
ATOM     27  N   UNL     1      31.859  -5.095 -19.959  0.00  0.00    -0.242 NA
ATOM     28  C   UNL     1      32.462  -7.606 -21.093  0.00  0.00    +0.051 C 
ATOM     29  C   UNL     1      31.762  -6.631 -21.822  0.00  0.00    +0.035 C 
ATOM     30  C   UNL     1      32.853  -7.291 -19.782  0.00  0.00    +0.035 C 
ATOM     31  C   UNL     1      31.490  -5.414 -21.220  0.00  0.00    +0.100 C 
ATOM     32  C   UNL     1      32.532  -6.044 -19.271  0.00  0.00    +0.100 C 
ENDBRANCH  21  28
ENDBRANCH  20  22
ENDBRANCH   1  20
TORSDOF 6
ENDMDL
MODEL 6
REMARK VINA RESULT:     -10.3      3.790      4.692
REMARK  Name = 446346
REMARK  6 active torsions:
REMARK  status: ('A' for Active; 'I' for Inactive)
REMARK    1  A    between atoms: N_1  and  C_20
REMARK    2  A    between atoms: N_2  and  S_8
REMARK    3  A    between atoms: S_8  and  C_11
REMARK    4  A    between atoms: C_12  and  C_14
REMARK    5  A    between atoms: C_20  and  C_22
REMARK    6  A    between atoms: N_21  and  C_28
REMARK                            x       y       z     vdW  Elec       q    Type
REMARK                         _______ _______ _______ _____ _____    ______ ____
ROOT
ATOM      1  N   UNL     1      35.726 -19.375 -19.500  0.00  0.00    +0.389 N 
ATOM      2  N   UNL     1      34.645 -21.680 -18.164  0.00  0.00    -0.160 NA
ATOM      3  C   UNL     1      34.416 -19.923 -19.878  0.00  0.00    -0.058 C 
ATOM      4  C   UNL     1      36.606 -20.439 -18.999  0.00  0.00    -0.058 C 
ATOM      5  C   UNL     1      33.749 -20.609 -18.687  0.00  0.00    +0.073 C 
ATOM      6  C   UNL     1      35.982 -21.136 -17.791  0.00  0.00    +0.073 C 
ATOM      7  H   UNL     1      35.586 -18.694 -18.753  0.00  0.00    -0.080 HD
ENDROOT
BRANCH   2   8
ATOM      8  S   UNL     1      33.937 -22.742 -17.023  0.00  0.00    +0.064 S 
ATOM      9  O   UNL     1      34.600 -22.529 -15.748  0.00  0.00    -0.153 OA
ATOM     10  O   UNL     1      33.909 -24.070 -17.610  0.00  0.00    -0.153 OA
BRANCH   8  11
ATOM     11  C   UNL     1      32.304 -22.183 -16.880  0.00  0.00    +0.141 C 
ATOM     12  C   UNL     1      31.521 -22.806 -15.991  0.00  0.00    +0.021 C 
BRANCH  12  14
ATOM     13 CL   UNL     1      25.821 -21.414 -14.918  0.00  0.00    -0.082 Cl
ATOM     14  C   UNL     1      30.113 -22.463 -15.726  0.00  0.00    +0.001 C 
ATOM     15  C   UNL     1      29.169 -22.655 -16.721  0.00  0.00    +0.001 C 
ATOM     16  C   UNL     1      29.760 -21.953 -14.486  0.00  0.00    +0.001 C 
ATOM     17  C   UNL     1      27.836 -22.329 -16.470  0.00  0.00    +0.011 C 
ATOM     18  C   UNL     1      28.427 -21.628 -14.235  0.00  0.00    +0.011 C 
ATOM     19  C   UNL     1      27.465 -21.816 -15.228  0.00  0.00    +0.058 C 
ENDBRANCH  12  14
ENDBRANCH   8  11
ENDBRANCH   2   8
BRANCH   1  20
ATOM     20  C   UNL     1      36.343 -18.689 -20.634  0.00  0.00    -0.077 C 
BRANCH  20  22
ATOM     21  N   UNL     1      34.820 -15.172 -22.600  0.00  0.00    -0.307 N 
ATOM     22  C   UNL     1      35.390 -17.674 -21.261  0.00  0.00    -0.017 C 
ATOM     23  C   UNL     1      35.718 -17.462 -22.742  0.00  0.00    +0.019 C 
ATOM     24  C   UNL     1      35.459 -16.333 -20.525  0.00  0.00    +0.019 C 
ATOM     25  C   UNL     1      34.796 -16.420 -23.375  0.00  0.00    +0.091 C 
ATOM     26  C   UNL     1      34.541 -15.291 -21.165  0.00  0.00    +0.091 C 
BRANCH  21  28
ATOM     27  N   UNL     1      33.804 -11.610 -24.623  0.00  0.00    -0.242 NA
ATOM     28  C   UNL     1      34.483 -13.990 -23.271  0.00  0.00    +0.051 C 
ATOM     29  C   UNL     1      34.612 -12.740 -22.646  0.00  0.00    +0.035 C 
ATOM     30  C   UNL     1      34.005 -14.018 -24.591  0.00  0.00    +0.035 C 
ATOM     31  C   UNL     1      34.266 -11.601 -23.353  0.00  0.00    +0.100 C 
ATOM     32  C   UNL     1      33.686 -12.822 -25.211  0.00  0.00    +0.100 C 
ENDBRANCH  21  28
ENDBRANCH  20  22
ENDBRANCH   1  20
TORSDOF 6
ENDMDL
MODEL 7
REMARK VINA RESULT:     -10.2      3.991      5.583
REMARK  Name = 446346
REMARK  6 active torsions:
REMARK  status: ('A' for Active; 'I' for Inactive)
REMARK    1  A    between atoms: N_1  and  C_20
REMARK    2  A    between atoms: N_2  and  S_8
REMARK    3  A    between atoms: S_8  and  C_11
REMARK    4  A    between atoms: C_12  and  C_14
REMARK    5  A    between atoms: C_20  and  C_22
REMARK    6  A    between atoms: N_21  and  C_28
REMARK                            x       y       z     vdW  Elec       q    Type
REMARK                         _______ _______ _______ _____ _____    ______ ____
ROOT
ATOM      1  N   UNL     1      36.321 -20.745 -17.825  0.00  0.00    +0.389 N 
ATOM      2  N   UNL     1      35.399 -22.610 -15.840  0.00  0.00    -0.160 NA
ATOM      3  C   UNL     1      35.237 -21.692 -18.122  0.00  0.00    -0.058 C 
ATOM      4  C   UNL     1      37.245 -21.314 -16.835  0.00  0.00    -0.058 C 
ATOM      5  C   UNL     1      34.462 -22.047 -16.854  0.00  0.00    +0.073 C 
ATOM      6  C   UNL     1      36.511 -21.662 -15.541  0.00  0.00    +0.073 C 
ATOM      7  H   UNL     1      35.909 -19.898 -17.432  0.00  0.00    -0.080 HD
ENDROOT
BRANCH   2   8
ATOM      8  S   UNL     1      34.660 -23.332 -14.475  0.00  0.00    +0.064 S 
ATOM      9  O   UNL     1      35.374 -22.878 -13.293  0.00  0.00    -0.153 OA
ATOM     10  O   UNL     1      34.532 -24.754 -14.739  0.00  0.00    -0.153 OA
BRANCH   8  11
ATOM     11  C   UNL     1      33.071 -22.646 -14.440  0.00  0.00    +0.141 C 
ATOM     12  C   UNL     1      32.101 -23.322 -15.068  0.00  0.00    +0.021 C 
BRANCH  12  14
ATOM     13 CL   UNL     1      26.393 -21.611 -15.344  0.00  0.00    -0.082 Cl
ATOM     14  C   UNL     1      30.691 -22.898 -15.137  0.00  0.00    +0.001 C 
ATOM     15  C   UNL     1      30.212 -21.981 -14.216  0.00  0.00    +0.001 C 
ATOM     16  C   UNL     1      29.870 -23.427 -16.121  0.00  0.00    +0.001 C 
ATOM     17  C   UNL     1      28.877 -21.581 -14.280  0.00  0.00    +0.011 C 
ATOM     18  C   UNL     1      28.536 -23.027 -16.185  0.00  0.00    +0.011 C 
ATOM     19  C   UNL     1      28.039 -22.104 -15.264  0.00  0.00    +0.058 C 
ENDBRANCH  12  14
ENDBRANCH   8  11
ENDBRANCH   2   8
BRANCH   1  20
ATOM     20  C   UNL     1      37.036 -20.382 -19.047  0.00  0.00    -0.077 C 
BRANCH  20  22
ATOM     21  N   UNL     1      35.387 -17.904 -22.161  0.00  0.00    -0.307 N 
ATOM     22  C   UNL     1      36.352 -19.226 -19.773  0.00  0.00    -0.017 C 
ATOM     23  C   UNL     1      35.100 -19.711 -20.511  0.00  0.00    +0.019 C 
ATOM     24  C   UNL     1      37.308 -18.565 -20.771  0.00  0.00    +0.019 C 
ATOM     25  C   UNL     1      34.425 -18.572 -21.274  0.00  0.00    +0.091 C 
ATOM     26  C   UNL     1      36.627 -17.432 -21.538  0.00  0.00    +0.091 C 
BRANCH  21  28
ATOM     27  N   UNL     1      33.842 -15.867 -25.520  0.00  0.00    -0.242 NA
ATOM     28  C   UNL     1      34.874 -17.229 -23.275  0.00  0.00    +0.051 C 
ATOM     29  C   UNL     1      34.045 -17.882 -24.201  0.00  0.00    +0.035 C 
ATOM     30  C   UNL     1      35.174 -15.876 -23.503  0.00  0.00    +0.035 C 
ATOM     31  C   UNL     1      33.564 -17.169 -25.286  0.00  0.00    +0.100 C 
ATOM     32  C   UNL     1      34.642 -15.253 -24.619  0.00  0.00    +0.100 C 
ENDBRANCH  21  28
ENDBRANCH  20  22
ENDBRANCH   1  20
TORSDOF 6
ENDMDL
MODEL 8
REMARK VINA RESULT:     -10.1      4.134      6.934
REMARK  Name = 446346
REMARK  6 active torsions:
REMARK  status: ('A' for Active; 'I' for Inactive)
REMARK    1  A    between atoms: N_1  and  C_20
REMARK    2  A    between atoms: N_2  and  S_8
REMARK    3  A    between atoms: S_8  and  C_11
REMARK    4  A    between atoms: C_12  and  C_14
REMARK    5  A    between atoms: C_20  and  C_22
REMARK    6  A    between atoms: N_21  and  C_28
REMARK                            x       y       z     vdW  Elec       q    Type
REMARK                         _______ _______ _______ _____ _____    ______ ____
ROOT
ATOM      1  N   UNL     1      33.335 -12.529 -21.670  0.00  0.00    +0.389 N 
ATOM      2  N   UNL     1      34.421 -15.175 -21.969  0.00  0.00    -0.160 NA
ATOM      3  C   UNL     1      33.403 -13.453 -20.528  0.00  0.00    -0.058 C 
ATOM      4  C   UNL     1      33.177 -13.273 -22.926  0.00  0.00    -0.058 C 
ATOM      5  C   UNL     1      34.567 -14.428 -20.687  0.00  0.00    +0.073 C 
ATOM      6  C   UNL     1      34.336 -14.246 -23.132  0.00  0.00    +0.073 C 
ATOM      7  H   UNL     1      34.210 -12.007 -21.712  0.00  0.00    -0.080 HD
ENDROOT
BRANCH   2   8
ATOM      8  S   UNL     1      35.471 -16.513 -22.168  0.00  0.00    +0.064 S 
ATOM      9  O   UNL     1      36.835 -16.019 -22.093  0.00  0.00    -0.153 OA
ATOM     10  O   UNL     1      35.033 -17.251 -23.339  0.00  0.00    -0.153 OA
BRANCH   8  11
ATOM     11  C   UNL     1      35.176 -17.494 -20.772  0.00  0.00    +0.141 C 
ATOM     12  C   UNL     1      34.978 -18.802 -20.977  0.00  0.00    +0.021 C 
BRANCH  12  14
ATOM     13 CL   UNL     1      33.946 -22.801 -16.673  0.00  0.00    -0.082 Cl
ATOM     14  C   UNL     1      34.724 -19.789 -19.913  0.00  0.00    +0.001 C 
ATOM     15  C   UNL     1      35.795 -20.363 -19.248  0.00  0.00    +0.001 C 
ATOM     16  C   UNL     1      33.416 -20.127 -19.599  0.00  0.00    +0.001 C 
ATOM     17  C   UNL     1      35.553 -21.298 -18.242  0.00  0.00    +0.011 C 
ATOM     18  C   UNL     1      33.175 -21.062 -18.593  0.00  0.00    +0.011 C 
ATOM     19  C   UNL     1      34.244 -21.648 -17.914  0.00  0.00    +0.058 C 
ENDBRANCH  12  14
ENDBRANCH   8  11
ENDBRANCH   2   8
BRANCH   1  20
ATOM     20  C   UNL     1      32.241 -11.575 -21.495  0.00  0.00    -0.077 C 
BRANCH  20  22
ATOM     21  N   UNL     1      32.471  -7.305 -22.015  0.00  0.00    -0.307 N 
ATOM     22  C   UNL     1      32.750 -10.136 -21.477  0.00  0.00    -0.017 C 
ATOM     23  C   UNL     1      31.831  -9.244 -20.635  0.00  0.00    +0.019 C 
ATOM     24  C   UNL     1      32.847  -9.573 -22.898  0.00  0.00    +0.019 C 
ATOM     25  C   UNL     1      32.307  -7.792 -20.638  0.00  0.00    +0.091 C 
ATOM     26  C   UNL     1      33.316  -8.118 -22.896  0.00  0.00    +0.091 C 
BRANCH  21  28
ATOM     27  N   UNL     1      32.211  -3.141 -22.648  0.00  0.00    -0.242 NA
ATOM     28  C   UNL     1      32.384  -5.924 -22.225  0.00  0.00    +0.051 C 
ATOM     29  C   UNL     1      32.397  -5.386 -23.522  0.00  0.00    +0.035 C 
ATOM     30  C   UNL     1      32.283  -5.033 -21.146  0.00  0.00    +0.035 C 
ATOM     31  C   UNL     1      32.309  -4.013 -23.676  0.00  0.00    +0.100 C 
ATOM     32  C   UNL     1      32.200  -3.675 -21.406  0.00  0.00    +0.100 C 
ENDBRANCH  21  28
ENDBRANCH  20  22
ENDBRANCH   1  20
TORSDOF 6
ENDMDL
MODEL 9
REMARK VINA RESULT:     -10.0      6.739     12.992
REMARK  Name = 446346
REMARK  6 active torsions:
REMARK  status: ('A' for Active; 'I' for Inactive)
REMARK    1  A    between atoms: N_1  and  C_20
REMARK    2  A    between atoms: N_2  and  S_8
REMARK    3  A    between atoms: S_8  and  C_11
REMARK    4  A    between atoms: C_12  and  C_14
REMARK    5  A    between atoms: C_20  and  C_22
REMARK    6  A    between atoms: N_21  and  C_28
REMARK                            x       y       z     vdW  Elec       q    Type
REMARK                         _______ _______ _______ _____ _____    ______ ____
ROOT
ATOM      1  N   UNL     1      34.348 -13.405 -22.604  0.00  0.00    +0.389 N 
ATOM      2  N   UNL     1      32.555 -11.339 -21.716  0.00  0.00    -0.160 NA
ATOM      3  C   UNL     1      34.194 -12.157 -23.367  0.00  0.00    -0.058 C 
ATOM      4  C   UNL     1      33.101 -13.736 -21.901  0.00  0.00    -0.058 C 
ATOM      5  C   UNL     1      33.811 -11.001 -22.446  0.00  0.00    +0.073 C 
ATOM      6  C   UNL     1      32.697 -12.611 -20.951  0.00  0.00    +0.073 C 
ATOM      7  H   UNL     1      35.083 -13.268 -21.910  0.00  0.00    -0.080 HD
ENDROOT
BRANCH   2   8
ATOM      8  S   UNL     1      31.824 -10.045 -20.867  0.00  0.00    +0.064 S 
ATOM      9  O   UNL     1      32.701  -9.686 -19.766  0.00  0.00    -0.153 OA
ATOM     10  O   UNL     1      30.444 -10.411 -20.602  0.00  0.00    -0.153 OA
BRANCH   8  11
ATOM     11  C   UNL     1      31.825  -8.738 -22.003  0.00  0.00    +0.141 C 
ATOM     12  C   UNL     1      31.944  -7.500 -21.509  0.00  0.00    +0.021 C 
BRANCH  12  14
ATOM     13 CL   UNL     1      32.067  -2.523 -24.794  0.00  0.00    -0.082 Cl
ATOM     14  C   UNL     1      31.973  -6.271 -22.321  0.00  0.00    +0.001 C 
ATOM     15  C   UNL     1      31.949  -6.368 -23.702  0.00  0.00    +0.001 C 
ATOM     16  C   UNL     1      32.027  -5.039 -21.686  0.00  0.00    +0.001 C 
ATOM     17  C   UNL     1      31.978  -5.204 -24.471  0.00  0.00    +0.011 C 
ATOM     18  C   UNL     1      32.056  -3.875 -22.455  0.00  0.00    +0.011 C 
ATOM     19  C   UNL     1      32.031  -3.958 -23.847  0.00  0.00    +0.058 C 
ENDBRANCH  12  14
ENDBRANCH   8  11
ENDBRANCH   2   8
BRANCH   1  20
ATOM     20  C   UNL     1      34.748 -14.500 -23.486  0.00  0.00    -0.077 C 
BRANCH  20  22
ATOM     21  N   UNL     1      35.245 -18.007 -21.034  0.00  0.00    -0.307 N 
ATOM     22  C   UNL     1      35.385 -15.645 -22.702  0.00  0.00    -0.017 C 
ATOM     23  C   UNL     1      34.944 -17.001 -23.263  0.00  0.00    +0.019 C 
ATOM     24  C   UNL     1      35.017 -15.562 -21.218  0.00  0.00    +0.019 C 
ATOM     25  C   UNL     1      35.544 -18.157 -22.465  0.00  0.00    +0.091 C 
ATOM     26  C   UNL     1      35.613 -16.725 -20.423  0.00  0.00    +0.091 C 
BRANCH  21  28
ATOM     27  N   UNL     1      35.236 -21.506 -18.673  0.00  0.00    -0.242 NA
ATOM     28  C   UNL     1      35.242 -19.167 -20.251  0.00  0.00    +0.051 C 
ATOM     29  C   UNL     1      36.442 -19.750 -19.815  0.00  0.00    +0.035 C 
ATOM     30  C   UNL     1      34.038 -19.785 -19.876  0.00  0.00    +0.035 C 
ATOM     31  C   UNL     1      36.386 -20.898 -19.043  0.00  0.00    +0.100 C 
ATOM     32  C   UNL     1      34.089 -20.931 -19.101  0.00  0.00    +0.100 C 
ENDBRANCH  21  28
ENDBRANCH  20  22
ENDBRANCH   1  20
TORSDOF 6
ENDMDL
