MODEL 1
REMARK VINA RESULT:     -11.5      0.000      0.000
REMARK  Name = 24764443
REMARK  5 active torsions:
REMARK  status: ('A' for Active; 'I' for Inactive)
REMARK    1  A    between atoms: C_2  and  C_17
REMARK    2  A    between atoms: C_3  and  N_19
REMARK    3  A    between atoms: C_20  and  C_22
REMARK    4  A    between atoms: C_22  and  C_23
REMARK    5  A    between atoms: C_23  and  C_31
REMARK                            x       y       z     vdW  Elec       q    Type
REMARK                         _______ _______ _______ _____ _____    ______ ____
ROOT
ATOM      1 BR   UNL     1      30.724 -10.022 -19.064  0.00  0.00    -0.049 Br
ATOM      2  C   UNL     1      33.187 -12.195 -21.621  0.00  0.00    +0.068 C 
ATOM      3  C   UNL     1      33.362 -13.401 -20.941  0.00  0.00    +0.055 C 
ATOM      4  C   UNL     1      32.400 -11.189 -21.061  0.00  0.00    +0.012 C 
ATOM      5  C   UNL     1      32.752 -13.600 -19.703  0.00  0.00    +0.015 C 
ATOM      6  C   UNL     1      31.790 -11.386 -19.823  0.00  0.00    +0.035 C 
ATOM      7  C   UNL     1      31.966 -12.592 -19.143  0.00  0.00    +0.008 C 
ENDROOT
BRANCH   2  17
ATOM      8  O   UNL     1      34.333 -12.931 -23.466  0.00  0.00    -0.270 OA
ATOM      9  N   UNL     1      33.787 -10.658 -23.442  0.00  0.00    -0.276 N 
ATOM     10  C   UNL     1      35.461  -9.265 -24.593  0.00  0.00    +0.020 C 
ATOM     11  C   UNL     1      34.158  -8.369 -22.606  0.00  0.00    +0.020 C 
ATOM     12  C   UNL     1      34.842  -8.018 -23.938  0.00  0.00    +0.003 C 
ATOM     13  C   UNL     1      34.414 -10.378 -24.734  0.00  0.00    +0.094 C 
ATOM     14  C   UNL     1      33.142  -9.498 -22.811  0.00  0.00    +0.094 C 
ATOM     15  C   UNL     1      36.071  -8.920 -25.949  0.00  0.00    +0.002 C 
ATOM     16  C   UNL     1      33.487  -7.139 -22.001  0.00  0.00    +0.002 C 
ATOM     17  C   UNL     1      33.814 -11.956 -22.926  0.00  0.00    +0.250 C 
ENDBRANCH   2  17
BRANCH   3  19
ATOM     18  O   UNL     1      35.313 -15.264 -19.619  0.00  0.00    -0.275 OA
ATOM     19  N   UNL     1      34.146 -14.425 -21.482  0.00  0.00    -0.284 N 
ATOM     20  C   UNL     1      35.046 -15.269 -20.817  0.00  0.00    +0.227 C 
ATOM     21  H   UNL     1      34.054 -14.571 -22.452  0.00  0.00    +0.155 HD
BRANCH  20  22
ATOM     22  C   UNL     1      35.694 -16.251 -21.783  0.00  0.00    +0.095 C 
BRANCH  22  23
ATOM     23  C   UNL     1      35.172 -17.670 -21.612  0.00  0.00    +0.095 C 
BRANCH  23  31
ATOM     24  O   UNL     1      34.792 -21.496 -18.340  0.00  0.00    -0.350 OA
ATOM     25  O   UNL     1      37.383 -18.156 -20.906  0.00  0.00    -0.275 OA
ATOM     26  N   UNL     1      35.732 -19.649 -20.250  0.00  0.00    -0.274 N 
ATOM     27  C   UNL     1      34.361 -20.165 -20.322  0.00  0.00    +0.125 C 
ATOM     28  C   UNL     1      36.663 -20.517 -19.527  0.00  0.00    +0.125 C 
ATOM     29  C   UNL     1      33.877 -20.574 -18.937  0.00  0.00    +0.164 C 
ATOM     30  C   UNL     1      36.083 -20.904 -18.174  0.00  0.00    +0.164 C 
ATOM     31  C   UNL     1      36.201 -18.507 -20.895  0.00  0.00    +0.226 C 
ENDBRANCH  23  31
ENDBRANCH  22  23
ENDBRANCH  20  22
ENDBRANCH   3  19
TORSDOF 5
ENDMDL
MODEL 2
REMARK VINA RESULT:     -11.5      4.699     11.389
REMARK  Name = 24764443
REMARK  5 active torsions:
REMARK  status: ('A' for Active; 'I' for Inactive)
REMARK    1  A    between atoms: C_2  and  C_17
REMARK    2  A    between atoms: C_3  and  N_19
REMARK    3  A    between atoms: C_20  and  C_22
REMARK    4  A    between atoms: C_22  and  C_23
REMARK    5  A    between atoms: C_23  and  C_31
REMARK                            x       y       z     vdW  Elec       q    Type
REMARK                         _______ _______ _______ _____ _____    ______ ____
ROOT
ATOM      1 BR   UNL     1      37.165 -23.214 -13.602  0.00  0.00    -0.049 Br
ATOM      2  C   UNL     1      34.778 -22.011 -16.792  0.00  0.00    +0.068 C 
ATOM      3  C   UNL     1      35.656 -21.266 -17.580  0.00  0.00    +0.055 C 
ATOM      4  C   UNL     1      35.228 -22.592 -15.607  0.00  0.00    +0.012 C 
ATOM      5  C   UNL     1      36.983 -21.101 -17.182  0.00  0.00    +0.015 C 
ATOM      6  C   UNL     1      36.554 -22.427 -15.208  0.00  0.00    +0.035 C 
ATOM      7  C   UNL     1      37.432 -21.681 -15.995  0.00  0.00    +0.008 C 
ENDROOT
BRANCH   2  17
ATOM      8  O   UNL     1      33.092 -21.914 -18.345  0.00  0.00    -0.270 OA
ATOM      9  N   UNL     1      32.484 -22.685 -16.223  0.00  0.00    -0.276 N 
ATOM     10  C   UNL     1      30.173 -22.084 -15.619  0.00  0.00    +0.020 C 
ATOM     11  C   UNL     1      31.983 -22.263 -13.847  0.00  0.00    +0.020 C 
ATOM     12  C   UNL     1      30.486 -22.439 -14.155  0.00  0.00    +0.003 C 
ATOM     13  C   UNL     1      31.077 -22.878 -16.572  0.00  0.00    +0.094 C 
ATOM     14  C   UNL     1      32.829 -23.060 -14.845  0.00  0.00    +0.094 C 
ATOM     15  C   UNL     1      28.700 -22.334 -15.935  0.00  0.00    +0.002 C 
ATOM     16  C   UNL     1      32.295 -22.684 -12.414  0.00  0.00    +0.002 C 
ATOM     17  C   UNL     1      33.377 -22.204 -17.184  0.00  0.00    +0.250 C 
ENDBRANCH   2  17
BRANCH   3  19
ATOM     18  O   UNL     1      36.964 -19.174 -19.294  0.00  0.00    -0.275 OA
ATOM     19  N   UNL     1      35.228 -20.675 -18.773  0.00  0.00    -0.284 N 
ATOM     20  C   UNL     1      35.881 -19.696 -19.536  0.00  0.00    +0.227 C 
ATOM     21  H   UNL     1      34.360 -20.984 -19.120  0.00  0.00    +0.155 HD
BRANCH  20  22
ATOM     22  C   UNL     1      35.066 -19.328 -20.768  0.00  0.00    +0.095 C 
BRANCH  22  23
ATOM     23  C   UNL     1      35.342 -17.911 -21.250  0.00  0.00    +0.095 C 
BRANCH  23  31
ATOM     24  O   UNL     1      34.079 -14.035 -24.229  0.00  0.00    -0.350 OA
ATOM     25  O   UNL     1      34.893 -18.839 -23.384  0.00  0.00    -0.275 OA
ATOM     26  N   UNL     1      34.977 -16.524 -23.257  0.00  0.00    -0.274 N 
ATOM     27  C   UNL     1      35.284 -15.285 -22.534  0.00  0.00    +0.125 C 
ATOM     28  C   UNL     1      34.695 -16.334 -24.680  0.00  0.00    +0.125 C 
ATOM     29  C   UNL     1      34.223 -14.230 -22.820  0.00  0.00    +0.164 C 
ATOM     30  C   UNL     1      33.655 -15.239 -24.873  0.00  0.00    +0.164 C 
ATOM     31  C   UNL     1      35.052 -17.809 -22.725  0.00  0.00    +0.226 C 
ENDBRANCH  23  31
ENDBRANCH  22  23
ENDBRANCH  20  22
ENDBRANCH   3  19
TORSDOF 5
ENDMDL
MODEL 3
REMARK VINA RESULT:     -11.2      6.095     12.675
REMARK  Name = 24764443
REMARK  5 active torsions:
REMARK  status: ('A' for Active; 'I' for Inactive)
REMARK    1  A    between atoms: C_2  and  C_17
REMARK    2  A    between atoms: C_3  and  N_19
REMARK    3  A    between atoms: C_20  and  C_22
REMARK    4  A    between atoms: C_22  and  C_23
REMARK    5  A    between atoms: C_23  and  C_31
REMARK                            x       y       z     vdW  Elec       q    Type
REMARK                         _______ _______ _______ _____ _____    ______ ____
ROOT
ATOM      1 BR   UNL     1      31.060 -24.358 -12.291  0.00  0.00    -0.049 Br
ATOM      2  C   UNL     1      34.337 -23.753 -14.784  0.00  0.00    +0.068 C 
ATOM      3  C   UNL     1      33.967 -22.631 -15.526  0.00  0.00    +0.055 C 
ATOM      4  C   UNL     1      33.471 -24.267 -13.819  0.00  0.00    +0.012 C 
ATOM      5  C   UNL     1      32.731 -22.024 -15.304  0.00  0.00    +0.015 C 
ATOM      6  C   UNL     1      32.235 -23.661 -13.598  0.00  0.00    +0.035 C 
ATOM      7  C   UNL     1      31.864 -22.540 -14.340  0.00  0.00    +0.008 C 
ENDROOT
BRANCH   2  17
ATOM      8  O   UNL     1      35.646 -25.338 -15.803  0.00  0.00    -0.270 OA
ATOM      9  N   UNL     1      36.730 -23.957 -14.259  0.00  0.00    -0.276 N 
ATOM     10  C   UNL     1      38.565 -25.104 -13.082  0.00  0.00    +0.020 C 
ATOM     11  C   UNL     1      37.203 -23.293 -11.933  0.00  0.00    +0.020 C 
ATOM     12  C   UNL     1      38.582 -23.966 -12.047  0.00  0.00    +0.003 C 
ATOM     13  C   UNL     1      38.034 -24.599 -14.430  0.00  0.00    +0.094 C 
ATOM     14  C   UNL     1      36.721 -22.833 -13.314  0.00  0.00    +0.094 C 
ATOM     15  C   UNL     1      39.955 -25.714 -13.241  0.00  0.00    +0.002 C 
ATOM     16  C   UNL     1      37.251 -22.121 -10.957  0.00  0.00    +0.002 C 
ATOM     17  C   UNL     1      35.632 -24.413 -14.993  0.00  0.00    +0.250 C 
ENDBRANCH   2  17
BRANCH   3  19
ATOM     18  O   UNL     1      33.524 -22.167 -18.461  0.00  0.00    -0.275 OA
ATOM     19  N   UNL     1      34.820 -22.097 -16.498  0.00  0.00    -0.284 N 
ATOM     20  C   UNL     1      34.562 -21.902 -17.862  0.00  0.00    +0.227 C 
ATOM     21  H   UNL     1      35.712 -21.825 -16.185  0.00  0.00    +0.155 HD
BRANCH  20  22
ATOM     22  C   UNL     1      35.765 -21.292 -18.566  0.00  0.00    +0.095 C 
BRANCH  22  23
ATOM     23  C   UNL     1      35.405 -20.672 -19.909  0.00  0.00    +0.095 C 
BRANCH  23  31
ATOM     24  O   UNL     1      34.828 -16.964 -23.286  0.00  0.00    -0.350 OA
ATOM     25  O   UNL     1      36.814 -18.905 -19.194  0.00  0.00    -0.275 OA
ATOM     26  N   UNL     1      35.360 -18.431 -20.939  0.00  0.00    -0.274 N 
ATOM     27  C   UNL     1      34.220 -18.778 -21.795  0.00  0.00    +0.125 C 
ATOM     28  C   UNL     1      35.812 -17.046 -21.074  0.00  0.00    +0.125 C 
ATOM     29  C   UNL     1      34.489 -18.352 -23.232  0.00  0.00    +0.164 C 
ATOM     30  C   UNL     1      36.019 -16.697 -22.541  0.00  0.00    +0.164 C 
ATOM     31  C   UNL     1      35.927 -19.260 -19.974  0.00  0.00    +0.226 C 
ENDBRANCH  23  31
ENDBRANCH  22  23
ENDBRANCH  20  22
ENDBRANCH   3  19
TORSDOF 5
ENDMDL
MODEL 4
REMARK VINA RESULT:     -10.3      3.354      5.500
REMARK  Name = 24764443
REMARK  5 active torsions:
REMARK  status: ('A' for Active; 'I' for Inactive)
REMARK    1  A    between atoms: C_2  and  C_17
REMARK    2  A    between atoms: C_3  and  N_19
REMARK    3  A    between atoms: C_20  and  C_22
REMARK    4  A    between atoms: C_22  and  C_23
REMARK    5  A    between atoms: C_23  and  C_31
REMARK                            x       y       z     vdW  Elec       q    Type
REMARK                         _______ _______ _______ _____ _____    ______ ____
ROOT
ATOM      1 BR   UNL     1      31.893  -3.598 -20.999  0.00  0.00    -0.049 Br
ATOM      2  C   UNL     1      32.041  -7.753 -21.190  0.00  0.00    +0.068 C 
ATOM      3  C   UNL     1      32.245  -8.123 -19.860  0.00  0.00    +0.055 C 
ATOM      4  C   UNL     1      31.935  -6.404 -21.529  0.00  0.00    +0.012 C 
ATOM      5  C   UNL     1      32.345  -7.145 -18.870  0.00  0.00    +0.015 C 
ATOM      6  C   UNL     1      32.036  -5.426 -20.540  0.00  0.00    +0.035 C 
ATOM      7  C   UNL     1      32.240  -5.796 -19.211  0.00  0.00    +0.008 C 
ENDROOT
BRANCH   2  17
ATOM      8  O   UNL     1      31.062  -9.615 -22.104  0.00  0.00    -0.270 OA
ATOM      9  N   UNL     1      32.815  -8.675 -23.333  0.00  0.00    -0.276 N 
ATOM     10  C   UNL     1      34.103 -10.355 -24.592  0.00  0.00    +0.020 C 
ATOM     11  C   UNL     1      35.221  -8.267 -23.675  0.00  0.00    +0.020 C 
ATOM     12  C   UNL     1      35.214  -9.312 -24.804  0.00  0.00    +0.003 C 
ATOM     13  C   UNL     1      32.744  -9.666 -24.407  0.00  0.00    +0.094 C 
ATOM     14  C   UNL     1      33.833  -7.634 -23.528  0.00  0.00    +0.094 C 
ATOM     15  C   UNL     1      34.056 -11.342 -25.755  0.00  0.00    +0.002 C 
ATOM     16  C   UNL     1      36.280  -7.198 -23.932  0.00  0.00    +0.002 C 
ATOM     17  C   UNL     1      31.931  -8.758 -22.254  0.00  0.00    +0.250 C 
ENDBRANCH   2  17
BRANCH   3  19
ATOM     18  O   UNL     1      30.203  -9.995 -18.697  0.00  0.00    -0.275 OA
ATOM     19  N   UNL     1      32.354  -9.469 -19.496  0.00  0.00    -0.284 N 
ATOM     20  C   UNL     1      31.364 -10.301 -18.953  0.00  0.00    +0.227 C 
ATOM     21  H   UNL     1      33.235  -9.884 -19.637  0.00  0.00    +0.155 HD
BRANCH  20  22
ATOM     22  C   UNL     1      31.902 -11.702 -18.702  0.00  0.00    +0.095 C 
BRANCH  22  23
ATOM     23  C   UNL     1      31.990 -12.532 -19.975  0.00  0.00    +0.095 C 
BRANCH  23  31
ATOM     24  O   UNL     1      35.685 -14.716 -22.634  0.00  0.00    -0.350 OA
ATOM     25  O   UNL     1      32.537 -14.531 -18.824  0.00  0.00    -0.275 OA
ATOM     26  N   UNL     1      33.942 -13.919 -20.567  0.00  0.00    -0.274 N 
ATOM     27  C   UNL     1      34.406 -12.951 -21.567  0.00  0.00    +0.125 C 
ATOM     28  C   UNL     1      34.819 -15.078 -20.401  0.00  0.00    +0.125 C 
ATOM     29  C   UNL     1      34.748 -13.661 -22.870  0.00  0.00    +0.164 C 
ATOM     30  C   UNL     1      35.137 -15.700 -21.753  0.00  0.00    +0.164 C 
ATOM     31  C   UNL     1      32.842 -13.751 -19.729  0.00  0.00    +0.226 C 
ENDBRANCH  23  31
ENDBRANCH  22  23
ENDBRANCH  20  22
ENDBRANCH   3  19
TORSDOF 5
ENDMDL
MODEL 5
REMARK VINA RESULT:      -9.9      2.077      3.292
REMARK  Name = 24764443
REMARK  5 active torsions:
REMARK  status: ('A' for Active; 'I' for Inactive)
REMARK    1  A    between atoms: C_2  and  C_17
REMARK    2  A    between atoms: C_3  and  N_19
REMARK    3  A    between atoms: C_20  and  C_22
REMARK    4  A    between atoms: C_22  and  C_23
REMARK    5  A    between atoms: C_23  and  C_31
REMARK                            x       y       z     vdW  Elec       q    Type
REMARK                         _______ _______ _______ _____ _____    ______ ____
ROOT
ATOM      1 BR   UNL     1      30.570  -9.986 -18.776  0.00  0.00    -0.049 Br
ATOM      2  C   UNL     1      33.068 -11.803 -21.565  0.00  0.00    +0.068 C 
ATOM      3  C   UNL     1      33.301 -13.061 -21.008  0.00  0.00    +0.055 C 
ATOM      4  C   UNL     1      32.254 -10.887 -20.900  0.00  0.00    +0.012 C 
ATOM      5  C   UNL     1      32.721 -13.402 -19.787  0.00  0.00    +0.015 C 
ATOM      6  C   UNL     1      31.674 -11.227 -19.678  0.00  0.00    +0.035 C 
ATOM      7  C   UNL     1      31.907 -12.485 -19.121  0.00  0.00    +0.008 C 
ENDROOT
BRANCH   2  17
ATOM      8  O   UNL     1      34.177 -12.318 -23.506  0.00  0.00    -0.270 OA
ATOM      9  N   UNL     1      33.613 -10.068 -23.219  0.00  0.00    -0.276 N 
ATOM     10  C   UNL     1      35.248  -8.539 -24.246  0.00  0.00    +0.020 C 
ATOM     11  C   UNL     1      33.984  -7.882 -22.143  0.00  0.00    +0.020 C 
ATOM     12  C   UNL     1      34.634  -7.378 -23.444  0.00  0.00    +0.003 C 
ATOM     13  C   UNL     1      34.207  -9.640 -24.486  0.00  0.00    +0.094 C 
ATOM     14  C   UNL     1      32.974  -8.992 -22.449  0.00  0.00    +0.094 C 
ATOM     15  C   UNL     1      35.823  -8.039 -25.569  0.00  0.00    +0.002 C 
ATOM     16  C   UNL     1      33.317  -6.733 -21.391  0.00  0.00    +0.002 C 
ATOM     17  C   UNL     1      33.663 -11.415 -22.850  0.00  0.00    +0.250 C 
ENDBRANCH   2  17
BRANCH   3  19
ATOM     18  O   UNL     1      35.223 -15.080 -19.887  0.00  0.00    -0.275 OA
ATOM     19  N   UNL     1      34.114 -13.996 -21.657  0.00  0.00    -0.284 N 
ATOM     20  C   UNL     1      34.999 -14.920 -21.083  0.00  0.00    +0.227 C 
ATOM     21  H   UNL     1      34.058 -14.007 -22.640  0.00  0.00    +0.155 HD
BRANCH  20  22
ATOM     22  C   UNL     1      35.690 -15.755 -22.151  0.00  0.00    +0.095 C 
BRANCH  22  23
ATOM     23  C   UNL     1      35.923 -17.192 -21.710  0.00  0.00    +0.095 C 
BRANCH  23  31
ATOM     24  O   UNL     1      33.121 -16.483 -25.849  0.00  0.00    -0.350 OA
ATOM     25  O   UNL     1      34.835 -19.256 -22.131  0.00  0.00    -0.275 OA
ATOM     26  N   UNL     1      34.646 -17.629 -23.775  0.00  0.00    -0.274 N 
ATOM     27  C   UNL     1      35.032 -16.341 -24.361  0.00  0.00    +0.125 C 
ATOM     28  C   UNL     1      33.827 -18.466 -24.652  0.00  0.00    +0.125 C 
ATOM     29  C   UNL     1      33.809 -15.632 -24.929  0.00  0.00    +0.164 C 
ATOM     30  C   UNL     1      32.653 -17.668 -25.201  0.00  0.00    +0.164 C 
ATOM     31  C   UNL     1      35.089 -18.124 -22.551  0.00  0.00    +0.226 C 
ENDBRANCH  23  31
ENDBRANCH  22  23
ENDBRANCH  20  22
ENDBRANCH   3  19
TORSDOF 5
ENDMDL
MODEL 6
REMARK VINA RESULT:      -9.8      3.508      5.032
REMARK  Name = 24764443
REMARK  5 active torsions:
REMARK  status: ('A' for Active; 'I' for Inactive)
REMARK    1  A    between atoms: C_2  and  C_17
REMARK    2  A    between atoms: C_3  and  N_19
REMARK    3  A    between atoms: C_20  and  C_22
REMARK    4  A    between atoms: C_22  and  C_23
REMARK    5  A    between atoms: C_23  and  C_31
REMARK                            x       y       z     vdW  Elec       q    Type
REMARK                         _______ _______ _______ _____ _____    ______ ____
ROOT
ATOM      1 BR   UNL     1      32.517  -5.147 -18.588  0.00  0.00    -0.049 Br
ATOM      2  C   UNL     1      33.489  -7.848 -21.601  0.00  0.00    +0.068 C 
ATOM      3  C   UNL     1      32.754  -8.983 -21.256  0.00  0.00    +0.055 C 
ATOM      4  C   UNL     1      33.417  -6.704 -20.806  0.00  0.00    +0.012 C 
ATOM      5  C   UNL     1      31.950  -8.975 -20.117  0.00  0.00    +0.015 C 
ATOM      6  C   UNL     1      32.614  -6.696 -19.666  0.00  0.00    +0.035 C 
ATOM      7  C   UNL     1      31.880  -7.831 -19.321  0.00  0.00    +0.008 C 
ENDROOT
BRANCH   2  17
ATOM      8  O   UNL     1      35.389  -8.467 -22.727  0.00  0.00    -0.270 OA
ATOM      9  N   UNL     1      33.917  -7.077 -23.896  0.00  0.00    -0.276 N 
ATOM     10  C   UNL     1      35.075  -5.563 -25.455  0.00  0.00    +0.020 C 
ATOM     11  C   UNL     1      32.925  -4.858 -24.301  0.00  0.00    +0.020 C 
ATOM     12  C   UNL     1      33.786  -4.731 -25.570  0.00  0.00    +0.003 C 
ATOM     13  C   UNL     1      34.748  -7.019 -25.098  0.00  0.00    +0.094 C 
ATOM     14  C   UNL     1      32.654  -6.333 -23.988  0.00  0.00    +0.094 C 
ATOM     15  C   UNL     1      35.885  -5.490 -26.747  0.00  0.00    +0.002 C 
ATOM     16  C   UNL     1      31.617  -4.086 -24.455  0.00  0.00    +0.002 C 
ATOM     17  C   UNL     1      34.343  -7.825 -22.794  0.00  0.00    +0.250 C 
ENDBRANCH   2  17
BRANCH   3  19
ATOM     18  O   UNL     1      32.450 -11.870 -20.483  0.00  0.00    -0.275 OA
ATOM     19  N   UNL     1      32.809 -10.141 -22.039  0.00  0.00    -0.284 N 
ATOM     20  C   UNL     1      32.661 -11.473 -21.625  0.00  0.00    +0.227 C 
ATOM     21  H   UNL     1      32.974 -10.005 -23.000  0.00  0.00    +0.155 HD
BRANCH  20  22
ATOM     22  C   UNL     1      32.791 -12.430 -22.801  0.00  0.00    +0.095 C 
BRANCH  22  23
ATOM     23  C   UNL     1      34.228 -12.575 -23.280  0.00  0.00    +0.095 C 
BRANCH  23  31
ATOM     24  O   UNL     1      34.130 -17.316 -25.013  0.00  0.00    -0.350 OA
ATOM     25  O   UNL     1      35.263 -13.907 -21.614  0.00  0.00    -0.275 OA
ATOM     26  N   UNL     1      34.795 -14.950 -23.634  0.00  0.00    -0.274 N 
ATOM     27  C   UNL     1      34.384 -14.903 -25.042  0.00  0.00    +0.125 C 
ATOM     28  C   UNL     1      35.337 -16.241 -23.209  0.00  0.00    +0.125 C 
ATOM     29  C   UNL     1      33.487 -16.090 -25.369  0.00  0.00    +0.164 C 
ATOM     30  C   UNL     1      34.395 -17.368 -23.609  0.00  0.00    +0.164 C 
ATOM     31  C   UNL     1      34.811 -13.865 -22.761  0.00  0.00    +0.226 C 
ENDBRANCH  23  31
ENDBRANCH  22  23
ENDBRANCH  20  22
ENDBRANCH   3  19
TORSDOF 5
ENDMDL
MODEL 7
REMARK VINA RESULT:      -9.7      5.929     11.725
REMARK  Name = 24764443
REMARK  5 active torsions:
REMARK  status: ('A' for Active; 'I' for Inactive)
REMARK    1  A    between atoms: C_2  and  C_17
REMARK    2  A    between atoms: C_3  and  N_19
REMARK    3  A    between atoms: C_20  and  C_22
REMARK    4  A    between atoms: C_22  and  C_23
REMARK    5  A    between atoms: C_23  and  C_31
REMARK                            x       y       z     vdW  Elec       q    Type
REMARK                         _______ _______ _______ _____ _____    ______ ____
ROOT
ATOM      1 BR   UNL     1      35.684 -23.690 -11.701  0.00  0.00    -0.049 Br
ATOM      2  C   UNL     1      34.650 -22.566 -15.572  0.00  0.00    +0.068 C 
ATOM      3  C   UNL     1      35.877 -22.221 -16.139  0.00  0.00    +0.055 C 
ATOM      4  C   UNL     1      34.592 -23.004 -14.249  0.00  0.00    +0.012 C 
ATOM      5  C   UNL     1      37.046 -22.314 -15.384  0.00  0.00    +0.015 C 
ATOM      6  C   UNL     1      35.761 -23.096 -13.493  0.00  0.00    +0.035 C 
ATOM      7  C   UNL     1      36.987 -22.751 -14.061  0.00  0.00    +0.008 C 
ENDROOT
BRANCH   2  17
ATOM      8  O   UNL     1      33.478 -21.940 -17.442  0.00  0.00    -0.270 OA
ATOM      9  N   UNL     1      32.238 -23.001 -15.769  0.00  0.00    -0.276 N 
ATOM     10  C   UNL     1      29.911 -22.203 -15.657  0.00  0.00    +0.020 C 
ATOM     11  C   UNL     1      31.133 -22.966 -13.566  0.00  0.00    +0.020 C 
ATOM     12  C   UNL     1      29.772 -22.867 -14.277  0.00  0.00    +0.003 C 
ATOM     13  C   UNL     1      30.973 -22.923 -16.499  0.00  0.00    +0.094 C 
ATOM     14  C   UNL     1      32.152 -23.674 -14.466  0.00  0.00    +0.094 C 
ATOM     15  C   UNL     1      28.569 -22.177 -16.385  0.00  0.00    +0.002 C 
ATOM     16  C   UNL     1      30.995 -23.690 -12.229  0.00  0.00    +0.002 C 
ATOM     17  C   UNL     1      33.402 -22.481 -16.341  0.00  0.00    +0.250 C 
ENDBRANCH   2  17
BRANCH   3  19
ATOM     18  O   UNL     1      37.341 -19.881 -17.324  0.00  0.00    -0.275 OA
ATOM     19  N   UNL     1      35.959 -21.780 -17.464  0.00  0.00    -0.284 N 
ATOM     20  C   UNL     1      36.660 -20.674 -17.966  0.00  0.00    +0.227 C 
ATOM     21  H   UNL     1      35.462 -22.312 -18.127  0.00  0.00    +0.155 HD
BRANCH  20  22
ATOM     22  C   UNL     1      36.484 -20.550 -19.472  0.00  0.00    +0.095 C 
BRANCH  22  23
ATOM     23  C   UNL     1      35.211 -19.809 -19.853  0.00  0.00    +0.095 C 
BRANCH  23  31
ATOM     24  O   UNL     1      34.430 -17.364 -24.202  0.00  0.00    -0.350 OA
ATOM     25  O   UNL     1      36.325 -17.726 -19.648  0.00  0.00    -0.275 OA
ATOM     26  N   UNL     1      34.961 -17.995 -21.507  0.00  0.00    -0.274 N 
ATOM     27  C   UNL     1      33.944 -18.736 -22.260  0.00  0.00    +0.125 C 
ATOM     28  C   UNL     1      35.242 -16.658 -22.032  0.00  0.00    +0.125 C 
ATOM     29  C   UNL     1      34.267 -18.711 -23.749  0.00  0.00    +0.164 C 
ATOM     30  C   UNL     1      35.516 -16.724 -23.528  0.00  0.00    +0.164 C 
ATOM     31  C   UNL     1      35.553 -18.416 -20.318  0.00  0.00    +0.226 C 
ENDBRANCH  23  31
ENDBRANCH  22  23
ENDBRANCH  20  22
ENDBRANCH   3  19
TORSDOF 5
ENDMDL
MODEL 8
REMARK VINA RESULT:      -9.7      1.690      2.438
REMARK  Name = 24764443
REMARK  5 active torsions:
REMARK  status: ('A' for Active; 'I' for Inactive)
REMARK    1  A    between atoms: C_2  and  C_17
REMARK    2  A    between atoms: C_3  and  N_19
REMARK    3  A    between atoms: C_20  and  C_22
REMARK    4  A    between atoms: C_22  and  C_23
REMARK    5  A    between atoms: C_23  and  C_31
REMARK                            x       y       z     vdW  Elec       q    Type
REMARK                         _______ _______ _______ _____ _____    ______ ____
ROOT
ATOM      1 BR   UNL     1      30.828 -10.341 -18.677  0.00  0.00    -0.049 Br
ATOM      2  C   UNL     1      33.257 -11.571 -21.824  0.00  0.00    +0.068 C 
ATOM      3  C   UNL     1      33.353 -12.949 -21.629  0.00  0.00    +0.055 C 
ATOM      4  C   UNL     1      32.504 -10.794 -20.944  0.00  0.00    +0.012 C 
ATOM      5  C   UNL     1      32.697 -13.550 -20.554  0.00  0.00    +0.015 C 
ATOM      6  C   UNL     1      31.849 -11.393 -19.869  0.00  0.00    +0.035 C 
ATOM      7  C   UNL     1      31.945 -12.771 -19.674  0.00  0.00    +0.008 C 
ENDROOT
BRANCH   2  17
ATOM      8  O   UNL     1      34.830 -11.550 -23.494  0.00  0.00    -0.270 OA
ATOM      9  N   UNL     1      33.527  -9.619 -23.293  0.00  0.00    -0.276 N 
ATOM     10  C   UNL     1      34.751  -7.576 -23.922  0.00  0.00    +0.020 C 
ATOM     11  C   UNL     1      32.957  -7.525 -22.125  0.00  0.00    +0.020 C 
ATOM     12  C   UNL     1      33.652  -6.737 -23.249  0.00  0.00    +0.003 C 
ATOM     13  C   UNL     1      34.188  -8.922 -24.397  0.00  0.00    +0.094 C 
ATOM     14  C   UNL     1      32.438  -8.865 -22.658  0.00  0.00    +0.094 C 
ATOM     15  C   UNL     1      35.382  -6.813 -25.084  0.00  0.00    +0.002 C 
ATOM     16  C   UNL     1      31.822  -6.709 -21.512  0.00  0.00    +0.002 C 
ATOM     17  C   UNL     1      33.935 -10.909 -22.945  0.00  0.00    +0.250 C 
ENDBRANCH   2  17
BRANCH   3  19
ATOM     18  O   UNL     1      32.742 -13.898 -24.413  0.00  0.00    -0.275 OA
ATOM     19  N   UNL     1      34.102 -13.749 -22.498  0.00  0.00    -0.284 N 
ATOM     20  C   UNL     1      33.768 -14.166 -23.795  0.00  0.00    +0.227 C 
ATOM     21  H   UNL     1      34.972 -14.059 -22.157  0.00  0.00    +0.155 HD
BRANCH  20  22
ATOM     22  C   UNL     1      34.868 -15.030 -24.394  0.00  0.00    +0.095 C 
BRANCH  22  23
ATOM     23  C   UNL     1      35.615 -15.838 -23.343  0.00  0.00    +0.095 C 
BRANCH  23  31
ATOM     24  O   UNL     1      35.887 -19.248 -19.630  0.00  0.00    -0.350 OA
ATOM     25  O   UNL     1      34.228 -17.643 -24.004  0.00  0.00    -0.275 OA
ATOM     26  N   UNL     1      35.047 -17.704 -21.833  0.00  0.00    -0.274 N 
ATOM     27  C   UNL     1      35.728 -17.075 -20.696  0.00  0.00    +0.125 C 
ATOM     28  C   UNL     1      34.388 -18.971 -21.512  0.00  0.00    +0.125 C 
ATOM     29  C   UNL     1      36.630 -18.083 -19.997  0.00  0.00    +0.164 C 
ATOM     30  C   UNL     1      35.350 -19.899 -20.784  0.00  0.00    +0.164 C 
ATOM     31  C   UNL     1      34.898 -17.141 -23.098  0.00  0.00    +0.226 C 
ENDBRANCH  23  31
ENDBRANCH  22  23
ENDBRANCH  20  22
ENDBRANCH   3  19
TORSDOF 5
ENDMDL
MODEL 9
REMARK VINA RESULT:      -9.4      9.773     12.740
REMARK  Name = 24764443
REMARK  5 active torsions:
REMARK  status: ('A' for Active; 'I' for Inactive)
REMARK    1  A    between atoms: C_2  and  C_17
REMARK    2  A    between atoms: C_3  and  N_19
REMARK    3  A    between atoms: C_20  and  C_22
REMARK    4  A    between atoms: C_22  and  C_23
REMARK    5  A    between atoms: C_23  and  C_31
REMARK                            x       y       z     vdW  Elec       q    Type
REMARK                         _______ _______ _______ _____ _____    ______ ____
ROOT
ATOM      1 BR   UNL     1      39.220 -25.001 -13.164  0.00  0.00    -0.049 Br
ATOM      2  C   UNL     1      35.443 -23.645 -14.267  0.00  0.00    +0.068 C 
ATOM      3  C   UNL     1      34.770 -23.559 -13.048  0.00  0.00    +0.055 C 
ATOM      4  C   UNL     1      36.770 -24.074 -14.301  0.00  0.00    +0.012 C 
ATOM      5  C   UNL     1      35.423 -23.902 -11.864  0.00  0.00    +0.015 C 
ATOM      6  C   UNL     1      37.423 -24.419 -13.118  0.00  0.00    +0.035 C 
ATOM      7  C   UNL     1      36.750 -24.332 -11.900  0.00  0.00    +0.008 C 
ENDROOT
BRANCH   2  17
ATOM      8  O   UNL     1      33.930 -24.075 -15.937  0.00  0.00    -0.270 OA
ATOM      9  N   UNL     1      35.178 -22.112 -16.171  0.00  0.00    -0.276 N 
ATOM     10  C   UNL     1      35.620 -21.540 -18.525  0.00  0.00    +0.020 C 
ATOM     11  C   UNL     1      37.292 -20.963 -16.703  0.00  0.00    +0.020 C 
ATOM     12  C   UNL     1      36.696 -20.545 -18.059  0.00  0.00    +0.003 C 
ATOM     13  C   UNL     1      34.554 -21.732 -17.438  0.00  0.00    +0.094 C 
ATOM     14  C   UNL     1      36.177 -21.159 -15.670  0.00  0.00    +0.094 C 
ATOM     15  C   UNL     1      34.982 -21.077 -19.832  0.00  0.00    +0.002 C 
ATOM     16  C   UNL     1      38.307 -19.932 -16.217  0.00  0.00    +0.002 C 
ATOM     17  C   UNL     1      34.784 -23.290 -15.530  0.00  0.00    +0.250 C 
ENDBRANCH   2  17
BRANCH   3  19
ATOM     18  O   UNL     1      32.212 -25.123 -13.229  0.00  0.00    -0.275 OA
ATOM     19  N   UNL     1      33.440 -23.130 -12.989  0.00  0.00    -0.284 N 
ATOM     20  C   UNL     1      32.276 -23.906 -13.080  0.00  0.00    +0.227 C 
ATOM     21  H   UNL     1      33.304 -22.162 -12.869  0.00  0.00    +0.155 HD
BRANCH  20  22
ATOM     22  C   UNL     1      31.029 -23.041 -12.966  0.00  0.00    +0.095 C 
BRANCH  22  23
ATOM     23  C   UNL     1      29.773 -23.760 -13.437  0.00  0.00    +0.095 C 
BRANCH  23  31
ATOM     24  O   UNL     1      26.570 -21.182 -16.368  0.00  0.00    -0.350 OA
ATOM     25  O   UNL     1      30.272 -24.386 -15.669  0.00  0.00    -0.275 OA
ATOM     26  N   UNL     1      28.787 -22.625 -15.393  0.00  0.00    -0.274 N 
ATOM     27  C   UNL     1      28.120 -21.623 -14.554  0.00  0.00    +0.125 C 
ATOM     28  C   UNL     1      28.596 -22.427 -16.830  0.00  0.00    +0.125 C 
ATOM     29  C   UNL     1      26.663 -21.470 -14.970  0.00  0.00    +0.164 C 
ATOM     30  C   UNL     1      27.118 -22.247 -17.148  0.00  0.00    +0.164 C 
ATOM     31  C   UNL     1      29.640 -23.625 -14.933  0.00  0.00    +0.226 C 
ENDBRANCH  23  31
ENDBRANCH  22  23
ENDBRANCH  20  22
ENDBRANCH   3  19
TORSDOF 5
ENDMDL
