MODEL 1
REMARK VINA RESULT:     -12.5      0.000      0.000
REMARK  Name = 46937081
REMARK  6 active torsions:
REMARK  status: ('A' for Active; 'I' for Inactive)
REMARK    1  A    between atoms: N_1  and  C_10
REMARK    2  A    between atoms: C_4  and  C_16
REMARK    3  A    between atoms: C_9  and  C_31
REMARK    4  A    between atoms: C_16  and  C_17
REMARK    5  A    between atoms: C_18  and  N_23
REMARK    6  A    between atoms: C_31  and  N_32
REMARK                            x       y       z     vdW  Elec       q    Type
REMARK                         _______ _______ _______ _____ _____    ______ ____
ROOT
ATOM      1  N   UNL     1      34.248 -22.809 -15.107  0.00  0.00    -0.267 N 
ATOM      2  N   UNL     1      35.324 -23.060 -12.963  0.00  0.00    -0.341 NA
ATOM      3  N   UNL     1      37.694 -22.506 -13.020  0.00  0.00    -0.188 NA
ATOM      4  C   UNL     1      34.622 -22.428 -16.369  0.00  0.00    +0.035 C 
ATOM      5  C   UNL     1      35.333 -22.755 -14.272  0.00  0.00    +0.199 C 
ATOM      6  C   UNL     1      36.426 -22.330 -15.018  0.00  0.00    +0.066 C 
ATOM      7  C   UNL     1      35.967 -22.126 -16.345  0.00  0.00    +0.016 C 
ATOM      8  C   UNL     1      37.638 -22.212 -14.340  0.00  0.00    +0.114 C 
ATOM      9  C   UNL     1      36.550 -22.907 -12.422  0.00  0.00    +0.042 C 
ENDROOT
BRANCH   1  10
ATOM     10  C   UNL     1      32.850 -23.227 -14.690  0.00  0.00    +0.079 C 
ATOM     11  C   UNL     1      32.875 -24.235 -13.528  0.00  0.00    +0.020 C 
ATOM     12  C   UNL     1      31.967 -22.014 -14.348  0.00  0.00    +0.020 C 
ATOM     13  C   UNL     1      31.463 -24.657 -13.123  0.00  0.00    +0.002 C 
ATOM     14  C   UNL     1      30.559 -22.444 -13.940  0.00  0.00    +0.002 C 
ATOM     15  C   UNL     1      30.588 -23.451 -12.793  0.00  0.00    +0.000 C 
ENDBRANCH   1  10
BRANCH   4  16
ATOM     16  C   UNL     1      33.640 -22.383 -17.523  0.00  0.00    +0.068 C 
BRANCH  16  17
ATOM     17  C   UNL     1      33.928 -21.314 -18.522  0.00  0.00    -0.016 C 
ATOM     18  C   UNL     1      34.469 -19.316 -20.392  0.00  0.00    +0.048 C 
ATOM     19  C   UNL     1      35.241 -21.081 -18.934  0.00  0.00    -0.003 C 
ATOM     20  C   UNL     1      32.887 -20.550 -19.046  0.00  0.00    -0.003 C 
ATOM     21  C   UNL     1      35.511 -20.082 -19.869  0.00  0.00    +0.014 C 
ATOM     22  C   UNL     1      33.156 -19.550 -19.980  0.00  0.00    +0.014 C 
BRANCH  18  23
ATOM     23  N   UNL     1      34.739 -18.314 -21.330  0.00  0.00    -0.312 N 
ATOM     24  N   UNL     1      35.542 -16.330 -23.223  0.00  0.00    +0.388 N 
ATOM     25  C   UNL     1      34.860 -18.659 -22.750  0.00  0.00    +0.068 C 
ATOM     26  C   UNL     1      35.520 -17.151 -20.891  0.00  0.00    +0.068 C 
ATOM     27  C   UNL     1      35.284 -15.962 -21.826  0.00  0.00    -0.056 C 
ATOM     28  C   UNL     1      34.646 -17.422 -23.625  0.00  0.00    -0.056 C 
ATOM     29  C   UNL     1      35.367 -15.173 -24.099  0.00  0.00    -0.101 C 
ATOM     30  H   UNL     1      36.507 -16.649 -23.307  0.00  0.00    -0.080 HD
ENDBRANCH  18  23
ENDBRANCH  16  17
ENDBRANCH   4  16
BRANCH   9  31
ATOM     31  C   UNL     1      36.658 -23.221 -10.966  0.00  0.00    +0.030 C 
BRANCH  31  32
ATOM     32  N   UNL     1      38.006 -23.648 -10.589  0.00  0.00    +0.390 N 
ATOM     33  H   UNL     1      38.486 -24.023 -11.408  0.00  0.00    -0.088 HD
ATOM     34  H   UNL     1      37.946 -24.369  -9.870  0.00  0.00    -0.088 HD
ATOM     35  H   UNL     1      38.527 -22.849 -10.226  0.00  0.00    -0.088 HD
ENDBRANCH  31  32
ENDBRANCH   9  31
TORSDOF 6
ENDMDL
MODEL 2
REMARK VINA RESULT:     -11.6      1.881      3.851
REMARK  Name = 46937081
REMARK  6 active torsions:
REMARK  status: ('A' for Active; 'I' for Inactive)
REMARK    1  A    between atoms: N_1  and  C_10
REMARK    2  A    between atoms: C_4  and  C_16
REMARK    3  A    between atoms: C_9  and  C_31
REMARK    4  A    between atoms: C_16  and  C_17
REMARK    5  A    between atoms: C_18  and  N_23
REMARK    6  A    between atoms: C_31  and  N_32
REMARK                            x       y       z     vdW  Elec       q    Type
REMARK                         _______ _______ _______ _____ _____    ______ ____
ROOT
ATOM      1  N   UNL     1      34.335 -22.587 -15.974  0.00  0.00    -0.267 N 
ATOM      2  N   UNL     1      32.674 -23.305 -14.380  0.00  0.00    -0.341 NA
ATOM      3  N   UNL     1      30.398 -22.815 -15.094  0.00  0.00    -0.188 NA
ATOM      4  C   UNL     1      34.338 -21.968 -17.197  0.00  0.00    +0.035 C 
ATOM      5  C   UNL     1      33.044 -22.736 -15.540  0.00  0.00    +0.199 C 
ATOM      6  C   UNL     1      32.203 -22.200 -16.507  0.00  0.00    +0.066 C 
ATOM      7  C   UNL     1      33.030 -21.716 -17.553  0.00  0.00    +0.016 C 
ATOM      8  C   UNL     1      30.834 -22.255 -16.246  0.00  0.00    +0.114 C 
ATOM      9  C   UNL     1      31.332 -23.299 -14.244  0.00  0.00    +0.042 C 
ENDROOT
BRANCH   1  10
ATOM     10  C   UNL     1      35.567 -23.040 -15.213  0.00  0.00    +0.079 C 
ATOM     11  C   UNL     1      35.894 -22.100 -14.039  0.00  0.00    +0.020 C 
ATOM     12  C   UNL     1      35.440 -24.497 -14.732  0.00  0.00    +0.020 C 
ATOM     13  C   UNL     1      37.142 -22.560 -13.286  0.00  0.00    +0.002 C 
ATOM     14  C   UNL     1      36.688 -24.947 -13.976  0.00  0.00    +0.002 C 
ATOM     15  C   UNL     1      37.015 -24.007 -12.819  0.00  0.00    +0.000 C 
ENDBRANCH   1  10
BRANCH   4  16
ATOM     16  C   UNL     1      35.622 -21.662 -17.944  0.00  0.00    +0.068 C 
BRANCH  16  17
ATOM     17  C   UNL     1      35.461 -20.661 -19.037  0.00  0.00    -0.016 C 
ATOM     18  C   UNL     1      35.161 -18.789 -21.085  0.00  0.00    +0.048 C 
ATOM     19  C   UNL     1      36.577 -19.990 -19.538  0.00  0.00    -0.003 C 
ATOM     20  C   UNL     1      34.196 -20.396 -19.560  0.00  0.00    -0.003 C 
ATOM     21  C   UNL     1      36.427 -19.055 -20.562  0.00  0.00    +0.014 C 
ATOM     22  C   UNL     1      34.045 -19.460 -20.583  0.00  0.00    +0.014 C 
BRANCH  18  23
ATOM     23  N   UNL     1      35.011 -17.851 -22.111  0.00  0.00    -0.312 N 
ATOM     24  N   UNL     1      34.957 -15.962 -24.254  0.00  0.00    +0.388 N 
ATOM     25  C   UNL     1      34.787 -18.307 -23.487  0.00  0.00    +0.068 C 
ATOM     26  C   UNL     1      35.699 -16.562 -21.974  0.00  0.00    +0.068 C 
ATOM     27  C   UNL     1      35.040 -15.504 -22.862  0.00  0.00    -0.056 C 
ATOM     28  C   UNL     1      34.158 -17.193 -24.327  0.00  0.00    -0.056 C 
ATOM     29  C   UNL     1      34.376 -14.923 -25.103  0.00  0.00    -0.101 C 
ATOM     30  H   UNL     1      35.898 -16.161 -24.593  0.00  0.00    -0.080 HD
ENDBRANCH  18  23
ENDBRANCH  16  17
ENDBRANCH   4  16
BRANCH   9  31
ATOM     31  C   UNL     1      30.806 -23.907 -12.986  0.00  0.00    +0.030 C 
BRANCH  31  32
ATOM     32  N   UNL     1      31.653 -24.998 -12.501  0.00  0.00    +0.390 N 
ATOM     33  H   UNL     1      32.553 -24.969 -12.981  0.00  0.00    -0.088 HD
ATOM     34  H   UNL     1      31.197 -25.891 -12.687  0.00  0.00    -0.088 HD
ATOM     35  H   UNL     1      31.799 -24.894 -11.497  0.00  0.00    -0.088 HD
ENDBRANCH  31  32
ENDBRANCH   9  31
TORSDOF 6
ENDMDL
MODEL 3
REMARK VINA RESULT:     -10.1      4.890     12.937
REMARK  Name = 46937081
REMARK  6 active torsions:
REMARK  status: ('A' for Active; 'I' for Inactive)
REMARK    1  A    between atoms: N_1  and  C_10
REMARK    2  A    between atoms: C_4  and  C_16
REMARK    3  A    between atoms: C_9  and  C_31
REMARK    4  A    between atoms: C_16  and  C_17
REMARK    5  A    between atoms: C_18  and  N_23
REMARK    6  A    between atoms: C_31  and  N_32
REMARK                            x       y       z     vdW  Elec       q    Type
REMARK                         _______ _______ _______ _____ _____    ______ ____
ROOT
ATOM      1  N   UNL     1      33.998 -11.407 -23.067  0.00  0.00    -0.267 N 
ATOM      2  N   UNL     1      32.844  -9.374 -22.470  0.00  0.00    -0.341 NA
ATOM      3  N   UNL     1      31.136  -9.717 -20.770  0.00  0.00    -0.188 NA
ATOM      4  C   UNL     1      33.948 -12.725 -22.696  0.00  0.00    +0.035 C 
ATOM      5  C   UNL     1      33.066 -10.696 -22.358  0.00  0.00    +0.199 C 
ATOM      6  C   UNL     1      32.405 -11.580 -21.515  0.00  0.00    +0.066 C 
ATOM      7  C   UNL     1      32.969 -12.862 -21.735  0.00  0.00    +0.016 C 
ATOM      8  C   UNL     1      31.407 -11.042 -20.703  0.00  0.00    +0.114 C 
ATOM      9  C   UNL     1      31.861  -8.976 -21.637  0.00  0.00    +0.042 C 
ENDROOT
BRANCH   1  10
ATOM     10  C   UNL     1      34.938 -10.818 -24.103  0.00  0.00    +0.079 C 
ATOM     11  C   UNL     1      34.308 -10.802 -25.507  0.00  0.00    +0.020 C 
ATOM     12  C   UNL     1      35.425  -9.414 -23.703  0.00  0.00    +0.020 C 
ATOM     13  C   UNL     1      35.267 -10.217 -26.543  0.00  0.00    +0.002 C 
ATOM     14  C   UNL     1      36.378  -8.834 -24.746  0.00  0.00    +0.002 C 
ATOM     15  C   UNL     1      35.754  -8.829 -26.138  0.00  0.00    +0.000 C 
ENDBRANCH   1  10
BRANCH   4  16
ATOM     16  C   UNL     1      34.862 -13.771 -23.304  0.00  0.00    +0.068 C 
BRANCH  16  17
ATOM     17  C   UNL     1      34.957 -15.028 -22.509  0.00  0.00    -0.016 C 
ATOM     18  C   UNL     1      35.131 -17.381 -21.020  0.00  0.00    +0.048 C 
ATOM     19  C   UNL     1      35.047 -14.968 -21.118  0.00  0.00    -0.003 C 
ATOM     20  C   UNL     1      34.953 -16.264 -23.155  0.00  0.00    -0.003 C 
ATOM     21  C   UNL     1      35.134 -16.145 -20.374  0.00  0.00    +0.014 C 
ATOM     22  C   UNL     1      35.041 -17.441 -22.411  0.00  0.00    +0.014 C 
BRANCH  18  23
ATOM     23  N   UNL     1      35.218 -18.561 -20.274  0.00  0.00    -0.312 N 
ATOM     24  N   UNL     1      35.387 -21.100 -18.975  0.00  0.00    +0.388 N 
ATOM     25  C   UNL     1      36.525 -19.190 -20.057  0.00  0.00    +0.068 C 
ATOM     26  C   UNL     1      34.070 -19.474 -20.291  0.00  0.00    +0.068 C 
ATOM     27  C   UNL     1      34.101 -20.400 -19.072  0.00  0.00    -0.056 C 
ATOM     28  C   UNL     1      36.478 -20.125 -18.846  0.00  0.00    -0.056 C 
ATOM     29  C   UNL     1      35.386 -22.020 -17.839  0.00  0.00    -0.101 C 
ATOM     30  H   UNL     1      35.532 -21.644 -19.825  0.00  0.00    -0.080 HD
ENDBRANCH  18  23
ENDBRANCH  16  17
ENDBRANCH   4  16
BRANCH   9  31
ATOM     31  C   UNL     1      31.528  -7.521 -21.678  0.00  0.00    +0.030 C 
BRANCH  31  32
ATOM     32  N   UNL     1      32.495  -6.710 -20.937  0.00  0.00    +0.390 N 
ATOM     33  H   UNL     1      32.893  -6.004 -21.559  0.00  0.00    -0.088 HD
ATOM     34  H   UNL     1      33.240  -7.308 -20.582  0.00  0.00    -0.088 HD
ATOM     35  H   UNL     1      32.026  -6.250 -20.156  0.00  0.00    -0.088 HD
ENDBRANCH  31  32
ENDBRANCH   9  31
TORSDOF 6
ENDMDL
MODEL 4
REMARK VINA RESULT:      -9.9      5.508     13.110
REMARK  Name = 46937081
REMARK  6 active torsions:
REMARK  status: ('A' for Active; 'I' for Inactive)
REMARK    1  A    between atoms: N_1  and  C_10
REMARK    2  A    between atoms: C_4  and  C_16
REMARK    3  A    between atoms: C_9  and  C_31
REMARK    4  A    between atoms: C_16  and  C_17
REMARK    5  A    between atoms: C_18  and  N_23
REMARK    6  A    between atoms: C_31  and  N_32
REMARK                            x       y       z     vdW  Elec       q    Type
REMARK                         _______ _______ _______ _____ _____    ______ ____
ROOT
ATOM      1  N   UNL     1      33.716 -10.503 -22.636  0.00  0.00    -0.267 N 
ATOM      2  N   UNL     1      33.042  -8.520 -21.439  0.00  0.00    -0.341 NA
ATOM      3  N   UNL     1      31.299  -8.950 -19.795  0.00  0.00    -0.188 NA
ATOM      4  C   UNL     1      33.374 -11.830 -22.634  0.00  0.00    +0.035 C 
ATOM      5  C   UNL     1      32.965  -9.836 -21.705  0.00  0.00    +0.199 C 
ATOM      6  C   UNL     1      32.123 -10.757 -21.094  0.00  0.00    +0.066 C 
ATOM      7  C   UNL     1      32.388 -12.017 -21.689  0.00  0.00    +0.016 C 
ATOM      8  C   UNL     1      31.269 -10.266 -20.107  0.00  0.00    +0.114 C 
ATOM      9  C   UNL     1      32.171  -8.169 -20.471  0.00  0.00    +0.042 C 
ENDROOT
BRANCH   1  10
ATOM     10  C   UNL     1      34.764  -9.864 -23.528  0.00  0.00    +0.079 C 
ATOM     11  C   UNL     1      34.559 -10.232 -25.008  0.00  0.00    +0.020 C 
ATOM     12  C   UNL     1      34.821  -8.338 -23.343  0.00  0.00    +0.020 C 
ATOM     13  C   UNL     1      35.626  -9.591 -25.896  0.00  0.00    +0.002 C 
ATOM     14  C   UNL     1      35.885  -7.705 -24.237  0.00  0.00    +0.002 C 
ATOM     15  C   UNL     1      35.684  -8.079 -25.703  0.00  0.00    +0.000 C 
ENDBRANCH   1  10
BRANCH   4  16
ATOM     16  C   UNL     1      34.033 -12.835 -23.559  0.00  0.00    +0.068 C 
BRANCH  16  17
ATOM     17  C   UNL     1      34.443 -14.100 -22.884  0.00  0.00    -0.016 C 
ATOM     18  C   UNL     1      35.207 -16.467 -21.620  0.00  0.00    +0.048 C 
ATOM     19  C   UNL     1      34.628 -14.125 -21.501  0.00  0.00    -0.003 C 
ATOM     20  C   UNL     1      34.640 -15.259 -23.634  0.00  0.00    -0.003 C 
ATOM     21  C   UNL     1      35.010 -15.308 -20.870  0.00  0.00    +0.014 C 
ATOM     22  C   UNL     1      35.023 -16.443 -23.003  0.00  0.00    +0.014 C 
BRANCH  18  23
ATOM     23  N   UNL     1      35.591 -17.654 -20.987  0.00  0.00    -0.312 N 
ATOM     24  N   UNL     1      36.357 -20.193 -19.926  0.00  0.00    +0.388 N 
ATOM     25  C   UNL     1      37.003 -18.051 -20.978  0.00  0.00    +0.068 C 
ATOM     26  C   UNL     1      34.622 -18.756 -20.942  0.00  0.00    +0.068 C 
ATOM     27  C   UNL     1      34.969 -19.730 -19.814  0.00  0.00    -0.056 C 
ATOM     28  C   UNL     1      37.273 -19.048 -19.849  0.00  0.00    -0.056 C 
ATOM     29  C   UNL     1      36.661 -21.164 -18.876  0.00  0.00    -0.101 C 
ATOM     30  H   UNL     1      36.480 -20.652 -20.828  0.00  0.00    -0.080 HD
ENDBRANCH  18  23
ENDBRANCH  16  17
ENDBRANCH   4  16
BRANCH   9  31
ATOM     31  C   UNL     1      32.171  -6.724 -20.094  0.00  0.00    +0.030 C 
BRANCH  31  32
ATOM     32  N   UNL     1      32.851  -6.482 -18.822  0.00  0.00    +0.390 N 
ATOM     33  H   UNL     1      33.861  -6.477 -18.973  0.00  0.00    -0.088 HD
ATOM     34  H   UNL     1      32.610  -7.220 -18.161  0.00  0.00    -0.088 HD
ATOM     35  H   UNL     1      32.559  -5.580 -18.446  0.00  0.00    -0.088 HD
ENDBRANCH  31  32
ENDBRANCH   9  31
TORSDOF 6
ENDMDL
