MODEL 1
REMARK VINA RESULT:     -12.5      0.000      0.000
REMARK  Name = 10156987
REMARK  5 active torsions:
REMARK  status: ('A' for Active; 'I' for Inactive)
REMARK    1  A    between atoms: C_2  and  C_23
REMARK    2  A    between atoms: C_9  and  C_13
REMARK    3  A    between atoms: C_23  and  N_24
REMARK    4  A    between atoms: C_25  and  C_31
REMARK    5  A    between atoms: C_31  and  N_32
REMARK                            x       y       z     vdW  Elec       q    Type
REMARK                         _______ _______ _______ _____ _____    ______ ____
ROOT
ATOM      1  N   UNL     1      34.710 -21.573 -17.396  0.00  0.00    -0.312 N 
ATOM      2  C   UNL     1      35.372 -19.260 -20.733  0.00  0.00    -0.043 C 
ATOM      3  C   UNL     1      36.391 -19.619 -19.849  0.00  0.00    -0.005 C 
ATOM      4  C   UNL     1      34.061 -19.672 -20.531  0.00  0.00    -0.005 C 
ATOM      5  C   UNL     1      36.073 -20.415 -18.730  0.00  0.00    +0.014 C 
ATOM      6  C   UNL     1      34.748 -20.816 -18.547  0.00  0.00    +0.048 C 
ATOM      7  C   UNL     1      33.722 -20.461 -19.429  0.00  0.00    +0.014 C 
ATOM      8  C   UNL     1      36.826 -20.956 -17.652  0.00  0.00    +0.016 C 
ATOM      9  C   UNL     1      35.961 -21.663 -16.849  0.00  0.00    +0.053 C 
ATOM     10  H   UNL     1      33.900 -21.989 -17.022  0.00  0.00    +0.152 HD
ENDROOT
BRANCH   9  13
ATOM     11  O   UNL     1      33.798 -22.332 -15.107  0.00  0.00    -0.270 OA
ATOM     12  N   UNL     1      35.153 -23.470 -13.650  0.00  0.00    -0.280 N 
ATOM     13  C   UNL     1      36.119 -22.413 -15.642  0.00  0.00    +0.067 C 
ATOM     14  C   UNL     1      37.340 -22.840 -15.277  0.00  0.00    +0.007 C 
ATOM     15  C   UNL     1      34.920 -22.727 -14.792  0.00  0.00    +0.251 C 
ATOM     16  C   UNL     1      37.535 -23.616 -14.055  0.00  0.00    +0.014 C 
ATOM     17  C   UNL     1      36.425 -23.920 -13.261  0.00  0.00    +0.051 C 
ATOM     18  C   UNL     1      38.800 -24.063 -13.665  0.00  0.00    +0.001 C 
ATOM     19  C   UNL     1      36.571 -24.662 -12.086  0.00  0.00    +0.015 C 
ATOM     20  C   UNL     1      38.948 -24.807 -12.491  0.00  0.00    +0.000 C 
ATOM     21  C   UNL     1      37.836 -25.104 -11.704  0.00  0.00    +0.001 C 
ATOM     22  H   UNL     1      34.384 -23.695 -13.078  0.00  0.00    +0.155 HD
ENDBRANCH   9  13
BRANCH   2  23
ATOM     23  C   UNL     1      35.704 -18.412 -21.925  0.00  0.00    -0.050 C 
BRANCH  23  24
ATOM     24  N   UNL     1      35.042 -17.108 -21.871  0.00  0.00    +0.390 N 
ATOM     25  C   UNL     1      34.952 -14.177 -21.903  0.00  0.00    -0.026 C 
ATOM     26  C   UNL     1      34.798 -14.991 -20.614  0.00  0.00    -0.025 C 
ATOM     27  C   UNL     1      34.525 -15.027 -23.105  0.00  0.00    -0.025 C 
ATOM     28  C   UNL     1      35.520 -16.336 -20.715  0.00  0.00    -0.077 C 
ATOM     29  C   UNL     1      35.255 -16.371 -23.124  0.00  0.00    -0.077 C 
ATOM     30  H   UNL     1      34.039 -17.255 -21.759  0.00  0.00    -0.079 HD
BRANCH  25  31
ATOM     31  C   UNL     1      34.148 -12.881 -21.834  0.00  0.00    -0.086 C 
BRANCH  31  32
ATOM     32  N   UNL     1      34.563 -11.957 -22.878  0.00  0.00    +0.380 N 
ATOM     33  H   UNL     1      33.899 -11.185 -22.931  0.00  0.00    -0.089 HD
ATOM     34  H   UNL     1      34.589 -12.445 -23.773  0.00  0.00    -0.089 HD
ATOM     35  H   UNL     1      35.491 -11.593 -22.661  0.00  0.00    -0.089 HD
ENDBRANCH  31  32
ENDBRANCH  25  31
ENDBRANCH  23  24
ENDBRANCH   2  23
TORSDOF 5
ENDMDL
MODEL 2
REMARK VINA RESULT:     -12.4      2.537      3.726
REMARK  Name = 10156987
REMARK  5 active torsions:
REMARK  status: ('A' for Active; 'I' for Inactive)
REMARK    1  A    between atoms: C_2  and  C_23
REMARK    2  A    between atoms: C_9  and  C_13
REMARK    3  A    between atoms: C_23  and  N_24
REMARK    4  A    between atoms: C_25  and  C_31
REMARK    5  A    between atoms: C_31  and  N_32
REMARK                            x       y       z     vdW  Elec       q    Type
REMARK                         _______ _______ _______ _____ _____    ______ ____
ROOT
ATOM      1  N   UNL     1      35.283 -21.046 -18.036  0.00  0.00    -0.312 N 
ATOM      2  C   UNL     1      35.580 -18.814 -21.478  0.00  0.00    -0.043 C 
ATOM      3  C   UNL     1      34.364 -19.302 -20.998  0.00  0.00    -0.005 C 
ATOM      4  C   UNL     1      36.773 -19.058 -20.809  0.00  0.00    -0.005 C 
ATOM      5  C   UNL     1      34.356 -20.058 -19.809  0.00  0.00    +0.014 C 
ATOM      6  C   UNL     1      35.567 -20.292 -19.154  0.00  0.00    +0.048 C 
ATOM      7  C   UNL     1      36.789 -19.806 -19.629  0.00  0.00    +0.014 C 
ATOM      8  C   UNL     1      33.338 -20.697 -19.047  0.00  0.00    +0.016 C 
ATOM      9  C   UNL     1      33.939 -21.295 -17.963  0.00  0.00    +0.053 C 
ATOM     10  H   UNL     1      35.950 -21.360 -17.384  0.00  0.00    +0.152 HD
ENDROOT
BRANCH   9  13
ATOM     11  O   UNL     1      35.639 -22.606 -16.078  0.00  0.00    -0.270 OA
ATOM     12  N   UNL     1      33.876 -23.433 -14.869  0.00  0.00    -0.280 N 
ATOM     13  C   UNL     1      33.454 -22.069 -16.863  0.00  0.00    +0.067 C 
ATOM     14  C   UNL     1      32.129 -22.209 -16.680  0.00  0.00    +0.007 C 
ATOM     15  C   UNL     1      34.424 -22.715 -15.915  0.00  0.00    +0.251 C 
ATOM     16  C   UNL     1      31.600 -22.985 -15.562  0.00  0.00    +0.014 C 
ATOM     17  C   UNL     1      32.494 -23.585 -14.669  0.00  0.00    +0.051 C 
ATOM     18  C   UNL     1      30.225 -23.139 -15.362  0.00  0.00    +0.001 C 
ATOM     19  C   UNL     1      32.026 -24.333 -13.586  0.00  0.00    +0.015 C 
ATOM     20  C   UNL     1      29.755 -23.886 -14.279  0.00  0.00    +0.000 C 
ATOM     21  C   UNL     1      30.653 -24.482 -13.394  0.00  0.00    +0.001 C 
ATOM     22  H   UNL     1      34.488 -23.862 -14.229  0.00  0.00    +0.155 HD
ENDBRANCH   9  13
BRANCH   2  23
ATOM     23  C   UNL     1      35.596 -18.008 -22.744  0.00  0.00    -0.050 C 
BRANCH  23  24
ATOM     24  N   UNL     1      34.922 -16.720 -22.583  0.00  0.00    +0.390 N 
ATOM     25  C   UNL     1      34.757 -13.792 -22.604  0.00  0.00    -0.026 C 
ATOM     26  C   UNL     1      34.839 -14.602 -21.305  0.00  0.00    -0.025 C 
ATOM     27  C   UNL     1      34.157 -14.658 -23.716  0.00  0.00    -0.025 C 
ATOM     28  C   UNL     1      35.566 -15.931 -21.523  0.00  0.00    -0.077 C 
ATOM     29  C   UNL     1      34.906 -15.985 -23.855  0.00  0.00    -0.077 C 
ATOM     30  H   UNL     1      33.955 -16.889 -22.305  0.00  0.00    -0.079 HD
BRANCH  25  31
ATOM     31  C   UNL     1      33.945 -12.515 -22.404  0.00  0.00    -0.086 C 
BRANCH  31  32
ATOM     32  N   UNL     1      34.546 -11.401 -23.119  0.00  0.00    +0.380 N 
ATOM     33  H   UNL     1      33.845 -10.677 -23.271  0.00  0.00    -0.089 HD
ATOM     34  H   UNL     1      34.900 -11.726 -24.019  0.00  0.00    -0.089 HD
ATOM     35  H   UNL     1      35.316 -11.018 -22.569  0.00  0.00    -0.089 HD
ENDBRANCH  31  32
ENDBRANCH  25  31
ENDBRANCH  23  24
ENDBRANCH   2  23
TORSDOF 5
ENDMDL
MODEL 3
REMARK VINA RESULT:     -12.3      3.903     11.618
REMARK  Name = 10156987
REMARK  5 active torsions:
REMARK  status: ('A' for Active; 'I' for Inactive)
REMARK    1  A    between atoms: C_2  and  C_23
REMARK    2  A    between atoms: C_9  and  C_13
REMARK    3  A    between atoms: C_23  and  N_24
REMARK    4  A    between atoms: C_25  and  C_31
REMARK    5  A    between atoms: C_31  and  N_32
REMARK                            x       y       z     vdW  Elec       q    Type
REMARK                         _______ _______ _______ _____ _____    ______ ____
ROOT
ATOM      1  N   UNL     1      34.277 -14.265 -22.610  0.00  0.00    -0.312 N 
ATOM      2  C   UNL     1      36.109 -17.622 -21.096  0.00  0.00    -0.043 C 
ATOM      3  C   UNL     1      35.674 -16.571 -20.288  0.00  0.00    -0.005 C 
ATOM      4  C   UNL     1      35.942 -17.592 -22.475  0.00  0.00    -0.005 C 
ATOM      5  C   UNL     1      35.055 -15.458 -20.893  0.00  0.00    +0.014 C 
ATOM      6  C   UNL     1      34.900 -15.448 -22.281  0.00  0.00    +0.048 C 
ATOM      7  C   UNL     1      35.333 -16.499 -23.097  0.00  0.00    +0.014 C 
ATOM      8  C   UNL     1      34.505 -14.241 -20.403  0.00  0.00    +0.016 C 
ATOM      9  C   UNL     1      34.035 -13.529 -21.481  0.00  0.00    +0.053 C 
ATOM     10  H   UNL     1      34.040 -13.988 -23.525  0.00  0.00    +0.152 HD
ENDROOT
BRANCH   9  13
ATOM     11  O   UNL     1      31.825 -12.681 -19.880  0.00  0.00    -0.270 OA
ATOM     12  N   UNL     1      31.682 -10.646 -20.926  0.00  0.00    -0.280 N 
ATOM     13  C   UNL     1      33.391 -12.261 -21.627  0.00  0.00    +0.067 C 
ATOM     14  C   UNL     1      33.824 -11.398 -22.563  0.00  0.00    +0.007 C 
ATOM     15  C   UNL     1      32.241 -11.896 -20.732  0.00  0.00    +0.251 C 
ATOM     16  C   UNL     1      33.194 -10.090 -22.733  0.00  0.00    +0.014 C 
ATOM     17  C   UNL     1      32.127  -9.738 -21.900  0.00  0.00    +0.051 C 
ATOM     18  C   UNL     1      33.635  -9.186 -23.703  0.00  0.00    +0.001 C 
ATOM     19  C   UNL     1      31.502  -8.496 -22.030  0.00  0.00    +0.015 C 
ATOM     20  C   UNL     1      33.011  -7.943 -23.834  0.00  0.00    +0.000 C 
ATOM     21  C   UNL     1      31.947  -7.599 -23.001  0.00  0.00    +0.001 C 
ATOM     22  H   UNL     1      30.930 -10.379 -20.349  0.00  0.00    +0.155 HD
ENDBRANCH   9  13
BRANCH   2  23
ATOM     23  C   UNL     1      36.769 -18.809 -20.458  0.00  0.00    -0.050 C 
BRANCH  23  24
ATOM     24  N   UNL     1      35.892 -19.471 -19.492  0.00  0.00    +0.390 N 
ATOM     25  C   UNL     1      34.366 -21.728 -18.408  0.00  0.00    -0.026 C 
ATOM     26  C   UNL     1      33.697 -20.555 -19.133  0.00  0.00    -0.025 C 
ATOM     27  C   UNL     1      35.699 -21.272 -17.807  0.00  0.00    -0.025 C 
ATOM     28  C   UNL     1      34.648 -19.909 -20.142  0.00  0.00    -0.077 C 
ATOM     29  C   UNL     1      36.585 -20.601 -18.859  0.00  0.00    -0.077 C 
ATOM     30  H   UNL     1      35.647 -18.803 -18.762  0.00  0.00    -0.079 HD
BRANCH  25  31
ATOM     31  C   UNL     1      33.448 -22.305 -17.334  0.00  0.00    -0.086 C 
BRANCH  31  32
ATOM     32  N   UNL     1      32.129 -21.695 -17.395  0.00  0.00    +0.380 N 
ATOM     33  H   UNL     1      32.144 -20.922 -18.059  0.00  0.00    -0.089 HD
ATOM     34  H   UNL     1      31.873 -21.346 -16.472  0.00  0.00    -0.089 HD
ATOM     35  H   UNL     1      31.446 -22.390 -17.698  0.00  0.00    -0.089 HD
ENDBRANCH  31  32
ENDBRANCH  25  31
ENDBRANCH  23  24
ENDBRANCH   2  23
TORSDOF 5
ENDMDL
MODEL 4
REMARK VINA RESULT:     -12.0      4.259     12.531
REMARK  Name = 10156987
REMARK  5 active torsions:
REMARK  status: ('A' for Active; 'I' for Inactive)
REMARK    1  A    between atoms: C_2  and  C_23
REMARK    2  A    between atoms: C_9  and  C_13
REMARK    3  A    between atoms: C_23  and  N_24
REMARK    4  A    between atoms: C_25  and  C_31
REMARK    5  A    between atoms: C_31  and  N_32
REMARK                            x       y       z     vdW  Elec       q    Type
REMARK                         _______ _______ _______ _____ _____    ______ ____
ROOT
ATOM      1  N   UNL     1      34.401 -12.705 -21.113  0.00  0.00    -0.312 N 
ATOM      2  C   UNL     1      35.334 -16.707 -21.293  0.00  0.00    -0.043 C 
ATOM      3  C   UNL     1      35.158 -15.921 -22.433  0.00  0.00    -0.005 C 
ATOM      4  C   UNL     1      35.203 -16.172 -20.018  0.00  0.00    -0.005 C 
ATOM      5  C   UNL     1      34.840 -14.557 -22.277  0.00  0.00    +0.014 C 
ATOM      6  C   UNL     1      34.711 -14.041 -20.985  0.00  0.00    +0.048 C 
ATOM      7  C   UNL     1      34.887 -14.823 -19.839  0.00  0.00    +0.014 C 
ATOM      8  C   UNL     1      34.595 -13.486 -23.180  0.00  0.00    +0.016 C 
ATOM      9  C   UNL     1      34.328 -12.361 -22.435  0.00  0.00    +0.053 C 
ATOM     10  H   UNL     1      34.252 -12.087 -20.360  0.00  0.00    +0.152 HD
ENDROOT
BRANCH   9  13
ATOM     11  O   UNL     1      31.941 -11.040 -21.588  0.00  0.00    -0.270 OA
ATOM     12  N   UNL     1      32.513  -9.071 -22.614  0.00  0.00    -0.280 N 
ATOM     13  C   UNL     1      34.013 -11.006 -22.764  0.00  0.00    +0.067 C 
ATOM     14  C   UNL     1      34.866 -10.287 -23.515  0.00  0.00    +0.007 C 
ATOM     15  C   UNL     1      32.737 -10.390 -22.265  0.00  0.00    +0.251 C 
ATOM     16  C   UNL     1      34.579  -8.897 -23.862  0.00  0.00    +0.014 C 
ATOM     17  C   UNL     1      33.397  -8.312 -23.397  0.00  0.00    +0.051 C 
ATOM     18  C   UNL     1      35.458  -8.141 -24.643  0.00  0.00    +0.001 C 
ATOM     19  C   UNL     1      33.089  -6.985 -23.706  0.00  0.00    +0.015 C 
ATOM     20  C   UNL     1      35.152  -6.813 -24.953  0.00  0.00    +0.000 C 
ATOM     21  C   UNL     1      33.971  -6.238 -24.486  0.00  0.00    +0.001 C 
ATOM     22  H   UNL     1      31.686  -8.640 -22.295  0.00  0.00    +0.155 HD
ENDBRANCH   9  13
BRANCH   2  23
ATOM     23  C   UNL     1      35.672 -18.160 -21.453  0.00  0.00    -0.050 C 
BRANCH  23  24
ATOM     24  N   UNL     1      35.229 -18.955 -20.307  0.00  0.00    +0.390 N 
ATOM     25  C   UNL     1      34.398 -21.419 -18.951  0.00  0.00    -0.026 C 
ATOM     26  C   UNL     1      33.402 -20.326 -19.355  0.00  0.00    -0.025 C 
ATOM     27  C   UNL     1      35.790 -20.806 -18.765  0.00  0.00    -0.025 C 
ATOM     28  C   UNL     1      33.904 -19.536 -20.565  0.00  0.00    -0.077 C 
ATOM     29  C   UNL     1      36.213 -20.000 -19.995  0.00  0.00    -0.077 C 
ATOM     30  H   UNL     1      35.151 -18.343 -19.495  0.00  0.00    -0.079 HD
BRANCH  25  31
ATOM     31  C   UNL     1      33.941 -22.137 -17.685  0.00  0.00    -0.086 C 
BRANCH  31  32
ATOM     32  N   UNL     1      32.517 -21.941 -17.462  0.00  0.00    +0.380 N 
ATOM     33  H   UNL     1      32.070 -21.671 -18.337  0.00  0.00    -0.089 HD
ATOM     34  H   UNL     1      32.380 -21.204 -16.769  0.00  0.00    -0.089 HD
ATOM     35  H   UNL     1      32.102 -22.809 -17.121  0.00  0.00    -0.089 HD
ENDBRANCH  31  32
ENDBRANCH  25  31
ENDBRANCH  23  24
ENDBRANCH   2  23
TORSDOF 5
ENDMDL
MODEL 5
REMARK VINA RESULT:     -11.9      1.508      2.589
REMARK  Name = 10156987
REMARK  5 active torsions:
REMARK  status: ('A' for Active; 'I' for Inactive)
REMARK    1  A    between atoms: C_2  and  C_23
REMARK    2  A    between atoms: C_9  and  C_13
REMARK    3  A    between atoms: C_23  and  N_24
REMARK    4  A    between atoms: C_25  and  C_31
REMARK    5  A    between atoms: C_31  and  N_32
REMARK                            x       y       z     vdW  Elec       q    Type
REMARK                         _______ _______ _______ _____ _____    ______ ____
ROOT
ATOM      1  N   UNL     1      36.437 -19.977 -19.017  0.00  0.00    -0.312 N 
ATOM      2  C   UNL     1      35.536 -17.825 -22.405  0.00  0.00    -0.043 C 
ATOM      3  C   UNL     1      34.594 -18.604 -21.732  0.00  0.00    -0.005 C 
ATOM      4  C   UNL     1      36.849 -17.733 -21.959  0.00  0.00    -0.005 C 
ATOM      5  C   UNL     1      34.990 -19.309 -20.578  0.00  0.00    +0.014 C 
ATOM      6  C   UNL     1      36.315 -19.202 -20.149  0.00  0.00    +0.048 C 
ATOM      7  C   UNL     1      37.265 -18.423 -20.818  0.00  0.00    +0.014 C 
ATOM      8  C   UNL     1      34.324 -20.173 -19.666  0.00  0.00    +0.016 C 
ATOM      9  C   UNL     1      35.239 -20.568 -18.718  0.00  0.00    +0.053 C 
ATOM     10  H   UNL     1      37.267 -20.090 -18.499  0.00  0.00    +0.152 HD
ENDROOT
BRANCH   9  13
ATOM     11  O   UNL     1      32.925 -22.083 -17.999  0.00  0.00    -0.270 OA
ATOM     12  N   UNL     1      33.936 -22.993 -16.155  0.00  0.00    -0.280 N 
ATOM     13  C   UNL     1      35.173 -21.417 -17.569  0.00  0.00    +0.067 C 
ATOM     14  C   UNL     1      36.241 -21.527 -16.761  0.00  0.00    +0.007 C 
ATOM     15  C   UNL     1      33.915 -22.184 -17.275  0.00  0.00    +0.251 C 
ATOM     16  C   UNL     1      36.210 -22.392 -15.583  0.00  0.00    +0.014 C 
ATOM     17  C   UNL     1      35.047 -23.116 -15.304  0.00  0.00    +0.051 C 
ATOM     18  C   UNL     1      37.314 -22.514 -14.735  0.00  0.00    +0.001 C 
ATOM     19  C   UNL     1      34.980 -23.955 -14.189  0.00  0.00    +0.015 C 
ATOM     20  C   UNL     1      37.249 -23.353 -13.619  0.00  0.00    +0.000 C 
ATOM     21  C   UNL     1      36.085 -24.071 -13.347  0.00  0.00    +0.001 C 
ATOM     22  H   UNL     1      33.127 -23.513 -15.942  0.00  0.00    +0.155 HD
ENDBRANCH   9  13
BRANCH   2  23
ATOM     23  C   UNL     1      35.120 -17.073 -23.635  0.00  0.00    -0.050 C 
BRANCH  23  24
ATOM     24  N   UNL     1      34.477 -15.801 -23.308  0.00  0.00    +0.390 N 
ATOM     25  C   UNL     1      34.280 -12.877 -23.214  0.00  0.00    -0.026 C 
ATOM     26  C   UNL     1      34.625 -13.718 -21.981  0.00  0.00    -0.025 C 
ATOM     27  C   UNL     1      33.482 -13.723 -24.211  0.00  0.00    -0.025 C 
ATOM     28  C   UNL     1      35.309 -15.028 -22.375  0.00  0.00    -0.077 C 
ATOM     29  C   UNL     1      34.203 -15.034 -24.532  0.00  0.00    -0.077 C 
ATOM     30  H   UNL     1      33.586 -15.993 -22.851  0.00  0.00    -0.079 HD
BRANCH  25  31
ATOM     31  C   UNL     1      33.510 -11.618 -22.823  0.00  0.00    -0.086 C 
BRANCH  31  32
ATOM     32  N   UNL     1      32.834 -11.799 -21.548  0.00  0.00    +0.380 N 
ATOM     33  H   UNL     1      33.056 -12.721 -21.174  0.00  0.00    -0.089 HD
ATOM     34  H   UNL     1      31.826 -11.722 -21.684  0.00  0.00    -0.089 HD
ATOM     35  H   UNL     1      33.145 -11.082 -20.893  0.00  0.00    -0.089 HD
ENDBRANCH  31  32
ENDBRANCH  25  31
ENDBRANCH  23  24
ENDBRANCH   2  23
TORSDOF 5
ENDMDL
MODEL 6
REMARK VINA RESULT:     -11.7      4.501     12.566
REMARK  Name = 10156987
REMARK  5 active torsions:
REMARK  status: ('A' for Active; 'I' for Inactive)
REMARK    1  A    between atoms: C_2  and  C_23
REMARK    2  A    between atoms: C_9  and  C_13
REMARK    3  A    between atoms: C_23  and  N_24
REMARK    4  A    between atoms: C_25  and  C_31
REMARK    5  A    between atoms: C_31  and  N_32
REMARK                            x       y       z     vdW  Elec       q    Type
REMARK                         _______ _______ _______ _____ _____    ______ ____
ROOT
ATOM      1  N   UNL     1      34.204 -12.673 -21.192  0.00  0.00    -0.312 N 
ATOM      2  C   UNL     1      35.402 -16.607 -21.247  0.00  0.00    -0.043 C 
ATOM      3  C   UNL     1      35.171 -15.872 -22.410  0.00  0.00    -0.005 C 
ATOM      4  C   UNL     1      35.238 -16.041 -19.989  0.00  0.00    -0.005 C 
ATOM      5  C   UNL     1      34.762 -14.528 -22.298  0.00  0.00    +0.014 C 
ATOM      6  C   UNL     1      34.603 -13.980 -21.023  0.00  0.00    +0.048 C 
ATOM      7  C   UNL     1      34.833 -14.710 -19.853  0.00  0.00    +0.014 C 
ATOM      8  C   UNL     1      34.444 -13.506 -23.235  0.00  0.00    +0.016 C 
ATOM      9  C   UNL     1      34.105 -12.378 -22.525  0.00  0.00    +0.053 C 
ATOM     10  H   UNL     1      34.016 -12.042 -20.460  0.00  0.00    +0.152 HD
ENDROOT
BRANCH   9  13
ATOM     11  O   UNL     1      34.614 -11.227 -25.091  0.00  0.00    -0.270 OA
ATOM     12  N   UNL     1      33.563  -9.261 -24.560  0.00  0.00    -0.280 N 
ATOM     13  C   UNL     1      33.699 -11.058 -22.897  0.00  0.00    +0.067 C 
ATOM     14  C   UNL     1      33.041 -10.290 -22.011  0.00  0.00    +0.007 C 
ATOM     15  C   UNL     1      34.002 -10.540 -24.274  0.00  0.00    +0.251 C 
ATOM     16  C   UNL     1      32.604  -8.940 -22.361  0.00  0.00    +0.014 C 
ATOM     17  C   UNL     1      32.875  -8.451 -23.643  0.00  0.00    +0.051 C 
ATOM     18  C   UNL     1      31.921  -8.132 -21.448  0.00  0.00    +0.001 C 
ATOM     19  C   UNL     1      32.471  -7.166 -24.015  0.00  0.00    +0.015 C 
ATOM     20  C   UNL     1      31.515  -6.847 -21.819  0.00  0.00    +0.000 C 
ATOM     21  C   UNL     1      31.790  -6.366 -23.099  0.00  0.00    +0.001 C 
ATOM     22  H   UNL     1      33.743  -8.898 -25.458  0.00  0.00    +0.155 HD
ENDBRANCH   9  13
BRANCH   2  23
ATOM     23  C   UNL     1      35.836 -18.039 -21.360  0.00  0.00    -0.050 C 
BRANCH  23  24
ATOM     24  N   UNL     1      35.326 -18.855 -20.259  0.00  0.00    +0.390 N 
ATOM     25  C   UNL     1      34.436 -21.348 -18.996  0.00  0.00    -0.026 C 
ATOM     26  C   UNL     1      33.456 -20.262 -19.452  0.00  0.00    -0.025 C 
ATOM     27  C   UNL     1      35.804 -20.722 -18.707  0.00  0.00    -0.025 C 
ATOM     28  C   UNL     1      34.029 -19.448 -20.614  0.00  0.00    -0.077 C 
ATOM     29  C   UNL     1      36.300 -19.893 -19.894  0.00  0.00    -0.077 C 
ATOM     30  H   UNL     1      35.185 -18.256 -19.446  0.00  0.00    -0.079 HD
BRANCH  25  31
ATOM     31  C   UNL     1      33.903 -22.090 -17.773  0.00  0.00    -0.086 C 
BRANCH  31  32
ATOM     32  N   UNL     1      32.493 -21.802 -17.566  0.00  0.00    +0.380 N 
ATOM     33  H   UNL     1      32.355 -21.440 -16.623  0.00  0.00    -0.089 HD
ATOM     34  H   UNL     1      31.950 -22.658 -17.683  0.00  0.00    -0.089 HD
ATOM     35  H   UNL     1      32.183 -21.108 -18.246  0.00  0.00    -0.089 HD
ENDBRANCH  31  32
ENDBRANCH  25  31
ENDBRANCH  23  24
ENDBRANCH   2  23
TORSDOF 5
ENDMDL
MODEL 7
REMARK VINA RESULT:     -11.1      1.378      1.855
REMARK  Name = 10156987
REMARK  5 active torsions:
REMARK  status: ('A' for Active; 'I' for Inactive)
REMARK    1  A    between atoms: C_2  and  C_23
REMARK    2  A    between atoms: C_9  and  C_13
REMARK    3  A    between atoms: C_23  and  N_24
REMARK    4  A    between atoms: C_25  and  C_31
REMARK    5  A    between atoms: C_31  and  N_32
REMARK                            x       y       z     vdW  Elec       q    Type
REMARK                         _______ _______ _______ _____ _____    ______ ____
ROOT
ATOM      1  N   UNL     1      35.120 -21.663 -16.997  0.00  0.00    -0.312 N 
ATOM      2  C   UNL     1      35.448 -19.547 -20.509  0.00  0.00    -0.043 C 
ATOM      3  C   UNL     1      36.530 -19.765 -19.655  0.00  0.00    -0.005 C 
ATOM      4  C   UNL     1      34.183 -20.042 -20.215  0.00  0.00    -0.005 C 
ATOM      5  C   UNL     1      36.326 -20.502 -18.471  0.00  0.00    +0.014 C 
ATOM      6  C   UNL     1      35.046 -20.989 -18.196  0.00  0.00    +0.048 C 
ATOM      7  C   UNL     1      33.957 -20.775 -19.047  0.00  0.00    +0.014 C 
ATOM      8  C   UNL     1      37.167 -20.907 -17.397  0.00  0.00    +0.016 C 
ATOM      9  C   UNL     1      36.397 -21.619 -16.507  0.00  0.00    +0.053 C 
ATOM     10  H   UNL     1      34.362 -22.112 -16.556  0.00  0.00    +0.152 HD
ENDROOT
BRANCH   9  13
ATOM     11  O   UNL     1      38.984 -22.557 -15.737  0.00  0.00    -0.270 OA
ATOM     12  N   UNL     1      38.243 -23.326 -13.709  0.00  0.00    -0.280 N 
ATOM     13  C   UNL     1      36.666 -22.269 -15.262  0.00  0.00    +0.067 C 
ATOM     14  C   UNL     1      35.667 -22.466 -14.385  0.00  0.00    +0.007 C 
ATOM     15  C   UNL     1      38.062 -22.720 -14.938  0.00  0.00    +0.251 C 
ATOM     16  C   UNL     1      35.909 -23.119 -13.100  0.00  0.00    +0.014 C 
ATOM     17  C   UNL     1      37.206 -23.536 -12.786  0.00  0.00    +0.051 C 
ATOM     18  C   UNL     1      34.878 -23.331 -12.181  0.00  0.00    +0.001 C 
ATOM     19  C   UNL     1      37.477 -24.162 -11.566  0.00  0.00    +0.015 C 
ATOM     20  C   UNL     1      35.147 -23.956 -10.960  0.00  0.00    +0.000 C 
ATOM     21  C   UNL     1      36.443 -24.370 -10.654  0.00  0.00    +0.001 C 
ATOM     22  H   UNL     1      39.149 -23.626 -13.468  0.00  0.00    +0.155 HD
ENDBRANCH   9  13
BRANCH   2  23
ATOM     23  C   UNL     1      35.658 -18.762 -21.770  0.00  0.00    -0.050 C 
BRANCH  23  24
ATOM     24  N   UNL     1      35.052 -17.433 -21.695  0.00  0.00    +0.390 N 
ATOM     25  C   UNL     1      35.087 -14.501 -21.654  0.00  0.00    -0.026 C 
ATOM     26  C   UNL     1      34.871 -15.339 -20.389  0.00  0.00    -0.025 C 
ATOM     27  C   UNL     1      34.649 -15.301 -22.885  0.00  0.00    -0.025 C 
ATOM     28  C   UNL     1      35.537 -16.711 -20.511  0.00  0.00    -0.077 C 
ATOM     29  C   UNL     1      35.322 -16.675 -22.925  0.00  0.00    -0.077 C 
ATOM     30  H   UNL     1      34.041 -17.539 -21.607  0.00  0.00    -0.079 HD
BRANCH  25  31
ATOM     31  C   UNL     1      34.337 -13.174 -21.568  0.00  0.00    -0.086 C 
BRANCH  31  32
ATOM     32  N   UNL     1      34.634 -12.334 -22.717  0.00  0.00    +0.380 N 
ATOM     33  H   UNL     1      33.786 -11.853 -23.015  0.00  0.00    -0.089 HD
ATOM     34  H   UNL     1      34.981 -12.914 -23.482  0.00  0.00    -0.089 HD
ATOM     35  H   UNL     1      35.345 -11.647 -22.463  0.00  0.00    -0.089 HD
ENDBRANCH  31  32
ENDBRANCH  25  31
ENDBRANCH  23  24
ENDBRANCH   2  23
TORSDOF 5
ENDMDL
MODEL 8
REMARK VINA RESULT:     -11.0      2.324     10.286
REMARK  Name = 10156987
REMARK  5 active torsions:
REMARK  status: ('A' for Active; 'I' for Inactive)
REMARK    1  A    between atoms: C_2  and  C_23
REMARK    2  A    between atoms: C_9  and  C_13
REMARK    3  A    between atoms: C_23  and  N_24
REMARK    4  A    between atoms: C_25  and  C_31
REMARK    5  A    between atoms: C_31  and  N_32
REMARK                            x       y       z     vdW  Elec       q    Type
REMARK                         _______ _______ _______ _____ _____    ______ ____
ROOT
ATOM      1  N   UNL     1      33.593 -20.322 -19.135  0.00  0.00    -0.312 N 
ATOM      2  C   UNL     1      34.320 -22.955 -16.060  0.00  0.00    -0.043 C 
ATOM      3  C   UNL     1      35.341 -22.306 -16.755  0.00  0.00    -0.005 C 
ATOM      4  C   UNL     1      32.983 -22.742 -16.372  0.00  0.00    -0.005 C 
ATOM      5  C   UNL     1      35.000 -21.419 -17.796  0.00  0.00    +0.014 C 
ATOM      6  C   UNL     1      33.650 -21.221 -18.094  0.00  0.00    +0.048 C 
ATOM      7  C   UNL     1      32.621 -21.868 -17.401  0.00  0.00    +0.014 C 
ATOM      8  C   UNL     1      35.748 -20.608 -18.693  0.00  0.00    +0.016 C 
ATOM      9  C   UNL     1      34.856 -19.946 -19.504  0.00  0.00    +0.053 C 
ATOM     10  H   UNL     1      32.763 -19.996 -19.554  0.00  0.00    +0.152 HD
ENDROOT
BRANCH   9  13
ATOM     11  O   UNL     1      36.606 -17.689 -19.420  0.00  0.00    -0.270 OA
ATOM     12  N   UNL     1      36.040 -17.008 -21.534  0.00  0.00    -0.280 N 
ATOM     13  C   UNL     1      34.996 -19.011 -20.577  0.00  0.00    +0.067 C 
ATOM     14  C   UNL     1      34.276 -19.174 -21.700  0.00  0.00    +0.007 C 
ATOM     15  C   UNL     1      35.951 -17.858 -20.448  0.00  0.00    +0.251 C 
ATOM     16  C   UNL     1      34.402 -18.243 -22.819  0.00  0.00    +0.014 C 
ATOM     17  C   UNL     1      35.292 -17.170 -22.712  0.00  0.00    +0.051 C 
ATOM     18  C   UNL     1      33.658 -18.402 -23.992  0.00  0.00    +0.001 C 
ATOM     19  C   UNL     1      35.442 -16.261 -23.762  0.00  0.00    +0.015 C 
ATOM     20  C   UNL     1      33.806 -17.494 -25.043  0.00  0.00    +0.000 C 
ATOM     21  C   UNL     1      34.696 -16.426 -24.927  0.00  0.00    +0.001 C 
ATOM     22  H   UNL     1      36.662 -16.247 -21.479  0.00  0.00    +0.155 HD
ENDBRANCH   9  13
BRANCH   2  23
ATOM     23  C   UNL     1      34.677 -23.901 -14.951  0.00  0.00    -0.050 C 
BRANCH  23  24
ATOM     24  N   UNL     1      36.123 -23.990 -14.752  0.00  0.00    +0.390 N 
ATOM     25  C   UNL     1      38.558 -24.717 -13.287  0.00  0.00    -0.026 C 
ATOM     26  C   UNL     1      38.042 -23.276 -13.363  0.00  0.00    -0.025 C 
ATOM     27  C   UNL     1      38.061 -25.508 -14.502  0.00  0.00    -0.025 C 
ATOM     28  C   UNL     1      36.525 -23.237 -13.556  0.00  0.00    -0.077 C 
ATOM     29  C   UNL     1      36.543 -25.395 -14.658  0.00  0.00    -0.077 C 
ATOM     30  H   UNL     1      36.591 -23.575 -15.557  0.00  0.00    -0.079 HD
BRANCH  25  31
ATOM     31  C   UNL     1      40.081 -24.751 -13.196  0.00  0.00    -0.086 C 
BRANCH  31  32
ATOM     32  N   UNL     1      40.620 -25.880 -13.938  0.00  0.00    +0.380 N 
ATOM     33  H   UNL     1      39.970 -26.142 -14.678  0.00  0.00    -0.089 HD
ATOM     34  H   UNL     1      40.753 -26.670 -13.307  0.00  0.00    -0.089 HD
ATOM     35  H   UNL     1      41.517 -25.620 -14.350  0.00  0.00    -0.089 HD
ENDBRANCH  31  32
ENDBRANCH  25  31
ENDBRANCH  23  24
ENDBRANCH   2  23
TORSDOF 5
ENDMDL
MODEL 9
REMARK VINA RESULT:     -10.6      6.823     11.952
REMARK  Name = 10156987
REMARK  5 active torsions:
REMARK  status: ('A' for Active; 'I' for Inactive)
REMARK    1  A    between atoms: C_2  and  C_23
REMARK    2  A    between atoms: C_9  and  C_13
REMARK    3  A    between atoms: C_23  and  N_24
REMARK    4  A    between atoms: C_25  and  C_31
REMARK    5  A    between atoms: C_31  and  N_32
REMARK                            x       y       z     vdW  Elec       q    Type
REMARK                         _______ _______ _______ _____ _____    ______ ____
ROOT
ATOM      1  N   UNL     1      34.608 -11.247 -23.229  0.00  0.00    -0.312 N 
ATOM      2  C   UNL     1      32.708  -7.698 -22.388  0.00  0.00    -0.043 C 
ATOM      3  C   UNL     1      32.262  -8.927 -21.899  0.00  0.00    -0.005 C 
ATOM      4  C   UNL     1      33.834  -7.605 -23.195  0.00  0.00    -0.005 C 
ATOM      5  C   UNL     1      32.976 -10.094 -22.238  0.00  0.00    +0.014 C 
ATOM      6  C   UNL     1      34.104  -9.977 -23.052  0.00  0.00    +0.048 C 
ATOM      7  C   UNL     1      34.557  -8.749 -23.545  0.00  0.00    +0.014 C 
ATOM      8  C   UNL     1      32.821 -11.475 -21.934  0.00  0.00    +0.016 C 
ATOM      9  C   UNL     1      33.839 -12.158 -22.557  0.00  0.00    +0.053 C 
ATOM     10  H   UNL     1      35.406 -11.467 -23.762  0.00  0.00    +0.152 HD
ENDROOT
BRANCH   9  13
ATOM     11  O   UNL     1      33.752 -13.703 -24.959  0.00  0.00    -0.270 OA
ATOM     12  N   UNL     1      34.532 -15.594 -23.924  0.00  0.00    -0.280 N 
ATOM     13  C   UNL     1      34.210 -13.537 -22.626  0.00  0.00    +0.067 C 
ATOM     14  C   UNL     1      34.624 -14.172 -21.516  0.00  0.00    +0.007 C 
ATOM     15  C   UNL     1      34.142 -14.268 -23.937  0.00  0.00    +0.251 C 
ATOM     16  C   UNL     1      35.019 -15.578 -21.553  0.00  0.00    +0.014 C 
ATOM     17  C   UNL     1      34.966 -16.265 -22.769  0.00  0.00    +0.051 C 
ATOM     18  C   UNL     1      35.449 -16.248 -20.404  0.00  0.00    +0.001 C 
ATOM     19  C   UNL     1      35.338 -17.610 -22.845  0.00  0.00    +0.015 C 
ATOM     20  C   UNL     1      35.822 -17.593 -20.478  0.00  0.00    +0.000 C 
ATOM     21  C   UNL     1      35.766 -18.271 -21.695  0.00  0.00    +0.001 C 
ATOM     22  H   UNL     1      34.503 -16.095 -24.771  0.00  0.00    +0.155 HD
ENDBRANCH   9  13
BRANCH   2  23
ATOM     23  C   UNL     1      31.951  -6.451 -22.031  0.00  0.00    -0.050 C 
BRANCH  23  24
ATOM     24  N   UNL     1      32.310  -5.327 -22.896  0.00  0.00    +0.390 N 
ATOM     25  C   UNL     1      31.763  -2.921 -24.480  0.00  0.00    -0.026 C 
ATOM     26  C   UNL     1      32.022  -4.288 -25.123  0.00  0.00    -0.025 C 
ATOM     27  C   UNL     1      32.427  -2.864 -23.101  0.00  0.00    -0.025 C 
ATOM     28  C   UNL     1      31.616  -5.428 -24.187  0.00  0.00    -0.077 C 
ATOM     29  C   UNL     1      32.009  -4.052 -22.231  0.00  0.00    -0.077 C 
ATOM     30  H   UNL     1      33.313  -5.359 -23.074  0.00  0.00    -0.079 HD
BRANCH  25  31
ATOM     31  C   UNL     1      32.261  -1.790 -25.376  0.00  0.00    -0.086 C 
BRANCH  31  32
ATOM     32  N   UNL     1      32.061  -2.113 -26.780  0.00  0.00    +0.380 N 
ATOM     33  H   UNL     1      31.343  -1.503 -27.170  0.00  0.00    -0.089 HD
ATOM     34  H   UNL     1      31.764  -3.086 -26.866  0.00  0.00    -0.089 HD
ATOM     35  H   UNL     1      32.935  -1.979 -27.289  0.00  0.00    -0.089 HD
ENDBRANCH  31  32
ENDBRANCH  25  31
ENDBRANCH  23  24
ENDBRANCH   2  23
TORSDOF 5
ENDMDL
