MODEL 1
REMARK VINA RESULT:     -12.7      0.000      0.000
REMARK  Name = 71351
REMARK  4 active torsions:
REMARK  status: ('A' for Active; 'I' for Inactive)
REMARK    1  A    between atoms: N_1  and  C_18
REMARK    2  A    between atoms: C_2  and  C_11
REMARK    3  A    between atoms: C_18  and  C_19
REMARK    4  A    between atoms: C_19  and  C_23
REMARK                            x       y       z     vdW  Elec       q    Type
REMARK                         _______ _______ _______ _____ _____    ______ ____
ROOT
ATOM      1  N   UNL     1      35.335 -20.662 -18.296  0.00  0.00    +0.387 N 
ATOM      2  C   UNL     1      35.345 -19.331 -20.910  0.00  0.00    +0.039 C 
ATOM      3  C   UNL     1      36.552 -19.289 -19.958  0.00  0.00    -0.017 C 
ATOM      4  C   UNL     1      34.054 -19.564 -20.107  0.00  0.00    -0.017 C 
ATOM      5  C   UNL     1      36.587 -20.522 -19.052  0.00  0.00    -0.077 C 
ATOM      6  C   UNL     1      34.182 -20.788 -19.197  0.00  0.00    -0.077 C 
ATOM      7  H   UNL     1      35.208 -19.817 -17.739  0.00  0.00    -0.080 HD
ENDROOT
BRANCH   2  11
ATOM      8  F   UNL     1      34.830 -12.658 -21.575  0.00  0.00    -0.204 F 
ATOM      9  O   UNL     1      35.207 -16.985 -23.642  0.00  0.00    -0.354 OA
ATOM     10  N   UNL     1      35.300 -18.271 -23.125  0.00  0.00    -0.081 NA
ATOM     11  C   UNL     1      35.264 -18.114 -21.803  0.00  0.00    +0.100 A 
ATOM     12  C   UNL     1      35.151 -16.771 -21.413  0.00  0.00    +0.054 A 
ATOM     13  C   UNL     1      35.119 -16.092 -22.618  0.00  0.00    +0.179 A 
ATOM     14  C   UNL     1      35.071 -16.042 -20.217  0.00  0.00    +0.007 C 
ATOM     15  C   UNL     1      35.012 -14.710 -22.738  0.00  0.00    +0.070 C 
ATOM     16  C   UNL     1      34.963 -14.646 -20.300  0.00  0.00    +0.030 C 
ATOM     17  C   UNL     1      34.935 -13.995 -21.538  0.00  0.00    +0.143 C 
ENDBRANCH   2  11
BRANCH   1  18
ATOM     18  C   UNL     1      35.408 -21.812 -17.393  0.00  0.00    -0.076 C 
BRANCH  18  19
ATOM     19  C   UNL     1      35.567 -21.333 -15.958  0.00  0.00    -0.007 C 
BRANCH  19  23
ATOM     20  O   UNL     1      38.308 -21.739 -16.103  0.00  0.00    -0.274 OA
ATOM     21  N   UNL     1      38.349 -23.500 -14.566  0.00  0.00    -0.211 N 
ATOM     22  N   UNL     1      36.323 -24.169 -13.523  0.00  0.00    -0.395 NA
ATOM     23  C   UNL     1      36.253 -22.372 -15.121  0.00  0.00    +0.123 C 
ATOM     24  C   UNL     1      35.662 -23.203 -14.240  0.00  0.00    +0.097 C 
ATOM     25  C   UNL     1      37.733 -22.496 -15.320  0.00  0.00    +0.241 C 
ATOM     26  C   UNL     1      37.604 -24.300 -13.691  0.00  0.00    +0.188 C 
ATOM     27  C   UNL     1      34.190 -23.147 -13.926  0.00  0.00    +0.062 C 
ATOM     28  C   UNL     1      38.352 -25.354 -12.917  0.00  0.00    +0.023 C 
ATOM     29  C   UNL     1      39.720 -23.686 -14.701  0.00  0.00    +0.074 C 
ATOM     30  C   UNL     1      39.674 -25.473 -13.101  0.00  0.00    +0.001 C 
ATOM     31  C   UNL     1      40.381 -24.621 -14.014  0.00  0.00    +0.016 C 
ATOM     32  C   UNL     1      37.580 -26.225 -11.974  0.00  0.00    +0.035 C 
ENDBRANCH  19  23
ENDBRANCH  18  19
ENDBRANCH   1  18
TORSDOF 4
ENDMDL
MODEL 2
REMARK VINA RESULT:     -12.6      1.095      1.952
REMARK  Name = 71351
REMARK  4 active torsions:
REMARK  status: ('A' for Active; 'I' for Inactive)
REMARK    1  A    between atoms: N_1  and  C_18
REMARK    2  A    between atoms: C_2  and  C_11
REMARK    3  A    between atoms: C_18  and  C_19
REMARK    4  A    between atoms: C_19  and  C_23
REMARK                            x       y       z     vdW  Elec       q    Type
REMARK                         _______ _______ _______ _____ _____    ______ ____
ROOT
ATOM      1  N   UNL     1      34.782 -20.935 -18.368  0.00  0.00    +0.387 N 
ATOM      2  C   UNL     1      35.040 -19.496 -20.912  0.00  0.00    +0.039 C 
ATOM      3  C   UNL     1      36.184 -19.572 -19.886  0.00  0.00    -0.017 C 
ATOM      4  C   UNL     1      33.689 -19.681 -20.202  0.00  0.00    -0.017 C 
ATOM      5  C   UNL     1      36.086 -20.843 -19.039  0.00  0.00    -0.077 C 
ATOM      6  C   UNL     1      33.683 -20.949 -19.343  0.00  0.00    -0.077 C 
ATOM      7  H   UNL     1      34.671 -20.108 -17.781  0.00  0.00    -0.080 HD
ENDROOT
BRANCH   2  11
ATOM      8  F   UNL     1      35.034 -12.782 -21.291  0.00  0.00    -0.204 F 
ATOM      9  O   UNL     1      35.207 -17.032 -23.536  0.00  0.00    -0.354 OA
ATOM     10  N   UNL     1      35.183 -18.343 -23.075  0.00  0.00    -0.081 NA
ATOM     11  C   UNL     1      35.091 -18.240 -21.751  0.00  0.00    +0.100 A 
ATOM     12  C   UNL     1      35.054 -16.910 -21.304  0.00  0.00    +0.054 A 
ATOM     13  C   UNL     1      35.131 -16.180 -22.477  0.00  0.00    +0.179 A 
ATOM     14  C   UNL     1      34.966 -16.229 -20.081  0.00  0.00    +0.007 C 
ATOM     15  C   UNL     1      35.128 -14.789 -22.537  0.00  0.00    +0.070 C 
ATOM     16  C   UNL     1      34.961 -14.827 -20.104  0.00  0.00    +0.030 C 
ATOM     17  C   UNL     1      35.041 -14.123 -21.311  0.00  0.00    +0.143 C 
ENDBRANCH   2  11
BRANCH   1  18
ATOM     18  C   UNL     1      34.727 -22.124 -17.517  0.00  0.00    -0.076 C 
BRANCH  18  19
ATOM     19  C   UNL     1      34.916 -21.727 -16.060  0.00  0.00    -0.007 C 
BRANCH  19  23
ATOM     20  O   UNL     1      34.561 -24.145 -14.748  0.00  0.00    -0.274 OA
ATOM     21  N   UNL     1      36.806 -24.402 -14.152  0.00  0.00    -0.211 N 
ATOM     22  N   UNL     1      38.380 -22.765 -14.849  0.00  0.00    -0.395 NA
ATOM     23  C   UNL     1      36.070 -22.468 -15.450  0.00  0.00    +0.123 C 
ATOM     24  C   UNL     1      37.359 -22.076 -15.454  0.00  0.00    +0.097 C 
ATOM     25  C   UNL     1      35.726 -23.748 -14.753  0.00  0.00    +0.241 C 
ATOM     26  C   UNL     1      38.099 -23.872 -14.229  0.00  0.00    +0.188 C 
ATOM     27  C   UNL     1      37.832 -20.830 -16.156  0.00  0.00    +0.062 C 
ATOM     28  C   UNL     1      39.202 -24.645 -13.554  0.00  0.00    +0.023 C 
ATOM     29  C   UNL     1      36.569 -25.594 -13.476  0.00  0.00    +0.074 C 
ATOM     30  C   UNL     1      38.895 -25.787 -12.922  0.00  0.00    +0.001 C 
ATOM     31  C   UNL     1      37.548 -26.278 -12.878  0.00  0.00    +0.016 C 
ATOM     32  C   UNL     1      40.595 -24.100 -13.620  0.00  0.00    +0.035 C 
ENDBRANCH  19  23
ENDBRANCH  18  19
ENDBRANCH   1  18
TORSDOF 4
ENDMDL
MODEL 3
REMARK VINA RESULT:     -12.5      4.935     11.678
REMARK  Name = 71351
REMARK  4 active torsions:
REMARK  status: ('A' for Active; 'I' for Inactive)
REMARK    1  A    between atoms: N_1  and  C_18
REMARK    2  A    between atoms: C_2  and  C_11
REMARK    3  A    between atoms: C_18  and  C_19
REMARK    4  A    between atoms: C_19  and  C_23
REMARK                            x       y       z     vdW  Elec       q    Type
REMARK                         _______ _______ _______ _____ _____    ______ ____
ROOT
ATOM      1  N   UNL     1      34.626 -15.069 -22.529  0.00  0.00    +0.387 N 
ATOM      2  C   UNL     1      36.087 -17.238 -21.198  0.00  0.00    +0.039 C 
ATOM      3  C   UNL     1      35.486 -17.390 -22.605  0.00  0.00    -0.017 C 
ATOM      4  C   UNL     1      35.320 -16.158 -20.417  0.00  0.00    -0.017 C 
ATOM      5  C   UNL     1      35.397 -16.038 -23.319  0.00  0.00    -0.077 C 
ATOM      6  C   UNL     1      35.239 -14.852 -21.211  0.00  0.00    -0.077 C 
ATOM      7  H   UNL     1      33.693 -15.455 -22.382  0.00  0.00    -0.080 HD
ENDROOT
BRANCH   2  11
ATOM      8  F   UNL     1      32.977 -22.381 -18.180  0.00  0.00    -0.204 F 
ATOM      9  O   UNL     1      37.085 -20.261 -19.508  0.00  0.00    -0.354 OA
ATOM     10  N   UNL     1      37.358 -19.080 -20.189  0.00  0.00    -0.081 NA
ATOM     11  C   UNL     1      36.166 -18.551 -20.453  0.00  0.00    +0.100 A 
ATOM     12  C   UNL     1      35.101 -19.331 -19.977  0.00  0.00    +0.054 A 
ATOM     13  C   UNL     1      35.737 -20.408 -19.384  0.00  0.00    +0.179 A 
ATOM     14  C   UNL     1      33.699 -19.276 -19.965  0.00  0.00    +0.007 C 
ATOM     15  C   UNL     1      35.077 -21.464 -18.764  0.00  0.00    +0.070 C 
ATOM     16  C   UNL     1      33.002 -20.324 -19.349  0.00  0.00    +0.030 C 
ATOM     17  C   UNL     1      33.680 -21.398 -18.760  0.00  0.00    +0.143 C 
ENDBRANCH   2  11
BRANCH   1  18
ATOM     18  C   UNL     1      34.503 -13.803 -23.251  0.00  0.00    -0.076 C 
BRANCH  18  19
ATOM     19  C   UNL     1      33.055 -13.334 -23.229  0.00  0.00    -0.007 C 
BRANCH  19  23
ATOM     20  O   UNL     1      32.107 -13.466 -20.625  0.00  0.00    -0.274 OA
ATOM     21  N   UNL     1      32.183 -11.160 -20.248  0.00  0.00    -0.211 N 
ATOM     22  N   UNL     1      33.000  -9.736 -21.964  0.00  0.00    -0.395 NA
ATOM     23  C   UNL     1      32.905 -12.103 -22.383  0.00  0.00    +0.123 C 
ATOM     24  C   UNL     1      33.190 -10.841 -22.757  0.00  0.00    +0.097 C 
ATOM     25  C   UNL     1      32.359 -12.322 -21.006  0.00  0.00    +0.241 C 
ATOM     26  C   UNL     1      32.517  -9.905 -20.771  0.00  0.00    +0.188 C 
ATOM     27  C   UNL     1      33.780 -10.500 -24.101  0.00  0.00    +0.062 C 
ATOM     28  C   UNL     1      32.297  -8.709 -19.883  0.00  0.00    +0.023 C 
ATOM     29  C   UNL     1      31.672 -11.277 -18.960  0.00  0.00    +0.074 C 
ATOM     30  C   UNL     1      31.800  -8.901 -18.652  0.00  0.00    +0.001 C 
ATOM     31  C   UNL     1      31.478 -10.215 -18.174  0.00  0.00    +0.016 C 
ATOM     32  C   UNL     1      32.644  -7.353 -20.417  0.00  0.00    +0.035 C 
ENDBRANCH  19  23
ENDBRANCH  18  19
ENDBRANCH   1  18
TORSDOF 4
ENDMDL
MODEL 4
REMARK VINA RESULT:     -12.5      2.728      4.103
REMARK  Name = 71351
REMARK  4 active torsions:
REMARK  status: ('A' for Active; 'I' for Inactive)
REMARK    1  A    between atoms: N_1  and  C_18
REMARK    2  A    between atoms: C_2  and  C_11
REMARK    3  A    between atoms: C_18  and  C_19
REMARK    4  A    between atoms: C_19  and  C_23
REMARK                            x       y       z     vdW  Elec       q    Type
REMARK                         _______ _______ _______ _____ _____    ______ ____
ROOT
ATOM      1  N   UNL     1      35.966 -18.927 -19.831  0.00  0.00    +0.387 N 
ATOM      2  C   UNL     1      35.357 -18.016 -22.553  0.00  0.00    +0.039 C 
ATOM      3  C   UNL     1      36.538 -17.460 -21.741  0.00  0.00    -0.017 C 
ATOM      4  C   UNL     1      34.276 -18.552 -21.601  0.00  0.00    -0.017 C 
ATOM      5  C   UNL     1      37.045 -18.485 -20.724  0.00  0.00    -0.077 C 
ATOM      6  C   UNL     1      34.867 -19.539 -20.590  0.00  0.00    -0.077 C 
ATOM      7  H   UNL     1      35.598 -18.105 -19.352  0.00  0.00    -0.080 HD
ENDROOT
BRANCH   2  11
ATOM      8  F   UNL     1      33.703 -11.684 -24.099  0.00  0.00    -0.204 F 
ATOM      9  O   UNL     1      33.994 -16.301 -25.414  0.00  0.00    -0.354 OA
ATOM     10  N   UNL     1      34.435 -17.442 -24.755  0.00  0.00    -0.081 NA
ATOM     11  C   UNL     1      34.813 -17.020 -23.551  0.00  0.00    +0.100 A 
ATOM     12  C   UNL     1      34.644 -15.638 -23.375  0.00  0.00    +0.054 A 
ATOM     13  C   UNL     1      34.121 -15.226 -24.588  0.00  0.00    +0.179 A 
ATOM     14  C   UNL     1      34.859 -14.686 -22.367  0.00  0.00    +0.007 C 
ATOM     15  C   UNL     1      33.784 -13.910 -24.891  0.00  0.00    +0.070 C 
ATOM     16  C   UNL     1      34.531 -13.350 -22.638  0.00  0.00    +0.030 C 
ATOM     17  C   UNL     1      34.004 -12.972 -23.878  0.00  0.00    +0.143 C 
ENDBRANCH   2  11
BRANCH   1  18
ATOM     18  C   UNL     1      36.480 -19.863 -18.831  0.00  0.00    -0.076 C 
BRANCH  18  19
ATOM     19  C   UNL     1      35.806 -21.217 -18.995  0.00  0.00    -0.007 C 
BRANCH  19  23
ATOM     20  O   UNL     1      33.116 -21.835 -18.714  0.00  0.00    -0.274 OA
ATOM     21  N   UNL     1      33.251 -22.368 -16.443  0.00  0.00    -0.211 N 
ATOM     22  N   UNL     1      35.361 -22.274 -15.357  0.00  0.00    -0.395 NA
ATOM     23  C   UNL     1      35.241 -21.695 -17.689  0.00  0.00    +0.123 C 
ATOM     24  C   UNL     1      35.925 -21.873 -16.542  0.00  0.00    +0.097 C 
ATOM     25  C   UNL     1      33.768 -21.968 -17.678  0.00  0.00    +0.241 C 
ATOM     26  C   UNL     1      34.083 -22.503 -15.325  0.00  0.00    +0.188 C 
ATOM     27  C   UNL     1      37.415 -21.669 -16.440  0.00  0.00    +0.062 C 
ATOM     28  C   UNL     1      33.439 -22.942 -14.036  0.00  0.00    +0.023 C 
ATOM     29  C   UNL     1      31.889 -22.632 -16.346  0.00  0.00    +0.074 C 
ATOM     30  C   UNL     1      32.119 -23.178 -14.022  0.00  0.00    +0.001 C 
ATOM     31  C   UNL     1      31.320 -23.021 -15.202  0.00  0.00    +0.016 C 
ATOM     32  C   UNL     1      34.306 -23.095 -12.824  0.00  0.00    +0.035 C 
ENDBRANCH  19  23
ENDBRANCH  18  19
ENDBRANCH   1  18
TORSDOF 4
ENDMDL
MODEL 5
REMARK VINA RESULT:     -12.5      1.858      2.723
REMARK  Name = 71351
REMARK  4 active torsions:
REMARK  status: ('A' for Active; 'I' for Inactive)
REMARK    1  A    between atoms: N_1  and  C_18
REMARK    2  A    between atoms: C_2  and  C_11
REMARK    3  A    between atoms: C_18  and  C_19
REMARK    4  A    between atoms: C_19  and  C_23
REMARK                            x       y       z     vdW  Elec       q    Type
REMARK                         _______ _______ _______ _____ _____    ______ ____
ROOT
ATOM      1  N   UNL     1      34.793 -21.033 -18.249  0.00  0.00    +0.387 N 
ATOM      2  C   UNL     1      35.159 -19.386 -20.649  0.00  0.00    +0.039 C 
ATOM      3  C   UNL     1      36.293 -19.643 -19.643  0.00  0.00    -0.017 C 
ATOM      4  C   UNL     1      33.798 -19.535 -19.950  0.00  0.00    -0.017 C 
ATOM      5  C   UNL     1      36.100 -20.976 -18.917  0.00  0.00    -0.077 C 
ATOM      6  C   UNL     1      33.697 -20.874 -19.214  0.00  0.00    -0.077 C 
ATOM      7  H   UNL     1      34.744 -20.259 -17.587  0.00  0.00    -0.080 HD
ENDROOT
BRANCH   2  11
ATOM      8  F   UNL     1      33.935 -15.560 -26.043  0.00  0.00    -0.204 F 
ATOM      9  O   UNL     1      35.918 -16.019 -21.685  0.00  0.00    -0.354 OA
ATOM     10  N   UNL     1      35.968 -17.072 -20.779  0.00  0.00    -0.081 NA
ATOM     11  C   UNL     1      35.304 -18.064 -21.367  0.00  0.00    +0.100 A 
ATOM     12  C   UNL     1      34.808 -17.718 -22.634  0.00  0.00    +0.054 A 
ATOM     13  C   UNL     1      35.225 -16.408 -22.790  0.00  0.00    +0.179 A 
ATOM     14  C   UNL     1      34.072 -18.327 -23.660  0.00  0.00    +0.007 C 
ATOM     15  C   UNL     1      34.963 -15.630 -23.914  0.00  0.00    +0.070 C 
ATOM     16  C   UNL     1      33.788 -17.573 -24.808  0.00  0.00    +0.030 C 
ATOM     17  C   UNL     1      34.226 -16.249 -24.930  0.00  0.00    +0.143 C 
ENDBRANCH   2  11
BRANCH   1  18
ATOM     18  C   UNL     1      34.648 -22.290 -17.513  0.00  0.00    -0.076 C 
BRANCH  18  19
ATOM     19  C   UNL     1      34.704 -22.021 -16.016  0.00  0.00    -0.007 C 
BRANCH  19  23
ATOM     20  O   UNL     1      34.536 -24.449 -14.685  0.00  0.00    -0.274 OA
ATOM     21  N   UNL     1      36.795 -24.528 -14.090  0.00  0.00    -0.211 N 
ATOM     22  N   UNL     1      38.239 -22.782 -14.802  0.00  0.00    -0.395 NA
ATOM     23  C   UNL     1      35.912 -22.666 -15.402  0.00  0.00    +0.123 C 
ATOM     24  C   UNL     1      37.167 -22.178 -15.412  0.00  0.00    +0.097 C 
ATOM     25  C   UNL     1      35.668 -23.964 -14.695  0.00  0.00    +0.241 C 
ATOM     26  C   UNL     1      38.044 -23.901 -14.174  0.00  0.00    +0.188 C 
ATOM     27  C   UNL     1      37.543 -20.904 -16.123  0.00  0.00    +0.062 C 
ATOM     28  C   UNL     1      39.204 -24.583 -13.495  0.00  0.00    +0.023 C 
ATOM     29  C   UNL     1      36.651 -25.730 -13.405  0.00  0.00    +0.074 C 
ATOM     30  C   UNL     1      38.986 -25.740 -12.853  0.00  0.00    +0.001 C 
ATOM     31  C   UNL     1      37.680 -26.333 -12.804  0.00  0.00    +0.016 C 
ATOM     32  C   UNL     1      40.551 -23.934 -13.567  0.00  0.00    +0.035 C 
ENDBRANCH  19  23
ENDBRANCH  18  19
ENDBRANCH   1  18
TORSDOF 4
ENDMDL
MODEL 6
REMARK VINA RESULT:     -12.5      4.128     10.937
REMARK  Name = 71351
REMARK  4 active torsions:
REMARK  status: ('A' for Active; 'I' for Inactive)
REMARK    1  A    between atoms: N_1  and  C_18
REMARK    2  A    between atoms: C_2  and  C_11
REMARK    3  A    between atoms: C_18  and  C_19
REMARK    4  A    between atoms: C_19  and  C_23
REMARK                            x       y       z     vdW  Elec       q    Type
REMARK                         _______ _______ _______ _____ _____    ______ ____
ROOT
ATOM      1  N   UNL     1      34.661 -19.560 -19.953  0.00  0.00    +0.387 N 
ATOM      2  C   UNL     1      34.360 -21.802 -18.084  0.00  0.00    +0.039 C 
ATOM      3  C   UNL     1      33.195 -20.864 -18.444  0.00  0.00    -0.017 C 
ATOM      4  C   UNL     1      35.699 -21.075 -18.292  0.00  0.00    -0.017 C 
ATOM      5  C   UNL     1      33.377 -20.264 -19.840  0.00  0.00    -0.077 C 
ATOM      6  C   UNL     1      35.787 -20.467 -19.695  0.00  0.00    -0.077 C 
ATOM      7  H   UNL     1      34.681 -18.825 -19.246  0.00  0.00    -0.080 HD
ENDROOT
BRANCH   2  11
ATOM      8  F   UNL     1      30.458 -23.675 -12.937  0.00  0.00    -0.204 F 
ATOM      9  O   UNL     1      34.860 -23.273 -14.833  0.00  0.00    -0.354 OA
ATOM     10  N   UNL     1      35.321 -22.785 -16.050  0.00  0.00    -0.081 NA
ATOM     11  C   UNL     1      34.227 -22.394 -16.700  0.00  0.00    +0.100 A 
ATOM     12  C   UNL     1      33.049 -22.600 -15.966  0.00  0.00    +0.054 A 
ATOM     13  C   UNL     1      33.504 -23.161 -14.786  0.00  0.00    +0.179 A 
ATOM     14  C   UNL     1      31.672 -22.391 -16.135  0.00  0.00    +0.007 C 
ATOM     15  C   UNL     1      32.682 -23.543 -13.730  0.00  0.00    +0.070 C 
ATOM     16  C   UNL     1      30.813 -22.764 -15.091  0.00  0.00    +0.030 C 
ATOM     17  C   UNL     1      31.311 -23.330 -13.912  0.00  0.00    +0.143 C 
ENDBRANCH   2  11
BRANCH   1  18
ATOM     18  C   UNL     1      34.793 -18.944 -21.274  0.00  0.00    -0.076 C 
BRANCH  18  19
ATOM     19  C   UNL     1      35.840 -17.841 -21.228  0.00  0.00    -0.007 C 
BRANCH  19  23
ATOM     20  O   UNL     1      35.244 -17.512 -23.917  0.00  0.00    -0.274 OA
ATOM     21  N   UNL     1      34.554 -15.288 -23.717  0.00  0.00    -0.211 N 
ATOM     22  N   UNL     1      34.544 -14.271 -21.571  0.00  0.00    -0.395 NA
ATOM     23  C   UNL     1      35.283 -16.552 -21.758  0.00  0.00    +0.123 C 
ATOM     24  C   UNL     1      35.017 -15.444 -21.039  0.00  0.00    +0.097 C 
ATOM     25  C   UNL     1      35.030 -16.510 -23.234  0.00  0.00    +0.241 C 
ATOM     26  C   UNL     1      34.331 -14.211 -22.851  0.00  0.00    +0.188 C 
ATOM     27  C   UNL     1      35.192 -15.379 -19.544  0.00  0.00    +0.062 C 
ATOM     28  C   UNL     1      33.814 -12.934 -23.459  0.00  0.00    +0.023 C 
ATOM     29  C   UNL     1      34.303 -15.164 -25.079  0.00  0.00    +0.074 C 
ATOM     30  C   UNL     1      33.596 -12.891 -24.781  0.00  0.00    +0.001 C 
ATOM     31  C   UNL     1      33.845 -14.030 -25.617  0.00  0.00    +0.016 C 
ATOM     32  C   UNL     1      33.566 -11.765 -22.555  0.00  0.00    +0.035 C 
ENDBRANCH  19  23
ENDBRANCH  18  19
ENDBRANCH   1  18
TORSDOF 4
ENDMDL
MODEL 7
REMARK VINA RESULT:     -12.5      4.077     10.805
REMARK  Name = 71351
REMARK  4 active torsions:
REMARK  status: ('A' for Active; 'I' for Inactive)
REMARK    1  A    between atoms: N_1  and  C_18
REMARK    2  A    between atoms: C_2  and  C_11
REMARK    3  A    between atoms: C_18  and  C_19
REMARK    4  A    between atoms: C_19  and  C_23
REMARK                            x       y       z     vdW  Elec       q    Type
REMARK                         _______ _______ _______ _____ _____    ______ ____
ROOT
ATOM      1  N   UNL     1      34.663 -19.948 -19.443  0.00  0.00    +0.387 N 
ATOM      2  C   UNL     1      34.439 -22.172 -17.544  0.00  0.00    +0.039 C 
ATOM      3  C   UNL     1      33.229 -21.324 -17.968  0.00  0.00    -0.017 C 
ATOM      4  C   UNL     1      35.732 -21.358 -17.713  0.00  0.00    -0.017 C 
ATOM      5  C   UNL     1      33.426 -20.736 -19.367  0.00  0.00    -0.077 C 
ATOM      6  C   UNL     1      35.837 -20.770 -19.122  0.00  0.00    -0.077 C 
ATOM      7  H   UNL     1      34.604 -19.201 -18.750  0.00  0.00    -0.080 HD
ENDROOT
BRANCH   2  11
ATOM      8  F   UNL     1      30.524 -23.673 -12.286  0.00  0.00    -0.204 F 
ATOM      9  O   UNL     1      34.890 -23.681 -14.303  0.00  0.00    -0.354 OA
ATOM     10  N   UNL     1      35.360 -23.239 -15.534  0.00  0.00    -0.081 NA
ATOM     11  C   UNL     1      34.290 -22.749 -16.154  0.00  0.00    +0.100 A 
ATOM     12  C   UNL     1      33.118 -22.844 -15.388  0.00  0.00    +0.054 A 
ATOM     13  C   UNL     1      33.552 -23.445 -14.219  0.00  0.00    +0.179 A 
ATOM     14  C   UNL     1      31.763 -22.509 -15.520  0.00  0.00    +0.007 C 
ATOM     15  C   UNL     1      32.728 -23.748 -13.140  0.00  0.00    +0.070 C 
ATOM     16  C   UNL     1      30.902 -22.801 -14.452  0.00  0.00    +0.030 C 
ATOM     17  C   UNL     1      31.378 -23.410 -13.286  0.00  0.00    +0.143 C 
ENDBRANCH   2  11
BRANCH   1  18
ATOM     18  C   UNL     1      34.807 -19.346 -20.770  0.00  0.00    -0.076 C 
BRANCH  18  19
ATOM     19  C   UNL     1      35.843 -18.233 -20.724  0.00  0.00    -0.007 C 
BRANCH  19  23
ATOM     20  O   UNL     1      35.457 -15.750 -19.548  0.00  0.00    -0.274 OA
ATOM     21  N   UNL     1      34.734 -14.694 -21.503  0.00  0.00    -0.211 N 
ATOM     22  N   UNL     1      34.667 -15.932 -23.529  0.00  0.00    -0.395 NA
ATOM     23  C   UNL     1      35.389 -17.047 -21.523  0.00  0.00    +0.123 C 
ATOM     24  C   UNL     1      35.119 -17.032 -22.843  0.00  0.00    +0.097 C 
ATOM     25  C   UNL     1      35.200 -15.777 -20.752  0.00  0.00    +0.241 C 
ATOM     26  C   UNL     1      34.486 -14.825 -22.875  0.00  0.00    +0.188 C 
ATOM     27  C   UNL     1      35.309 -18.235 -23.729  0.00  0.00    +0.062 C 
ATOM     28  C   UNL     1      33.988 -13.605 -23.605  0.00  0.00    +0.023 C 
ATOM     29  C   UNL     1      34.523 -13.479 -20.860  0.00  0.00    +0.074 C 
ATOM     30  C   UNL     1      33.809 -12.469 -22.915  0.00  0.00    +0.001 C 
ATOM     31  C   UNL     1      34.082 -12.398 -21.508  0.00  0.00    +0.016 C 
ATOM     32  C   UNL     1      33.714 -13.717 -25.073  0.00  0.00    +0.035 C 
ENDBRANCH  19  23
ENDBRANCH  18  19
ENDBRANCH   1  18
TORSDOF 4
ENDMDL
MODEL 8
REMARK VINA RESULT:     -12.3      3.458     10.758
REMARK  Name = 71351
REMARK  4 active torsions:
REMARK  status: ('A' for Active; 'I' for Inactive)
REMARK    1  A    between atoms: N_1  and  C_18
REMARK    2  A    between atoms: C_2  and  C_11
REMARK    3  A    between atoms: C_18  and  C_19
REMARK    4  A    between atoms: C_19  and  C_23
REMARK                            x       y       z     vdW  Elec       q    Type
REMARK                         _______ _______ _______ _____ _____    ______ ____
ROOT
ATOM      1  N   UNL     1      34.524 -20.275 -19.038  0.00  0.00    +0.387 N 
ATOM      2  C   UNL     1      34.796 -22.324 -16.956  0.00  0.00    +0.039 C 
ATOM      3  C   UNL     1      33.431 -21.770 -17.396  0.00  0.00    -0.017 C 
ATOM      4  C   UNL     1      35.896 -21.290 -17.245  0.00  0.00    -0.017 C 
ATOM      5  C   UNL     1      33.471 -21.281 -18.846  0.00  0.00    -0.077 C 
ATOM      6  C   UNL     1      35.846 -20.819 -18.701  0.00  0.00    -0.077 C 
ATOM      7  H   UNL     1      34.334 -19.496 -18.406  0.00  0.00    -0.080 HD
ENDROOT
BRANCH   2  11
ATOM      8  F   UNL     1      38.219 -24.375 -11.543  0.00  0.00    -0.204 F 
ATOM      9  O   UNL     1      33.993 -23.351 -13.597  0.00  0.00    -0.354 OA
ATOM     10  N   UNL     1      33.645 -22.908 -14.867  0.00  0.00    -0.081 NA
ATOM     11  C   UNL     1      34.800 -22.793 -15.519  0.00  0.00    +0.100 A 
ATOM     12  C   UNL     1      35.910 -23.142 -14.735  0.00  0.00    +0.054 A 
ATOM     13  C   UNL     1      35.345 -23.490 -13.521  0.00  0.00    +0.179 A 
ATOM     14  C   UNL     1      37.303 -23.212 -14.883  0.00  0.00    +0.007 C 
ATOM     15  C   UNL     1      36.069 -23.913 -12.410  0.00  0.00    +0.070 C 
ATOM     16  C   UNL     1      38.065 -23.634 -13.784  0.00  0.00    +0.030 C 
ATOM     17  C   UNL     1      37.457 -23.976 -12.571  0.00  0.00    +0.143 C 
ENDBRANCH   2  11
BRANCH   1  18
ATOM     18  C   UNL     1      34.511 -19.777 -20.414  0.00  0.00    -0.076 C 
BRANCH  18  19
ATOM     19  C   UNL     1      35.745 -18.922 -20.666  0.00  0.00    -0.007 C 
BRANCH  19  23
ATOM     20  O   UNL     1      35.644 -16.382 -19.554  0.00  0.00    -0.274 OA
ATOM     21  N   UNL     1      34.992 -15.307 -21.525  0.00  0.00    -0.211 N 
ATOM     22  N   UNL     1      34.754 -16.585 -23.512  0.00  0.00    -0.395 NA
ATOM     23  C   UNL     1      35.399 -17.716 -21.490  0.00  0.00    +0.123 C 
ATOM     24  C   UNL     1      35.104 -17.707 -22.804  0.00  0.00    +0.097 C 
ATOM     25  C   UNL     1      35.360 -16.413 -20.752  0.00  0.00    +0.241 C 
ATOM     26  C   UNL     1      34.703 -15.448 -22.887  0.00  0.00    +0.188 C 
ATOM     27  C   UNL     1      35.149 -18.947 -23.660  0.00  0.00    +0.062 C 
ATOM     28  C   UNL     1      34.319 -14.202 -23.642  0.00  0.00    +0.023 C 
ATOM     29  C   UNL     1      34.923 -14.061 -20.912  0.00  0.00    +0.074 C 
ATOM     30  C   UNL     1      34.274 -13.036 -22.981  0.00  0.00    +0.001 C 
ATOM     31  C   UNL     1      34.583 -12.957 -21.582  0.00  0.00    +0.016 C 
ATOM     32  C   UNL     1      34.002 -14.323 -25.101  0.00  0.00    +0.035 C 
ENDBRANCH  19  23
ENDBRANCH  18  19
ENDBRANCH   1  18
TORSDOF 4
ENDMDL
MODEL 9
REMARK VINA RESULT:     -12.2      2.867      4.346
REMARK  Name = 71351
REMARK  4 active torsions:
REMARK  status: ('A' for Active; 'I' for Inactive)
REMARK    1  A    between atoms: N_1  and  C_18
REMARK    2  A    between atoms: C_2  and  C_11
REMARK    3  A    between atoms: C_18  and  C_19
REMARK    4  A    between atoms: C_19  and  C_23
REMARK                            x       y       z     vdW  Elec       q    Type
REMARK                         _______ _______ _______ _____ _____    ______ ____
ROOT
ATOM      1  N   UNL     1      35.795 -18.682 -20.177  0.00  0.00    +0.387 N 
ATOM      2  C   UNL     1      35.438 -17.484 -22.831  0.00  0.00    +0.039 C 
ATOM      3  C   UNL     1      36.294 -16.826 -21.736  0.00  0.00    -0.017 C 
ATOM      4  C   UNL     1      34.380 -18.396 -22.188  0.00  0.00    -0.017 C 
ATOM      5  C   UNL     1      36.864 -17.871 -20.774  0.00  0.00    -0.077 C 
ATOM      6  C   UNL     1      35.022 -19.384 -21.209  0.00  0.00    -0.077 C 
ATOM      7  H   UNL     1      35.162 -18.053 -19.682  0.00  0.00    -0.080 HD
ENDROOT
BRANCH   2  11
ATOM      8  F   UNL     1      33.529 -11.172 -24.148  0.00  0.00    -0.204 F 
ATOM      9  O   UNL     1      33.950 -15.735 -25.608  0.00  0.00    -0.354 OA
ATOM     10  N   UNL     1      34.446 -16.879 -24.994  0.00  0.00    -0.081 NA
ATOM     11  C   UNL     1      34.837 -16.478 -23.786  0.00  0.00    +0.100 A 
ATOM     12  C   UNL     1      34.624 -15.109 -23.565  0.00  0.00    +0.054 A 
ATOM     13  C   UNL     1      34.058 -14.681 -24.753  0.00  0.00    +0.179 A 
ATOM     14  C   UNL     1      34.829 -14.181 -22.534  0.00  0.00    +0.007 C 
ATOM     15  C   UNL     1      33.669 -13.369 -25.009  0.00  0.00    +0.070 C 
ATOM     16  C   UNL     1      34.448 -12.850 -22.757  0.00  0.00    +0.030 C 
ATOM     17  C   UNL     1      33.880 -12.454 -23.972  0.00  0.00    +0.143 C 
ENDBRANCH   2  11
BRANCH   1  18
ATOM     18  C   UNL     1      36.352 -19.636 -19.217  0.00  0.00    -0.076 C 
BRANCH  18  19
ATOM     19  C   UNL     1      35.786 -21.024 -19.479  0.00  0.00    -0.007 C 
BRANCH  19  23
ATOM     20  O   UNL     1      36.584 -22.014 -17.014  0.00  0.00    -0.274 OA
ATOM     21  N   UNL     1      34.418 -22.335 -16.196  0.00  0.00    -0.211 N 
ATOM     22  N   UNL     1      32.569 -21.716 -17.552  0.00  0.00    -0.395 NA
ATOM     23  C   UNL     1      34.789 -21.403 -18.424  0.00  0.00    +0.123 C 
ATOM     24  C   UNL     1      33.448 -21.321 -18.529  0.00  0.00    +0.097 C 
ATOM     25  C   UNL     1      35.362 -21.945 -17.151  0.00  0.00    +0.241 C 
ATOM     26  C   UNL     1      33.047 -22.200 -16.446  0.00  0.00    +0.188 C 
ATOM     27  C   UNL     1      32.757 -20.757 -19.743  0.00  0.00    +0.062 C 
ATOM     28  C   UNL     1      32.102 -22.643 -15.360  0.00  0.00    +0.023 C 
ATOM     29  C   UNL     1      34.869 -22.857 -14.989  0.00  0.00    +0.074 C 
ATOM     30  C   UNL     1      32.613 -23.137 -14.223  0.00  0.00    +0.001 C 
ATOM     31  C   UNL     1      34.030 -23.249 -14.027  0.00  0.00    +0.016 C 
ATOM     32  C   UNL     1      30.630 -22.511 -15.601  0.00  0.00    +0.035 C 
ENDBRANCH  19  23
ENDBRANCH  18  19
ENDBRANCH   1  18
TORSDOF 4
ENDMDL
