MODEL 1
REMARK VINA RESULT:     -12.6      0.000      0.000
REMARK  Name = 9823454
REMARK  7 active torsions:
REMARK  status: ('A' for Active; 'I' for Inactive)
REMARK    1  A    between atoms: C_1  and  C_4
REMARK    2  A    between atoms: C_1  and  N_8
REMARK    3  A    between atoms: C_1  and  C_23
REMARK    4  A    between atoms: N_3  and  O_6
REMARK    5  A    between atoms: N_8  and  S_10
REMARK    6  A    between atoms: S_10  and  C_13
REMARK    7  A    between atoms: C_23  and  C_24
REMARK                            x       y       z     vdW  Elec       q    Type
REMARK                         _______ _______ _______ _____ _____    ______ ____
ROOT
ATOM      1  C   UNL     1      34.831 -23.470 -12.906  0.00  0.00    +0.158 C 
ENDROOT
BRANCH   1   4
ATOM      2  O   UNL     1      35.499 -23.560 -10.585  0.00  0.00    -0.272 OA
ATOM      3  N   UNL     1      36.476 -25.021 -12.081  0.00  0.00    -0.196 N 
ATOM      4  C   UNL     1      35.622 -24.007 -11.724  0.00  0.00    +0.260 C 
ATOM      5  H   UNL     1      36.541 -25.348 -13.008  0.00  0.00    +0.182 HD
BRANCH   3   6
ATOM      6  O   UNL     1      37.249 -25.563 -11.045  0.00  0.00    -0.295 OA
ATOM      7  H   UNL     1      37.830 -26.252 -11.403  0.00  0.00    +0.241 HD
ENDBRANCH   3   6
ENDBRANCH   1   4
BRANCH   1   8
ATOM      8  N   UNL     1      35.712 -22.467 -13.552  0.00  0.00    -0.172 NA
ATOM      9  H   UNL     1      35.115 -21.694 -13.843  0.00  0.00    +0.149 HD
BRANCH   8  10
ATOM     10  S   UNL     1      36.643 -22.905 -14.903  0.00  0.00    +0.061 S 
ATOM     11  O   UNL     1      36.645 -24.350 -15.040  0.00  0.00    -0.153 OA
ATOM     12  O   UNL     1      37.895 -22.174 -14.863  0.00  0.00    -0.153 OA
BRANCH  10  13
ATOM     13  C   UNL     1      35.694 -22.233 -16.233  0.00  0.00    +0.122 C 
ATOM     14  C   UNL     1      36.323 -21.441 -17.179  0.00  0.00    +0.020 C 
ATOM     15  C   UNL     1      35.583 -20.899 -18.242  0.00  0.00    +0.001 C 
ATOM     16  C   UNL     1      34.343 -22.510 -16.305  0.00  0.00    +0.020 C 
ATOM     17  C   UNL     1      34.197 -21.172 -18.331  0.00  0.00    +0.000 C 
ATOM     18  C   UNL     1      33.593 -21.979 -17.355  0.00  0.00    +0.001 C 
ATOM     19  C   UNL     1      36.188 -20.091 -19.219  0.00  0.00    +0.000 C 
ATOM     20  C   UNL     1      33.457 -20.628 -19.394  0.00  0.00    +0.000 C 
ATOM     21  C   UNL     1      35.438 -19.560 -20.268  0.00  0.00    +0.000 C 
ATOM     22  C   UNL     1      34.076 -19.829 -20.356  0.00  0.00    +0.000 C 
ENDBRANCH  10  13
ENDBRANCH   8  10
ENDBRANCH   1   8
BRANCH   1  23
ATOM     23  C   UNL     1      33.527 -22.798 -12.444  0.00  0.00    +0.053 C 
BRANCH  23  24
ATOM     24  C   UNL     1      32.339 -23.195 -13.253  0.00  0.00    -0.020 C 
ATOM     25  C   UNL     1      31.660 -22.240 -14.012  0.00  0.00    -0.004 C 
ATOM     26  C   UNL     1      30.539 -22.598 -14.779  0.00  0.00    -0.000 C 
ATOM     27  C   UNL     1      31.907 -24.518 -13.252  0.00  0.00    -0.004 C 
ATOM     28  C   UNL     1      30.101 -23.944 -14.777  0.00  0.00    -0.000 C 
ATOM     29  C   UNL     1      30.796 -24.891 -14.008  0.00  0.00    -0.000 C 
ATOM     30  C   UNL     1      29.845 -21.650 -15.547  0.00  0.00    -0.000 C 
ATOM     31  C   UNL     1      28.980 -24.302 -15.544  0.00  0.00    -0.000 C 
ATOM     32  C   UNL     1      28.733 -22.023 -16.304  0.00  0.00    -0.000 C 
ATOM     33  C   UNL     1      28.302 -23.346 -16.301  0.00  0.00    -0.000 C 
ENDBRANCH  23  24
ENDBRANCH   1  23
TORSDOF 7
ENDMDL
MODEL 2
REMARK VINA RESULT:     -12.1      1.535      6.092
REMARK  Name = 9823454
REMARK  7 active torsions:
REMARK  status: ('A' for Active; 'I' for Inactive)
REMARK    1  A    between atoms: C_1  and  C_4
REMARK    2  A    between atoms: C_1  and  N_8
REMARK    3  A    between atoms: C_1  and  C_23
REMARK    4  A    between atoms: N_3  and  O_6
REMARK    5  A    between atoms: N_8  and  S_10
REMARK    6  A    between atoms: S_10  and  C_13
REMARK    7  A    between atoms: C_23  and  C_24
REMARK                            x       y       z     vdW  Elec       q    Type
REMARK                         _______ _______ _______ _____ _____    ______ ____
ROOT
ATOM      1  C   UNL     1      36.096 -21.830 -15.020  0.00  0.00    +0.158 C 
ENDROOT
BRANCH   1   4
ATOM      2  O   UNL     1      37.771 -22.127 -13.302  0.00  0.00    -0.272 OA
ATOM      3  N   UNL     1      38.118 -23.085 -15.374  0.00  0.00    -0.196 N 
ATOM      4  C   UNL     1      37.406 -22.354 -14.455  0.00  0.00    +0.260 C 
ATOM      5  H   UNL     1      37.786 -23.242 -16.288  0.00  0.00    +0.182 HD
BRANCH   3   6
ATOM      6  O   UNL     1      39.346 -23.596 -14.931  0.00  0.00    -0.295 OA
ATOM      7  H   UNL     1      39.190 -24.249 -14.231  0.00  0.00    +0.241 HD
ENDBRANCH   3   6
ENDBRANCH   1   4
BRANCH   1   8
ATOM      8  N   UNL     1      35.096 -22.012 -13.941  0.00  0.00    -0.172 NA
ATOM      9  H   UNL     1      35.443 -21.504 -13.128  0.00  0.00    +0.149 HD
BRANCH   8  10
ATOM     10  S   UNL     1      34.699 -23.576 -13.411  0.00  0.00    +0.061 S 
ATOM     11  O   UNL     1      34.858 -23.653 -11.971  0.00  0.00    -0.153 OA
ATOM     12  O   UNL     1      35.358 -24.541 -14.271  0.00  0.00    -0.153 OA
BRANCH  10  13
ATOM     13  C   UNL     1      32.972 -23.656 -13.774  0.00  0.00    +0.122 C 
ATOM     14  C   UNL     1      32.452 -22.848 -14.771  0.00  0.00    +0.020 C 
ATOM     15  C   UNL     1      31.081 -22.900 -15.071  0.00  0.00    +0.001 C 
ATOM     16  C   UNL     1      32.172 -24.524 -13.057  0.00  0.00    +0.020 C 
ATOM     17  C   UNL     1      30.247 -23.784 -14.345  0.00  0.00    +0.000 C 
ATOM     18  C   UNL     1      30.808 -24.589 -13.342  0.00  0.00    +0.001 C 
ATOM     19  C   UNL     1      30.520 -22.094 -16.074  0.00  0.00    +0.000 C 
ATOM     20  C   UNL     1      28.875 -23.835 -14.645  0.00  0.00    +0.000 C 
ATOM     21  C   UNL     1      29.155 -22.158 -16.359  0.00  0.00    +0.000 C 
ATOM     22  C   UNL     1      28.335 -23.027 -15.646  0.00  0.00    +0.000 C 
ENDBRANCH  10  13
ENDBRANCH   8  10
ENDBRANCH   1   8
BRANCH   1  23
ATOM     23  C   UNL     1      35.669 -22.624 -16.265  0.00  0.00    +0.053 C 
BRANCH  23  24
ATOM     24  C   UNL     1      35.277 -21.758 -17.414  0.00  0.00    -0.020 C 
ATOM     25  C   UNL     1      36.236 -20.972 -18.055  0.00  0.00    -0.004 C 
ATOM     26  C   UNL     1      35.882 -20.151 -19.139  0.00  0.00    -0.000 C 
ATOM     27  C   UNL     1      33.955 -21.734 -17.847  0.00  0.00    -0.004 C 
ATOM     28  C   UNL     1      34.537 -20.127 -19.578  0.00  0.00    -0.000 C 
ATOM     29  C   UNL     1      33.586 -20.925 -18.922  0.00  0.00    -0.000 C 
ATOM     30  C   UNL     1      36.834 -19.354 -19.794  0.00  0.00    -0.000 C 
ATOM     31  C   UNL     1      34.183 -19.307 -20.662  0.00  0.00    -0.000 C 
ATOM     32  C   UNL     1      36.465 -18.544 -20.869  0.00  0.00    -0.000 C 
ATOM     33  C   UNL     1      35.143 -18.520 -21.301  0.00  0.00    -0.000 C 
ENDBRANCH  23  24
ENDBRANCH   1  23
TORSDOF 7
ENDMDL
MODEL 3
REMARK VINA RESULT:     -11.0      1.264      1.442
REMARK  Name = 9823454
REMARK  7 active torsions:
REMARK  status: ('A' for Active; 'I' for Inactive)
REMARK    1  A    between atoms: C_1  and  C_4
REMARK    2  A    between atoms: C_1  and  N_8
REMARK    3  A    between atoms: C_1  and  C_23
REMARK    4  A    between atoms: N_3  and  O_6
REMARK    5  A    between atoms: N_8  and  S_10
REMARK    6  A    between atoms: S_10  and  C_13
REMARK    7  A    between atoms: C_23  and  C_24
REMARK                            x       y       z     vdW  Elec       q    Type
REMARK                         _______ _______ _______ _____ _____    ______ ____
ROOT
ATOM      1  C   UNL     1      35.448 -24.483 -14.042  0.00  0.00    +0.158 C 
ENDROOT
BRANCH   1   4
ATOM      2  O   UNL     1      36.884 -24.429 -12.098  0.00  0.00    -0.272 OA
ATOM      3  N   UNL     1      37.634 -25.488 -14.008  0.00  0.00    -0.196 N 
ATOM      4  C   UNL     1      36.717 -24.788 -13.263  0.00  0.00    +0.260 C 
ATOM      5  H   UNL     1      37.457 -25.755 -14.939  0.00  0.00    +0.182 HD
BRANCH   3   6
ATOM      6  O   UNL     1      38.838 -25.800 -13.361  0.00  0.00    -0.295 OA
ATOM      7  H   UNL     1      38.931 -26.763 -13.299  0.00  0.00    +0.241 HD
ENDBRANCH   3   6
ENDBRANCH   1   4
BRANCH   1   8
ATOM      8  N   UNL     1      35.901 -23.907 -15.331  0.00  0.00    -0.172 NA
ATOM      9  H   UNL     1      36.576 -24.562 -15.725  0.00  0.00    +0.149 HD
BRANCH   8  10
ATOM     10  S   UNL     1      36.628 -22.373 -15.363  0.00  0.00    +0.061 S 
ATOM     11  O   UNL     1      38.053 -22.519 -15.589  0.00  0.00    -0.153 OA
ATOM     12  O   UNL     1      36.143 -21.603 -14.233  0.00  0.00    -0.153 OA
BRANCH  10  13
ATOM     13  C   UNL     1      35.915 -21.662 -16.815  0.00  0.00    +0.122 C 
ATOM     14  C   UNL     1      36.692 -20.846 -17.620  0.00  0.00    +0.020 C 
ATOM     15  C   UNL     1      36.141 -20.273 -18.777  0.00  0.00    +0.001 C 
ATOM     16  C   UNL     1      34.596 -21.933 -17.121  0.00  0.00    +0.020 C 
ATOM     17  C   UNL     1      34.790 -20.540 -19.105  0.00  0.00    +0.000 C 
ATOM     18  C   UNL     1      34.032 -21.372 -18.267  0.00  0.00    +0.001 C 
ATOM     19  C   UNL     1      36.900 -19.440 -19.615  0.00  0.00    +0.000 C 
ATOM     20  C   UNL     1      34.238 -19.966 -20.262  0.00  0.00    +0.000 C 
ATOM     21  C   UNL     1      36.335 -18.879 -20.761  0.00  0.00    +0.000 C 
ATOM     22  C   UNL     1      35.008 -19.142 -21.084  0.00  0.00    +0.000 C 
ENDBRANCH  10  13
ENDBRANCH   8  10
ENDBRANCH   1   8
BRANCH   1  23
ATOM     23  C   UNL     1      34.570 -23.464 -13.296  0.00  0.00    +0.053 C 
BRANCH  23  24
ATOM     24  C   UNL     1      33.120 -23.580 -13.627  0.00  0.00    -0.020 C 
ATOM     25  C   UNL     1      32.569 -22.792 -14.638  0.00  0.00    -0.004 C 
ATOM     26  C   UNL     1      31.205 -22.890 -14.961  0.00  0.00    -0.000 C 
ATOM     27  C   UNL     1      32.317 -24.475 -12.926  0.00  0.00    -0.004 C 
ATOM     28  C   UNL     1      30.389 -23.800 -14.248  0.00  0.00    -0.000 C 
ATOM     29  C   UNL     1      30.960 -24.585 -13.234  0.00  0.00    -0.000 C 
ATOM     30  C   UNL     1      30.635 -22.104 -15.975  0.00  0.00    -0.000 C 
ATOM     31  C   UNL     1      29.026 -23.898 -14.571  0.00  0.00    -0.000 C 
ATOM     32  C   UNL     1      29.278 -22.214 -16.283  0.00  0.00    -0.000 C 
ATOM     33  C   UNL     1      28.476 -23.108 -15.582  0.00  0.00    -0.000 C 
ENDBRANCH  23  24
ENDBRANCH   1  23
TORSDOF 7
ENDMDL
MODEL 4
REMARK VINA RESULT:     -11.0      3.091      5.688
REMARK  Name = 9823454
REMARK  7 active torsions:
REMARK  status: ('A' for Active; 'I' for Inactive)
REMARK    1  A    between atoms: C_1  and  C_4
REMARK    2  A    between atoms: C_1  and  N_8
REMARK    3  A    between atoms: C_1  and  C_23
REMARK    4  A    between atoms: N_3  and  O_6
REMARK    5  A    between atoms: N_8  and  S_10
REMARK    6  A    between atoms: S_10  and  C_13
REMARK    7  A    between atoms: C_23  and  C_24
REMARK                            x       y       z     vdW  Elec       q    Type
REMARK                         _______ _______ _______ _____ _____    ______ ____
ROOT
ATOM      1  C   UNL     1      32.486 -22.330 -15.562  0.00  0.00    +0.158 C 
ENDROOT
BRANCH   1   4
ATOM      2  O   UNL     1      30.465 -22.334 -14.236  0.00  0.00    -0.272 OA
ATOM      3  N   UNL     1      30.306 -21.949 -16.507  0.00  0.00    -0.196 N 
ATOM      4  C   UNL     1      30.987 -22.206 -15.343  0.00  0.00    +0.260 C 
ATOM      5  H   UNL     1      30.766 -21.854 -17.373  0.00  0.00    +0.182 HD
BRANCH   3   6
ATOM      6  O   UNL     1      28.914 -21.831 -16.388  0.00  0.00    -0.295 OA
ATOM      7  H   UNL     1      28.492 -22.642 -16.712  0.00  0.00    +0.241 HD
ENDBRANCH   3   6
ENDBRANCH   1   4
BRANCH   1   8
ATOM      8  N   UNL     1      32.710 -21.983 -16.986  0.00  0.00    -0.172 NA
ATOM      9  H   UNL     1      31.978 -22.448 -17.522  0.00  0.00    +0.149 HD
BRANCH   8  10
ATOM     10  S   UNL     1      34.186 -22.373 -17.729  0.00  0.00    +0.061 S 
ATOM     11  O   UNL     1      34.038 -23.606 -18.480  0.00  0.00    -0.153 OA
ATOM     12  O   UNL     1      35.250 -22.237 -16.753  0.00  0.00    -0.153 OA
BRANCH  10  13
ATOM     13  C   UNL     1      34.373 -21.050 -18.885  0.00  0.00    +0.122 C 
ATOM     14  C   UNL     1      35.641 -20.563 -19.155  0.00  0.00    +0.020 C 
ATOM     15  C   UNL     1      35.807 -19.511 -20.071  0.00  0.00    +0.001 C 
ATOM     16  C   UNL     1      33.252 -20.527 -19.498  0.00  0.00    +0.020 C 
ATOM     17  C   UNL     1      34.668 -18.963 -20.708  0.00  0.00    +0.000 C 
ATOM     18  C   UNL     1      33.399 -19.482 -20.411  0.00  0.00    +0.001 C 
ATOM     19  C   UNL     1      37.078 -18.993 -20.368  0.00  0.00    +0.000 C 
ATOM     20  C   UNL     1      34.834 -17.910 -21.624  0.00  0.00    +0.000 C 
ATOM     21  C   UNL     1      37.224 -17.947 -21.281  0.00  0.00    +0.000 C 
ATOM     22  C   UNL     1      36.105 -17.408 -21.907  0.00  0.00    +0.000 C 
ENDBRANCH  10  13
ENDBRANCH   8  10
ENDBRANCH   1   8
BRANCH   1  23
ATOM     23  C   UNL     1      32.970 -23.764 -15.293  0.00  0.00    +0.053 C 
BRANCH  23  24
ATOM     24  C   UNL     1      34.039 -23.843 -14.256  0.00  0.00    -0.020 C 
ATOM     25  C   UNL     1      35.286 -24.381 -14.577  0.00  0.00    -0.004 C 
ATOM     26  C   UNL     1      36.302 -24.462 -13.611  0.00  0.00    -0.000 C 
ATOM     27  C   UNL     1      33.793 -23.378 -12.968  0.00  0.00    -0.004 C 
ATOM     28  C   UNL     1      36.050 -23.989 -12.301  0.00  0.00    -0.000 C 
ATOM     29  C   UNL     1      34.791 -23.450 -11.996  0.00  0.00    -0.000 C 
ATOM     30  C   UNL     1      37.562 -25.002 -13.917  0.00  0.00    -0.000 C 
ATOM     31  C   UNL     1      37.067 -24.069 -11.335  0.00  0.00    -0.000 C 
ATOM     32  C   UNL     1      38.561 -25.073 -12.945  0.00  0.00    -0.000 C 
ATOM     33  C   UNL     1      38.313 -24.609 -11.656  0.00  0.00    -0.000 C 
ENDBRANCH  23  24
ENDBRANCH   1  23
TORSDOF 7
ENDMDL
MODEL 5
REMARK VINA RESULT:     -11.0      1.944      3.170
REMARK  Name = 9823454
REMARK  7 active torsions:
REMARK  status: ('A' for Active; 'I' for Inactive)
REMARK    1  A    between atoms: C_1  and  C_4
REMARK    2  A    between atoms: C_1  and  N_8
REMARK    3  A    between atoms: C_1  and  C_23
REMARK    4  A    between atoms: N_3  and  O_6
REMARK    5  A    between atoms: N_8  and  S_10
REMARK    6  A    between atoms: S_10  and  C_13
REMARK    7  A    between atoms: C_23  and  C_24
REMARK                            x       y       z     vdW  Elec       q    Type
REMARK                         _______ _______ _______ _____ _____    ______ ____
ROOT
ATOM      1  C   UNL     1      34.697 -23.648 -15.261  0.00  0.00    +0.158 C 
ENDROOT
BRANCH   1   4
ATOM      2  O   UNL     1      36.899 -24.590 -14.939  0.00  0.00    -0.272 OA
ATOM      3  N   UNL     1      36.557 -22.362 -14.438  0.00  0.00    -0.196 N 
ATOM      4  C   UNL     1      36.165 -23.605 -14.872  0.00  0.00    +0.260 C 
ATOM      5  H   UNL     1      35.934 -21.600 -14.402  0.00  0.00    +0.182 HD
BRANCH   3   6
ATOM      6  O   UNL     1      37.899 -22.244 -14.051  0.00  0.00    -0.295 OA
ATOM      7  H   UNL     1      38.212 -21.346 -14.242  0.00  0.00    +0.241 HD
ENDBRANCH   3   6
ENDBRANCH   1   4
BRANCH   1   8
ATOM      8  N   UNL     1      34.423 -22.352 -15.927  0.00  0.00    -0.172 NA
ATOM      9  H   UNL     1      33.820 -21.819 -15.301  0.00  0.00    +0.149 HD
BRANCH   8  10
ATOM     10  S   UNL     1      33.686 -22.327 -17.457  0.00  0.00    +0.061 S 
ATOM     11  O   UNL     1      32.383 -21.698 -17.355  0.00  0.00    -0.153 OA
ATOM     12  O   UNL     1      33.817 -23.640 -18.060  0.00  0.00    -0.153 OA
BRANCH  10  13
ATOM     13  C   UNL     1      34.749 -21.239 -18.356  0.00  0.00    +0.122 C 
ATOM     14  C   UNL     1      34.226 -20.492 -19.398  0.00  0.00    +0.020 C 
ATOM     15  C   UNL     1      35.057 -19.622 -20.123  0.00  0.00    +0.001 C 
ATOM     16  C   UNL     1      36.081 -21.152 -18.003  0.00  0.00    +0.020 C 
ATOM     17  C   UNL     1      36.425 -19.522 -19.774  0.00  0.00    +0.000 C 
ATOM     18  C   UNL     1      36.921 -20.293 -18.712  0.00  0.00    +0.001 C 
ATOM     19  C   UNL     1      34.561 -18.851 -21.186  0.00  0.00    +0.000 C 
ATOM     20  C   UNL     1      37.257 -18.653 -20.500  0.00  0.00    +0.000 C 
ATOM     21  C   UNL     1      35.401 -17.992 -21.896  0.00  0.00    +0.000 C 
ATOM     22  C   UNL     1      36.746 -17.894 -21.553  0.00  0.00    +0.000 C 
ENDBRANCH  10  13
ENDBRANCH   8  10
ENDBRANCH   1   8
BRANCH   1  23
ATOM     23  C   UNL     1      33.797 -23.797 -14.023  0.00  0.00    +0.053 C 
BRANCH  23  24
ATOM     24  C   UNL     1      32.425 -23.247 -14.219  0.00  0.00    -0.020 C 
ATOM     25  C   UNL     1      31.534 -23.884 -15.084  0.00  0.00    -0.004 C 
ATOM     26  C   UNL     1      30.238 -23.378 -15.278  0.00  0.00    -0.000 C 
ATOM     27  C   UNL     1      32.033 -22.098 -13.538  0.00  0.00    -0.004 C 
ATOM     28  C   UNL     1      29.840 -22.210 -14.586  0.00  0.00    -0.000 C 
ATOM     29  C   UNL     1      30.749 -21.583 -13.719  0.00  0.00    -0.000 C 
ATOM     30  C   UNL     1      29.330 -24.007 -16.145  0.00  0.00    -0.000 C 
ATOM     31  C   UNL     1      28.545 -21.704 -14.780  0.00  0.00    -0.000 C 
ATOM     32  C   UNL     1      28.046 -23.490 -16.327  0.00  0.00    -0.000 C 
ATOM     33  C   UNL     1      27.655 -22.341 -15.646  0.00  0.00    -0.000 C 
ENDBRANCH  23  24
ENDBRANCH   1  23
TORSDOF 7
ENDMDL
MODEL 6
REMARK VINA RESULT:     -10.9      7.946     11.124
REMARK  Name = 9823454
REMARK  7 active torsions:
REMARK  status: ('A' for Active; 'I' for Inactive)
REMARK    1  A    between atoms: C_1  and  C_4
REMARK    2  A    between atoms: C_1  and  N_8
REMARK    3  A    between atoms: C_1  and  C_23
REMARK    4  A    between atoms: N_3  and  O_6
REMARK    5  A    between atoms: N_8  and  S_10
REMARK    6  A    between atoms: S_10  and  C_13
REMARK    7  A    between atoms: C_23  and  C_24
REMARK                            x       y       z     vdW  Elec       q    Type
REMARK                         _______ _______ _______ _____ _____    ______ ____
ROOT
ATOM      1  C   UNL     1      34.882 -16.315 -22.533  0.00  0.00    +0.158 C 
ENDROOT
BRANCH   1   4
ATOM      2  O   UNL     1      34.464 -17.318 -24.692  0.00  0.00    -0.272 OA
ATOM      3  N   UNL     1      34.477 -15.016 -24.518  0.00  0.00    -0.196 N 
ATOM      4  C   UNL     1      34.583 -16.293 -24.024  0.00  0.00    +0.260 C 
ATOM      5  H   UNL     1      34.581 -14.222 -23.944  0.00  0.00    +0.182 HD
BRANCH   3   6
ATOM      6  O   UNL     1      34.212 -14.912 -25.890  0.00  0.00    -0.295 OA
ATOM      7  H   UNL     1      33.523 -15.549 -26.136  0.00  0.00    +0.241 HD
ENDBRANCH   3   6
ENDBRANCH   1   4
BRANCH   1   8
ATOM      8  N   UNL     1      35.011 -14.894 -22.132  0.00  0.00    -0.172 NA
ATOM      9  H   UNL     1      36.000 -14.656 -22.201  0.00  0.00    +0.149 HD
BRANCH   8  10
ATOM     10  S   UNL     1      34.494 -14.401 -20.591  0.00  0.00    +0.061 S 
ATOM     11  O   UNL     1      35.649 -14.072 -19.777  0.00  0.00    -0.153 OA
ATOM     12  O   UNL     1      33.505 -15.345 -20.106  0.00  0.00    -0.153 OA
BRANCH  10  13
ATOM     13  C   UNL     1      33.639 -12.899 -20.957  0.00  0.00    +0.122 C 
ATOM     14  C   UNL     1      34.069 -12.116 -22.015  0.00  0.00    +0.020 C 
ATOM     15  C   UNL     1      33.400 -10.919 -22.318  0.00  0.00    +0.001 C 
ATOM     16  C   UNL     1      32.557 -12.533 -20.181  0.00  0.00    +0.020 C 
ATOM     17  C   UNL     1      32.289 -10.529 -21.533  0.00  0.00    +0.000 C 
ATOM     18  C   UNL     1      31.880 -11.347 -20.469  0.00  0.00    +0.001 C 
ATOM     19  C   UNL     1      33.810 -10.101 -23.383  0.00  0.00    +0.000 C 
ATOM     20  C   UNL     1      31.621  -9.331 -21.836  0.00  0.00    +0.000 C 
ATOM     21  C   UNL     1      33.134  -8.914 -23.670  0.00  0.00    +0.000 C 
ATOM     22  C   UNL     1      32.042  -8.531 -22.899  0.00  0.00    +0.000 C 
ENDBRANCH  10  13
ENDBRANCH   8  10
ENDBRANCH   1   8
BRANCH   1  23
ATOM     23  C   UNL     1      36.194 -17.061 -22.240  0.00  0.00    +0.053 C 
BRANCH  23  24
ATOM     24  C   UNL     1      36.046 -18.141 -21.222  0.00  0.00    -0.020 C 
ATOM     25  C   UNL     1      34.781 -18.640 -20.912  0.00  0.00    -0.004 C 
ATOM     26  C   UNL     1      34.625 -19.657 -19.956  0.00  0.00    -0.000 C 
ATOM     27  C   UNL     1      37.172 -18.651 -20.581  0.00  0.00    -0.004 C 
ATOM     28  C   UNL     1      35.770 -20.175 -19.305  0.00  0.00    -0.000 C 
ATOM     29  C   UNL     1      37.036 -19.661 -19.629  0.00  0.00    -0.000 C 
ATOM     30  C   UNL     1      33.359 -20.170 -19.633  0.00  0.00    -0.000 C 
ATOM     31  C   UNL     1      35.615 -21.192 -18.349  0.00  0.00    -0.000 C 
ATOM     32  C   UNL     1      33.223 -21.181 -18.680  0.00  0.00    -0.000 C 
ATOM     33  C   UNL     1      34.348 -21.690 -18.039  0.00  0.00    -0.000 C 
ENDBRANCH  23  24
ENDBRANCH   1  23
TORSDOF 7
ENDMDL
MODEL 7
REMARK VINA RESULT:     -10.8      1.426      5.798
REMARK  Name = 9823454
REMARK  7 active torsions:
REMARK  status: ('A' for Active; 'I' for Inactive)
REMARK    1  A    between atoms: C_1  and  C_4
REMARK    2  A    between atoms: C_1  and  N_8
REMARK    3  A    between atoms: C_1  and  C_23
REMARK    4  A    between atoms: N_3  and  O_6
REMARK    5  A    between atoms: N_8  and  S_10
REMARK    6  A    between atoms: S_10  and  C_13
REMARK    7  A    between atoms: C_23  and  C_24
REMARK                            x       y       z     vdW  Elec       q    Type
REMARK                         _______ _______ _______ _____ _____    ______ ____
ROOT
ATOM      1  C   UNL     1      36.451 -22.595 -14.634  0.00  0.00    +0.158 C 
ENDROOT
BRANCH   1   4
ATOM      2  O   UNL     1      38.646 -23.093 -13.753  0.00  0.00    -0.272 OA
ATOM      3  N   UNL     1      37.535 -24.719 -14.958  0.00  0.00    -0.196 N 
ATOM      4  C   UNL     1      37.665 -23.476 -14.388  0.00  0.00    +0.260 C 
ATOM      5  H   UNL     1      36.729 -24.983 -15.458  0.00  0.00    +0.182 HD
BRANCH   3   6
ATOM      6  O   UNL     1      38.621 -25.588 -14.783  0.00  0.00    -0.295 OA
ATOM      7  H   UNL     1      39.421 -25.184 -15.153  0.00  0.00    +0.241 HD
ENDBRANCH   3   6
ENDBRANCH   1   4
BRANCH   1   8
ATOM      8  N   UNL     1      35.862 -22.346 -13.296  0.00  0.00    -0.172 NA
ATOM      9  H   UNL     1      36.637 -22.143 -12.666  0.00  0.00    +0.149 HD
BRANCH   8  10
ATOM     10  S   UNL     1      34.923 -23.548 -12.549  0.00  0.00    +0.061 S 
ATOM     11  O   UNL     1      34.883 -23.310 -11.119  0.00  0.00    -0.153 OA
ATOM     12  O   UNL     1      35.327 -24.843 -13.063  0.00  0.00    -0.153 OA
BRANCH  10  13
ATOM     13  C   UNL     1      33.316 -23.213 -13.202  0.00  0.00    +0.122 C 
ATOM     14  C   UNL     1      32.479 -24.271 -13.516  0.00  0.00    +0.020 C 
ATOM     15  C   UNL     1      31.199 -24.021 -14.036  0.00  0.00    +0.001 C 
ATOM     16  C   UNL     1      32.922 -21.902 -13.387  0.00  0.00    +0.020 C 
ATOM     17  C   UNL     1      30.780 -22.684 -14.232  0.00  0.00    +0.000 C 
ATOM     18  C   UNL     1      31.653 -21.636 -13.902  0.00  0.00    +0.001 C 
ATOM     19  C   UNL     1      30.326 -25.070 -14.367  0.00  0.00    +0.000 C 
ATOM     20  C   UNL     1      29.500 -22.434 -14.753  0.00  0.00    +0.000 C 
ATOM     21  C   UNL     1      29.057 -24.804 -14.883  0.00  0.00    +0.000 C 
ATOM     22  C   UNL     1      28.645 -23.489 -15.075  0.00  0.00    +0.000 C 
ENDBRANCH  10  13
ENDBRANCH   8  10
ENDBRANCH   1   8
BRANCH   1  23
ATOM     23  C   UNL     1      35.423 -23.302 -15.532  0.00  0.00    +0.053 C 
BRANCH  23  24
ATOM     24  C   UNL     1      34.921 -22.445 -16.645  0.00  0.00    -0.020 C 
ATOM     25  C   UNL     1      35.817 -21.703 -17.415  0.00  0.00    -0.004 C 
ATOM     26  C   UNL     1      35.359 -20.891 -18.465  0.00  0.00    -0.000 C 
ATOM     27  C   UNL     1      33.557 -22.386 -16.914  0.00  0.00    -0.004 C 
ATOM     28  C   UNL     1      33.972 -20.831 -18.739  0.00  0.00    -0.000 C 
ATOM     29  C   UNL     1      33.084 -21.585 -17.954  0.00  0.00    -0.000 C 
ATOM     30  C   UNL     1      36.248 -20.138 -19.249  0.00  0.00    -0.000 C 
ATOM     31  C   UNL     1      33.514 -20.020 -19.789  0.00  0.00    -0.000 C 
ATOM     32  C   UNL     1      35.775 -19.336 -20.289  0.00  0.00    -0.000 C 
ATOM     33  C   UNL     1      34.411 -19.277 -20.558  0.00  0.00    -0.000 C 
ENDBRANCH  23  24
ENDBRANCH   1  23
TORSDOF 7
ENDMDL
MODEL 8
REMARK VINA RESULT:     -10.7      3.153      6.065
REMARK  Name = 9823454
REMARK  7 active torsions:
REMARK  status: ('A' for Active; 'I' for Inactive)
REMARK    1  A    between atoms: C_1  and  C_4
REMARK    2  A    between atoms: C_1  and  N_8
REMARK    3  A    between atoms: C_1  and  C_23
REMARK    4  A    between atoms: N_3  and  O_6
REMARK    5  A    between atoms: N_8  and  S_10
REMARK    6  A    between atoms: S_10  and  C_13
REMARK    7  A    between atoms: C_23  and  C_24
REMARK                            x       y       z     vdW  Elec       q    Type
REMARK                         _______ _______ _______ _____ _____    ______ ____
ROOT
ATOM      1  C   UNL     1      33.685 -22.332 -14.976  0.00  0.00    +0.158 C 
ENDROOT
BRANCH   1   4
ATOM      2  O   UNL     1      33.267 -24.494 -13.980  0.00  0.00    -0.272 OA
ATOM      3  N   UNL     1      31.537 -23.414 -15.061  0.00  0.00    -0.196 N 
ATOM      4  C   UNL     1      32.828 -23.532 -14.607  0.00  0.00    +0.260 C 
ATOM      5  H   UNL     1      31.228 -22.623 -15.561  0.00  0.00    +0.182 HD
BRANCH   3   6
ATOM      6  O   UNL     1      30.685 -24.488 -14.769  0.00  0.00    -0.295 OA
ATOM      7  H   UNL     1      31.163 -25.144 -14.238  0.00  0.00    +0.241 HD
ENDBRANCH   3   6
ENDBRANCH   1   4
BRANCH   1   8
ATOM      8  N   UNL     1      34.402 -22.720 -16.214  0.00  0.00    -0.172 NA
ATOM      9  H   UNL     1      35.258 -22.167 -16.245  0.00  0.00    +0.149 HD
BRANCH   8  10
ATOM     10  S   UNL     1      33.644 -22.537 -17.723  0.00  0.00    +0.061 S 
ATOM     11  O   UNL     1      32.344 -21.920 -17.538  0.00  0.00    -0.153 OA
ATOM     12  O   UNL     1      33.764 -23.781 -18.459  0.00  0.00    -0.153 OA
BRANCH  10  13
ATOM     13  C   UNL     1      34.696 -21.362 -18.519  0.00  0.00    +0.122 C 
ATOM     14  C   UNL     1      34.187 -20.584 -19.545  0.00  0.00    +0.020 C 
ATOM     15  C   UNL     1      35.010 -19.646 -20.189  0.00  0.00    +0.001 C 
ATOM     16  C   UNL     1      36.008 -21.241 -18.104  0.00  0.00    +0.020 C 
ATOM     17  C   UNL     1      36.357 -19.510 -19.776  0.00  0.00    +0.000 C 
ATOM     18  C   UNL     1      36.840 -20.314 -18.733  0.00  0.00    +0.001 C 
ATOM     19  C   UNL     1      34.526 -18.842 -21.233  0.00  0.00    +0.000 C 
ATOM     20  C   UNL     1      37.181 -18.572 -20.421  0.00  0.00    +0.000 C 
ATOM     21  C   UNL     1      35.359 -17.915 -21.862  0.00  0.00    +0.000 C 
ATOM     22  C   UNL     1      36.683 -17.781 -21.456  0.00  0.00    +0.000 C 
ENDBRANCH  10  13
ENDBRANCH   8  10
ENDBRANCH   1   8
BRANCH   1  23
ATOM     23  C   UNL     1      34.698 -22.010 -13.865  0.00  0.00    +0.053 C 
BRANCH  23  24
ATOM     24  C   UNL     1      36.070 -22.522 -14.150  0.00  0.00    -0.020 C 
ATOM     25  C   UNL     1      36.538 -23.665 -13.500  0.00  0.00    -0.004 C 
ATOM     26  C   UNL     1      37.827 -24.159 -13.757  0.00  0.00    -0.000 C 
ATOM     27  C   UNL     1      36.883 -21.859 -15.064  0.00  0.00    -0.004 C 
ATOM     28  C   UNL     1      38.653 -23.484 -14.687  0.00  0.00    -0.000 C 
ATOM     29  C   UNL     1      38.167 -22.336 -15.332  0.00  0.00    -0.000 C 
ATOM     30  C   UNL     1      38.312 -25.307 -13.111  0.00  0.00    -0.000 C 
ATOM     31  C   UNL     1      39.943 -23.979 -14.944  0.00  0.00    -0.000 C 
ATOM     32  C   UNL     1      39.596 -25.785 -13.379  0.00  0.00    -0.000 C 
ATOM     33  C   UNL     1      40.409 -25.121 -14.293  0.00  0.00    -0.000 C 
ENDBRANCH  23  24
ENDBRANCH   1  23
TORSDOF 7
ENDMDL
MODEL 9
REMARK VINA RESULT:     -10.7      0.979      2.061
REMARK  Name = 9823454
REMARK  7 active torsions:
REMARK  status: ('A' for Active; 'I' for Inactive)
REMARK    1  A    between atoms: C_1  and  C_4
REMARK    2  A    between atoms: C_1  and  N_8
REMARK    3  A    between atoms: C_1  and  C_23
REMARK    4  A    between atoms: N_3  and  O_6
REMARK    5  A    between atoms: N_8  and  S_10
REMARK    6  A    between atoms: S_10  and  C_13
REMARK    7  A    between atoms: C_23  and  C_24
REMARK                            x       y       z     vdW  Elec       q    Type
REMARK                         _______ _______ _______ _____ _____    ______ ____
ROOT
ATOM      1  C   UNL     1      35.118 -23.880 -12.571  0.00  0.00    +0.158 C 
ENDROOT
BRANCH   1   4
ATOM      2  O   UNL     1      36.470 -24.913 -10.854  0.00  0.00    -0.272 OA
ATOM      3  N   UNL     1      36.825 -22.689 -11.363  0.00  0.00    -0.196 N 
ATOM      4  C   UNL     1      36.203 -23.905 -11.507  0.00  0.00    +0.260 C 
ATOM      5  H   UNL     1      36.578 -21.907 -11.909  0.00  0.00    +0.182 HD
BRANCH   3   6
ATOM      6  O   UNL     1      37.833 -22.628 -10.391  0.00  0.00    -0.295 OA
ATOM      7  H   UNL     1      37.602 -21.961  -9.727  0.00  0.00    +0.241 HD
ENDBRANCH   3   6
ENDBRANCH   1   4
BRANCH   1   8
ATOM      8  N   UNL     1      35.520 -22.819 -13.525  0.00  0.00    -0.172 NA
ATOM      9  H   UNL     1      34.715 -22.640 -14.124  0.00  0.00    +0.149 HD
BRANCH   8  10
ATOM     10  S   UNL     1      36.850 -23.066 -14.552  0.00  0.00    +0.061 S 
ATOM     11  O   UNL     1      36.949 -24.475 -14.885  0.00  0.00    -0.153 OA
ATOM     12  O   UNL     1      37.997 -22.363 -14.008  0.00  0.00    -0.153 OA
BRANCH  10  13
ATOM     13  C   UNL     1      36.354 -22.195 -16.007  0.00  0.00    +0.122 C 
ATOM     14  C   UNL     1      35.027 -22.238 -16.401  0.00  0.00    +0.020 C 
ATOM     15  C   UNL     1      34.617 -21.552 -17.556  0.00  0.00    +0.001 C 
ATOM     16  C   UNL     1      37.298 -21.488 -16.725  0.00  0.00    +0.020 C 
ATOM     17  C   UNL     1      35.572 -20.822 -18.303  0.00  0.00    +0.000 C 
ATOM     18  C   UNL     1      36.908 -20.800 -17.875  0.00  0.00    +0.001 C 
ATOM     19  C   UNL     1      33.279 -21.575 -17.985  0.00  0.00    +0.000 C 
ATOM     20  C   UNL     1      35.161 -20.137 -19.459  0.00  0.00    +0.000 C 
ATOM     21  C   UNL     1      32.889 -20.887 -19.135  0.00  0.00    +0.000 C 
ATOM     22  C   UNL     1      33.828 -20.170 -19.869  0.00  0.00    +0.000 C 
ENDBRANCH  10  13
ENDBRANCH   8  10
ENDBRANCH   1   8
BRANCH   1  23
ATOM     23  C   UNL     1      33.748 -23.540 -11.961  0.00  0.00    +0.053 C 
BRANCH  23  24
ATOM     24  C   UNL     1      32.693 -23.281 -12.983  0.00  0.00    -0.020 C 
ATOM     25  C   UNL     1      31.782 -24.283 -13.316  0.00  0.00    -0.004 C 
ATOM     26  C   UNL     1      30.783 -24.054 -14.276  0.00  0.00    -0.000 C 
ATOM     27  C   UNL     1      32.618 -22.037 -13.603  0.00  0.00    -0.004 C 
ATOM     28  C   UNL     1      30.707 -22.789 -14.907  0.00  0.00    -0.000 C 
ATOM     29  C   UNL     1      31.632 -21.792 -14.559  0.00  0.00    -0.000 C 
ATOM     30  C   UNL     1      29.859 -25.053 -14.624  0.00  0.00    -0.000 C 
ATOM     31  C   UNL     1      29.708 -22.560 -15.867  0.00  0.00    -0.000 C 
ATOM     32  C   UNL     1      28.872 -24.807 -15.580  0.00  0.00    -0.000 C 
ATOM     33  C   UNL     1      28.798 -23.564 -16.201  0.00  0.00    -0.000 C 
ENDBRANCH  23  24
ENDBRANCH   1  23
TORSDOF 7
ENDMDL
