MODEL 1
REMARK VINA RESULT:     -11.8      0.000      0.000
REMARK  Name = 46861612
REMARK  7 active torsions:
REMARK  status: ('A' for Active; 'I' for Inactive)
REMARK    1  A    between atoms: C_1  and  N_2
REMARK    2  A    between atoms: C_1  and  C_17
REMARK    3  A    between atoms: N_3  and  C_11
REMARK    4  A    between atoms: C_17  and  C_18
REMARK    5  A    between atoms: C_18  and  C_19
REMARK    6  A    between atoms: C_19  and  O_20
REMARK    7  A    between atoms: O_20  and  C_24
REMARK                            x       y       z     vdW  Elec       q    Type
REMARK                         _______ _______ _______ _____ _____    ______ ____
ROOT
ATOM      1  C   UNL     1      35.703 -21.003 -18.640  0.00  0.00    -0.077 C 
ENDROOT
BRANCH   1   2
ATOM      2  N   UNL     1      35.692 -20.167 -19.840  0.00  0.00    +0.389 N 
ATOM      3  N   UNL     1      35.314 -17.768 -21.343  0.00  0.00    -0.311 N 
ATOM      4  C   UNL     1      34.340 -19.661 -20.103  0.00  0.00    -0.055 C 
ATOM      5  C   UNL     1      36.625 -19.044 -19.693  0.00  0.00    -0.055 C 
ATOM      6  C   UNL     1      36.666 -18.192 -20.964  0.00  0.00    +0.068 C 
ATOM      7  C   UNL     1      34.303 -18.832 -21.388  0.00  0.00    +0.068 C 
ATOM      8  H   UNL     1      35.989 -20.741 -20.629  0.00  0.00    -0.080 HD
BRANCH   3  11
ATOM      9 CL   UNL     1      35.039 -15.125 -19.956  0.00  0.00    -0.080 Cl
ATOM     10 CL   UNL     1      34.652 -12.667 -21.985  0.00  0.00    -0.081 Cl
ATOM     11  C   UNL     1      35.145 -16.663 -22.185  0.00  0.00    +0.059 C 
ATOM     12  C   UNL     1      35.002 -15.371 -21.675  0.00  0.00    +0.081 C 
ATOM     13  C   UNL     1      35.118 -16.876 -23.562  0.00  0.00    +0.015 C 
ATOM     14  C   UNL     1      34.834 -14.294 -22.545  0.00  0.00    +0.069 C 
ATOM     15  C   UNL     1      34.951 -15.799 -24.432  0.00  0.00    +0.002 C 
ATOM     16  C   UNL     1      34.808 -14.508 -23.923  0.00  0.00    +0.012 C 
ENDBRANCH   3  11
ENDBRANCH   1   2
BRANCH   1  17
ATOM     17  C   UNL     1      34.588 -22.044 -18.707  0.00  0.00    -0.019 C 
BRANCH  17  18
ATOM     18  C   UNL     1      33.415 -21.657 -17.808  0.00  0.00    +0.045 C 
BRANCH  18  19
ATOM     19  C   UNL     1      33.329 -22.554 -16.580  0.00  0.00    +0.205 C 
BRANCH  19  20
ATOM     20  O   UNL     1      34.517 -23.325 -16.462  0.00  0.00    -0.475 OA
BRANCH  20  24
ATOM     21  O   UNL     1      37.540 -22.515 -11.909  0.00  0.00    -0.464 OA
ATOM     22  O   UNL     1      35.548 -24.326  -9.498  0.00  0.00    -0.271 OA
ATOM     23  N   UNL     1      35.159 -24.033 -11.745  0.00  0.00    -0.278 N 
ATOM     24  C   UNL     1      35.262 -23.143 -15.325  0.00  0.00    +0.140 C 
ATOM     25  C   UNL     1      34.836 -23.695 -14.117  0.00  0.00    +0.055 C 
ATOM     26  C   UNL     1      35.602 -23.512 -12.965  0.00  0.00    +0.088 C 
ATOM     27  C   UNL     1      36.442 -22.401 -15.378  0.00  0.00    +0.040 C 
ATOM     28  C   UNL     1      36.783 -22.774 -13.016  0.00  0.00    +0.153 C 
ATOM     29  C   UNL     1      37.200 -22.210 -14.222  0.00  0.00    +0.041 C 
ATOM     30  C   UNL     1      37.328 -23.415 -10.838  0.00  0.00    +0.290 C 
ATOM     31  C   UNL     1      35.923 -23.944 -10.605  0.00  0.00    +0.271 C 
ATOM     32  H   UNL     1      34.281 -24.474 -11.702  0.00  0.00    +0.155 HD
ENDBRANCH  20  24
ENDBRANCH  19  20
ENDBRANCH  18  19
ENDBRANCH  17  18
ENDBRANCH   1  17
TORSDOF 7
ENDMDL
MODEL 2
REMARK VINA RESULT:     -11.6      2.397      4.120
REMARK  Name = 46861612
REMARK  7 active torsions:
REMARK  status: ('A' for Active; 'I' for Inactive)
REMARK    1  A    between atoms: C_1  and  N_2
REMARK    2  A    between atoms: C_1  and  C_17
REMARK    3  A    between atoms: N_3  and  C_11
REMARK    4  A    between atoms: C_17  and  C_18
REMARK    5  A    between atoms: C_18  and  C_19
REMARK    6  A    between atoms: C_19  and  O_20
REMARK    7  A    between atoms: O_20  and  C_24
REMARK                            x       y       z     vdW  Elec       q    Type
REMARK                         _______ _______ _______ _____ _____    ______ ____
ROOT
ATOM      1  C   UNL     1      35.934 -21.176 -18.483  0.00  0.00    -0.077 C 
ENDROOT
BRANCH   1   2
ATOM      2  N   UNL     1      35.863 -20.334 -19.677  0.00  0.00    +0.389 N 
ATOM      3  N   UNL     1      35.425 -17.926 -21.147  0.00  0.00    -0.311 N 
ATOM      4  C   UNL     1      34.503 -19.815 -19.863  0.00  0.00    -0.055 C 
ATOM      5  C   UNL     1      36.814 -19.221 -19.578  0.00  0.00    -0.055 C 
ATOM      6  C   UNL     1      36.791 -18.364 -20.847  0.00  0.00    +0.068 C 
ATOM      7  C   UNL     1      34.403 -18.980 -21.140  0.00  0.00    +0.068 C 
ATOM      8  H   UNL     1      36.110 -20.908 -20.484  0.00  0.00    -0.080 HD
BRANCH   3  11
ATOM      9 CL   UNL     1      35.084 -15.310 -19.726  0.00  0.00    -0.080 Cl
ATOM     10 CL   UNL     1      34.615 -12.838 -21.721  0.00  0.00    -0.081 Cl
ATOM     11  C   UNL     1      35.218 -16.815 -21.974  0.00  0.00    +0.059 C 
ATOM     12  C   UNL     1      35.043 -15.535 -21.448  0.00  0.00    +0.081 C 
ATOM     13  C   UNL     1      35.189 -17.012 -23.354  0.00  0.00    +0.015 C 
ATOM     14  C   UNL     1      34.839 -14.452 -22.303  0.00  0.00    +0.069 C 
ATOM     15  C   UNL     1      34.986 -15.929 -24.209  0.00  0.00    +0.002 C 
ATOM     16  C   UNL     1      34.810 -14.649 -23.683  0.00  0.00    +0.012 C 
ENDBRANCH   3  11
ENDBRANCH   1   2
BRANCH   1  17
ATOM     17  C   UNL     1      37.012 -20.661 -17.532  0.00  0.00    -0.019 C 
BRANCH  17  18
ATOM     18  C   UNL     1      37.225 -21.622 -16.364  0.00  0.00    +0.045 C 
BRANCH  18  19
ATOM     19  C   UNL     1      35.984 -21.726 -15.488  0.00  0.00    +0.205 C 
BRANCH  19  20
ATOM     20  O   UNL     1      35.383 -23.003 -15.655  0.00  0.00    -0.475 OA
BRANCH  20  24
ATOM     21  O   UNL     1      30.146 -23.504 -13.965  0.00  0.00    -0.464 OA
ATOM     22  O   UNL     1      28.450 -21.769 -16.644  0.00  0.00    -0.271 OA
ATOM     23  N   UNL     1      30.704 -22.133 -16.376  0.00  0.00    -0.278 N 
ATOM     24  C   UNL     1      34.077 -23.129 -15.256  0.00  0.00    +0.140 C 
ATOM     25  C   UNL     1      33.055 -22.578 -16.030  0.00  0.00    +0.055 C 
ATOM     26  C   UNL     1      31.728 -22.716 -15.621  0.00  0.00    +0.088 C 
ATOM     27  C   UNL     1      33.773 -23.802 -14.072  0.00  0.00    +0.040 C 
ATOM     28  C   UNL     1      31.421 -23.391 -14.441  0.00  0.00    +0.153 C 
ATOM     29  C   UNL     1      32.445 -23.928 -13.660  0.00  0.00    +0.041 C 
ATOM     30  C   UNL     1      29.143 -23.330 -14.948  0.00  0.00    +0.290 C 
ATOM     31  C   UNL     1      29.379 -22.314 -16.052  0.00  0.00    +0.271 C 
ATOM     32  H   UNL     1      30.937 -21.582 -17.157  0.00  0.00    +0.155 HD
ENDBRANCH  20  24
ENDBRANCH  19  20
ENDBRANCH  18  19
ENDBRANCH  17  18
ENDBRANCH   1  17
TORSDOF 7
ENDMDL
MODEL 3
REMARK VINA RESULT:     -11.5      3.178      5.638
REMARK  Name = 46861612
REMARK  7 active torsions:
REMARK  status: ('A' for Active; 'I' for Inactive)
REMARK    1  A    between atoms: C_1  and  N_2
REMARK    2  A    between atoms: C_1  and  C_17
REMARK    3  A    between atoms: N_3  and  C_11
REMARK    4  A    between atoms: C_17  and  C_18
REMARK    5  A    between atoms: C_18  and  C_19
REMARK    6  A    between atoms: C_19  and  O_20
REMARK    7  A    between atoms: O_20  and  C_24
REMARK                            x       y       z     vdW  Elec       q    Type
REMARK                         _______ _______ _______ _____ _____    ______ ____
ROOT
ATOM      1  C   UNL     1      35.147 -16.443 -23.841  0.00  0.00    -0.077 C 
ENDROOT
BRANCH   1   2
ATOM      2  N   UNL     1      34.952 -15.030 -23.521  0.00  0.00    +0.389 N 
ATOM      3  N   UNL     1      33.610 -12.770 -22.405  0.00  0.00    -0.311 N 
ATOM      4  C   UNL     1      33.711 -14.531 -24.125  0.00  0.00    -0.055 C 
ATOM      5  C   UNL     1      34.915 -14.831 -22.068  0.00  0.00    -0.055 C 
ATOM      6  C   UNL     1      34.769 -13.348 -21.718  0.00  0.00    +0.068 C 
ATOM      7  C   UNL     1      33.525 -13.038 -23.846  0.00  0.00    +0.068 C 
ATOM      8  H   UNL     1      35.739 -14.506 -23.906  0.00  0.00    -0.080 HD
BRANCH   3  11
ATOM      9 CL   UNL     1      32.093 -13.037 -19.834  0.00  0.00    -0.080 Cl
ATOM     10 CL   UNL     1      30.819 -10.269 -18.824  0.00  0.00    -0.081 Cl
ATOM     11  C   UNL     1      33.035 -11.589 -21.921  0.00  0.00    +0.059 C 
ATOM     12  C   UNL     1      32.300 -11.567 -20.735  0.00  0.00    +0.081 C 
ATOM     13  C   UNL     1      33.210 -10.416 -22.655  0.00  0.00    +0.015 C 
ATOM     14  C   UNL     1      31.741 -10.371 -20.284  0.00  0.00    +0.069 C 
ATOM     15  C   UNL     1      32.652  -9.221 -22.203  0.00  0.00    +0.002 C 
ATOM     16  C   UNL     1      31.916  -9.198 -21.018  0.00  0.00    +0.012 C 
ENDBRANCH   3  11
ENDBRANCH   1   2
BRANCH   1  17
ATOM     17  C   UNL     1      35.549 -17.221 -22.590  0.00  0.00    -0.019 C 
BRANCH  17  18
ATOM     18  C   UNL     1      34.889 -18.598 -22.558  0.00  0.00    +0.045 C 
BRANCH  18  19
ATOM     19  C   UNL     1      34.560 -19.031 -21.135  0.00  0.00    +0.205 C 
BRANCH  19  20
ATOM     20  O   UNL     1      35.724 -19.556 -20.511  0.00  0.00    -0.475 OA
BRANCH  20  24
ATOM     21  O   UNL     1      34.899 -22.705 -16.047  0.00  0.00    -0.464 OA
ATOM     22  O   UNL     1      38.165 -22.494 -14.513  0.00  0.00    -0.271 OA
ATOM     23  N   UNL     1      37.434 -21.522 -16.464  0.00  0.00    -0.278 N 
ATOM     24  C   UNL     1      35.533 -20.325 -19.392  0.00  0.00    +0.140 C 
ATOM     25  C   UNL     1      36.580 -20.518 -18.491  0.00  0.00    +0.055 C 
ATOM     26  C   UNL     1      36.376 -21.296 -17.351  0.00  0.00    +0.088 C 
ATOM     27  C   UNL     1      34.292 -20.919 -19.160  0.00  0.00    +0.040 C 
ATOM     28  C   UNL     1      35.136 -21.887 -17.115  0.00  0.00    +0.153 C 
ATOM     29  C   UNL     1      34.094 -21.706 -18.025  0.00  0.00    +0.041 C 
ATOM     30  C   UNL     1      35.802 -22.531 -14.971  0.00  0.00    +0.290 C 
ATOM     31  C   UNL     1      37.254 -22.214 -15.289  0.00  0.00    +0.271 C 
ATOM     32  H   UNL     1      38.328 -21.176 -16.685  0.00  0.00    +0.155 HD
ENDBRANCH  20  24
ENDBRANCH  19  20
ENDBRANCH  18  19
ENDBRANCH  17  18
ENDBRANCH   1  17
TORSDOF 7
ENDMDL
MODEL 4
REMARK VINA RESULT:     -11.4      3.280      6.005
REMARK  Name = 46861612
REMARK  7 active torsions:
REMARK  status: ('A' for Active; 'I' for Inactive)
REMARK    1  A    between atoms: C_1  and  N_2
REMARK    2  A    between atoms: C_1  and  C_17
REMARK    3  A    between atoms: N_3  and  C_11
REMARK    4  A    between atoms: C_17  and  C_18
REMARK    5  A    between atoms: C_18  and  C_19
REMARK    6  A    between atoms: C_19  and  O_20
REMARK    7  A    between atoms: O_20  and  C_24
REMARK                            x       y       z     vdW  Elec       q    Type
REMARK                         _______ _______ _______ _____ _____    ______ ____
ROOT
ATOM      1  C   UNL     1      34.967 -16.306 -24.084  0.00  0.00    -0.077 C 
ENDROOT
BRANCH   1   2
ATOM      2  N   UNL     1      34.797 -14.893 -23.747  0.00  0.00    +0.389 N 
ATOM      3  N   UNL     1      33.540 -12.634 -22.532  0.00  0.00    -0.311 N 
ATOM      4  C   UNL     1      33.516 -14.391 -24.260  0.00  0.00    -0.055 C 
ATOM      5  C   UNL     1      34.864 -14.698 -22.294  0.00  0.00    -0.055 C 
ATOM      6  C   UNL     1      34.744 -13.216 -21.932  0.00  0.00    +0.068 C 
ATOM      7  C   UNL     1      33.352 -12.899 -23.965  0.00  0.00    +0.068 C 
ATOM      8  H   UNL     1      35.555 -14.369 -24.185  0.00  0.00    -0.080 HD
BRANCH   3  11
ATOM      9 CL   UNL     1      32.013 -12.946 -19.973  0.00  0.00    -0.080 Cl
ATOM     10 CL   UNL     1      30.826 -10.178 -18.863  0.00  0.00    -0.081 Cl
ATOM     11  C   UNL     1      33.002 -11.454 -22.006  0.00  0.00    +0.059 C 
ATOM     12  C   UNL     1      32.267 -11.452 -20.820  0.00  0.00    +0.081 C 
ATOM     13  C   UNL     1      33.215 -10.262 -22.697  0.00  0.00    +0.015 C 
ATOM     14  C   UNL     1      31.746 -10.255 -20.326  0.00  0.00    +0.069 C 
ATOM     15  C   UNL     1      32.695  -9.066 -22.203  0.00  0.00    +0.002 C 
ATOM     16  C   UNL     1      31.959  -9.063 -21.017  0.00  0.00    +0.012 C 
ENDBRANCH   3  11
ENDBRANCH   1   2
BRANCH   1  17
ATOM     17  C   UNL     1      35.442 -17.090 -22.862  0.00  0.00    -0.019 C 
BRANCH  17  18
ATOM     18  C   UNL     1      34.957 -18.537 -22.910  0.00  0.00    +0.045 C 
BRANCH  18  19
ATOM     19  C   UNL     1      34.584 -19.052 -21.527  0.00  0.00    +0.205 C 
BRANCH  19  20
ATOM     20  O   UNL     1      35.755 -19.459 -20.833  0.00  0.00    -0.475 OA
BRANCH  20  24
ATOM     21  O   UNL     1      35.082 -22.310 -16.148  0.00  0.00    -0.464 OA
ATOM     22  O   UNL     1      31.499 -22.779 -16.204  0.00  0.00    -0.271 OA
ATOM     23  N   UNL     1      32.824 -21.688 -17.733  0.00  0.00    -0.278 N 
ATOM     24  C   UNL     1      35.572 -20.177 -19.679  0.00  0.00    +0.140 C 
ATOM     25  C   UNL     1      34.291 -20.579 -19.304  0.00  0.00    +0.055 C 
ATOM     26  C   UNL     1      34.112 -21.316 -18.132  0.00  0.00    +0.088 C 
ATOM     27  C   UNL     1      36.669 -20.500 -18.879  0.00  0.00    +0.040 C 
ATOM     28  C   UNL     1      35.206 -21.642 -17.333  0.00  0.00    +0.153 C 
ATOM     29  C   UNL     1      36.486 -21.227 -17.702  0.00  0.00    +0.041 C 
ATOM     30  C   UNL     1      33.883 -23.052 -16.023  0.00  0.00    +0.290 C 
ATOM     31  C   UNL     1      32.613 -22.482 -16.630  0.00  0.00    +0.271 C 
ATOM     32  H   UNL     1      32.051 -21.376 -18.256  0.00  0.00    +0.155 HD
ENDBRANCH  20  24
ENDBRANCH  19  20
ENDBRANCH  18  19
ENDBRANCH  17  18
ENDBRANCH   1  17
TORSDOF 7
ENDMDL
MODEL 5
REMARK VINA RESULT:     -11.3      6.743     12.035
REMARK  Name = 46861612
REMARK  7 active torsions:
REMARK  status: ('A' for Active; 'I' for Inactive)
REMARK    1  A    between atoms: C_1  and  N_2
REMARK    2  A    between atoms: C_1  and  C_17
REMARK    3  A    between atoms: N_3  and  C_11
REMARK    4  A    between atoms: C_17  and  C_18
REMARK    5  A    between atoms: C_18  and  C_19
REMARK    6  A    between atoms: C_19  and  O_20
REMARK    7  A    between atoms: O_20  and  C_24
REMARK                            x       y       z     vdW  Elec       q    Type
REMARK                         _______ _______ _______ _____ _____    ______ ____
ROOT
ATOM      1  C   UNL     1      34.751 -15.376 -23.799  0.00  0.00    -0.077 C 
ENDROOT
BRANCH   1   2
ATOM      2  N   UNL     1      35.317 -16.440 -22.971  0.00  0.00    +0.389 N 
ATOM      3  N   UNL     1      35.299 -18.468 -20.960  0.00  0.00    -0.311 N 
ATOM      4  C   UNL     1      35.253 -16.076 -21.550  0.00  0.00    -0.055 C 
ATOM      5  C   UNL     1      34.602 -17.702 -23.195  0.00  0.00    -0.055 C 
ATOM      6  C   UNL     1      35.221 -18.838 -22.377  0.00  0.00    +0.068 C 
ATOM      7  C   UNL     1      35.895 -17.156 -20.677  0.00  0.00    +0.068 C 
ATOM      8  H   UNL     1      36.294 -16.562 -23.236  0.00  0.00    -0.080 HD
BRANCH   3  11
ATOM      9 CL   UNL     1      32.718 -19.693 -20.055  0.00  0.00    -0.080 Cl
ATOM     10 CL   UNL     1      33.112 -21.968 -17.825  0.00  0.00    -0.081 Cl
ATOM     11  C   UNL     1      35.417 -19.468 -19.988  0.00  0.00    +0.059 C 
ATOM     12  C   UNL     1      34.297 -20.123 -19.475  0.00  0.00    +0.081 C 
ATOM     13  C   UNL     1      36.692 -19.803 -19.532  0.00  0.00    +0.015 C 
ATOM     14  C   UNL     1      34.454 -21.115 -18.505  0.00  0.00    +0.069 C 
ATOM     15  C   UNL     1      36.848 -20.794 -18.564  0.00  0.00    +0.002 C 
ATOM     16  C   UNL     1      35.729 -21.450 -18.050  0.00  0.00    +0.012 C 
ENDBRANCH   3  11
ENDBRANCH   1   2
BRANCH   1  17
ATOM     17  C   UNL     1      34.837 -14.034 -23.074  0.00  0.00    -0.019 C 
BRANCH  17  18
ATOM     18  C   UNL     1      33.457 -13.397 -22.922  0.00  0.00    +0.045 C 
BRANCH  18  19
ATOM     19  C   UNL     1      33.183 -12.986 -21.482  0.00  0.00    +0.205 C 
BRANCH  19  20
ATOM     20  O   UNL     1      32.002 -12.197 -21.423  0.00  0.00    -0.475 OA
BRANCH  20  24
ATOM     21  O   UNL     1      32.349  -7.505 -18.527  0.00  0.00    -0.464 OA
ATOM     22  O   UNL     1      32.638  -5.118 -21.225  0.00  0.00    -0.271 OA
ATOM     23  N   UNL     1      32.439  -7.405 -21.352  0.00  0.00    -0.278 N 
ATOM     24  C   UNL     1      32.078 -11.023 -20.719  0.00  0.00    +0.140 C 
ATOM     25  C   UNL     1      32.205  -9.811 -21.398  0.00  0.00    +0.055 C 
ATOM     26  C   UNL     1      32.274  -8.618 -20.676  0.00  0.00    +0.088 C 
ATOM     27  C   UNL     1      32.033 -11.042 -19.325  0.00  0.00    +0.040 C 
ATOM     28  C   UNL     1      32.226  -8.635 -19.284  0.00  0.00    +0.153 C 
ATOM     29  C   UNL     1      32.114  -9.850 -18.606  0.00  0.00    +0.041 C 
ATOM     30  C   UNL     1      32.046  -6.308 -19.219  0.00  0.00    +0.290 C 
ATOM     31  C   UNL     1      32.431  -6.202 -20.685  0.00  0.00    +0.271 C 
ATOM     32  H   UNL     1      32.563  -7.412 -22.328  0.00  0.00    +0.155 HD
ENDBRANCH  20  24
ENDBRANCH  19  20
ENDBRANCH  18  19
ENDBRANCH  17  18
ENDBRANCH   1  17
TORSDOF 7
ENDMDL
MODEL 6
REMARK VINA RESULT:     -11.3      2.369      2.978
REMARK  Name = 46861612
REMARK  7 active torsions:
REMARK  status: ('A' for Active; 'I' for Inactive)
REMARK    1  A    between atoms: C_1  and  N_2
REMARK    2  A    between atoms: C_1  and  C_17
REMARK    3  A    between atoms: N_3  and  C_11
REMARK    4  A    between atoms: C_17  and  C_18
REMARK    5  A    between atoms: C_18  and  C_19
REMARK    6  A    between atoms: C_19  and  O_20
REMARK    7  A    between atoms: O_20  and  C_24
REMARK                            x       y       z     vdW  Elec       q    Type
REMARK                         _______ _______ _______ _____ _____    ______ ____
ROOT
ATOM      1  C   UNL     1      35.088 -21.904 -18.095  0.00  0.00    -0.077 C 
ENDROOT
BRANCH   1   2
ATOM      2  N   UNL     1      35.145 -20.951 -19.202  0.00  0.00    +0.389 N 
ATOM      3  N   UNL     1      35.120 -18.371 -20.427  0.00  0.00    -0.311 N 
ATOM      4  C   UNL     1      33.899 -20.181 -19.285  0.00  0.00    -0.055 C 
ATOM      5  C   UNL     1      36.285 -20.041 -19.040  0.00  0.00    -0.055 C 
ATOM      6  C   UNL     1      36.390 -19.075 -20.222  0.00  0.00    +0.068 C 
ATOM      7  C   UNL     1      33.923 -19.221 -20.476  0.00  0.00    +0.068 C 
ATOM      8  H   UNL     1      35.265 -21.478 -20.068  0.00  0.00    -0.080 HD
BRANCH   3  11
ATOM      9 CL   UNL     1      35.036 -18.642 -23.410  0.00  0.00    -0.080 Cl
ATOM     10 CL   UNL     1      34.997 -15.818 -24.935  0.00  0.00    -0.081 Cl
ATOM     11  C   UNL     1      35.101 -17.167 -21.139  0.00  0.00    +0.059 C 
ATOM     12  C   UNL     1      35.063 -17.143 -22.534  0.00  0.00    +0.081 C 
ATOM     13  C   UNL     1      35.122 -15.971 -20.421  0.00  0.00    +0.015 C 
ATOM     14  C   UNL     1      35.045 -15.923 -23.209  0.00  0.00    +0.069 C 
ATOM     15  C   UNL     1      35.104 -14.751 -21.097  0.00  0.00    +0.002 C 
ATOM     16  C   UNL     1      35.066 -14.727 -22.491  0.00  0.00    +0.012 C 
ENDBRANCH   3  11
ENDBRANCH   1   2
BRANCH   1  17
ATOM     17  C   UNL     1      33.678 -21.958 -17.511  0.00  0.00    -0.019 C 
BRANCH  17  18
ATOM     18  C   UNL     1      33.532 -23.110 -16.520  0.00  0.00    +0.045 C 
BRANCH  18  19
ATOM     19  C   UNL     1      33.821 -22.664 -15.092  0.00  0.00    +0.205 C 
BRANCH  19  20
ATOM     20  O   UNL     1      34.193 -23.786 -14.303  0.00  0.00    -0.475 OA
BRANCH  20  24
ATOM     21  O   UNL     1      39.339 -23.868 -12.294  0.00  0.00    -0.464 OA
ATOM     22  O   UNL     1      40.983 -25.828 -14.847  0.00  0.00    -0.271 OA
ATOM     23  N   UNL     1      38.774 -25.202 -14.723  0.00  0.00    -0.278 N 
ATOM     24  C   UNL     1      35.478 -23.806 -13.824  0.00  0.00    +0.140 C 
ATOM     25  C   UNL     1      36.474 -24.482 -14.529  0.00  0.00    +0.055 C 
ATOM     26  C   UNL     1      37.781 -24.493 -14.039  0.00  0.00    +0.088 C 
ATOM     27  C   UNL     1      35.786 -23.155 -12.630  0.00  0.00    +0.040 C 
ATOM     28  C   UNL     1      38.091 -23.840 -12.848  0.00  0.00    +0.153 C 
ATOM     29  C   UNL     1      37.091 -23.177 -12.136  0.00  0.00    +0.041 C 
ATOM     30  C   UNL     1      40.374 -24.172 -13.210  0.00  0.00    +0.290 C 
ATOM     31  C   UNL     1      40.089 -25.171 -14.319  0.00  0.00    +0.271 C 
ATOM     32  H   UNL     1      38.527 -25.734 -15.513  0.00  0.00    +0.155 HD
ENDBRANCH  20  24
ENDBRANCH  19  20
ENDBRANCH  18  19
ENDBRANCH  17  18
ENDBRANCH   1  17
TORSDOF 7
ENDMDL
MODEL 7
REMARK VINA RESULT:     -11.1      2.959      4.696
REMARK  Name = 46861612
REMARK  7 active torsions:
REMARK  status: ('A' for Active; 'I' for Inactive)
REMARK    1  A    between atoms: C_1  and  N_2
REMARK    2  A    between atoms: C_1  and  C_17
REMARK    3  A    between atoms: N_3  and  C_11
REMARK    4  A    between atoms: C_17  and  C_18
REMARK    5  A    between atoms: C_18  and  C_19
REMARK    6  A    between atoms: C_19  and  O_20
REMARK    7  A    between atoms: O_20  and  C_24
REMARK                            x       y       z     vdW  Elec       q    Type
REMARK                         _______ _______ _______ _____ _____    ______ ____
ROOT
ATOM      1  C   UNL     1      36.137 -18.279 -21.255  0.00  0.00    -0.077 C 
ENDROOT
BRANCH   1   2
ATOM      2  N   UNL     1      35.950 -16.833 -21.358  0.00  0.00    +0.389 N 
ATOM      3  N   UNL     1      34.462 -14.403 -21.558  0.00  0.00    -0.311 N 
ATOM      4  C   UNL     1      35.251 -16.491 -22.603  0.00  0.00    -0.055 C 
ATOM      5  C   UNL     1      35.195 -16.328 -20.206  0.00  0.00    -0.055 C 
ATOM      6  C   UNL     1      35.041 -14.806 -20.273  0.00  0.00    +0.068 C 
ATOM      7  C   UNL     1      35.101 -14.975 -22.750  0.00  0.00    +0.068 C 
ATOM      8  H   UNL     1      36.872 -16.394 -21.366  0.00  0.00    -0.080 HD
BRANCH   3  11
ATOM      9 CL   UNL     1      32.324 -13.826 -19.540  0.00  0.00    -0.080 Cl
ATOM     10 CL   UNL     1      30.976 -10.936 -19.917  0.00  0.00    -0.081 Cl
ATOM     11  C   UNL     1      33.844 -13.153 -21.679  0.00  0.00    +0.059 C 
ATOM     12  C   UNL     1      32.831 -12.752 -20.808  0.00  0.00    +0.081 C 
ATOM     13  C   UNL     1      34.262 -12.303 -22.702  0.00  0.00    +0.015 C 
ATOM     14  C   UNL     1      32.236 -11.499 -20.960  0.00  0.00    +0.069 C 
ATOM     15  C   UNL     1      33.668 -11.050 -22.853  0.00  0.00    +0.002 C 
ATOM     16  C   UNL     1      32.655 -10.648 -21.983  0.00  0.00    +0.012 C 
ENDBRANCH   3  11
ENDBRANCH   1   2
BRANCH   1  17
ATOM     17  C   UNL     1      35.099 -18.884 -20.311  0.00  0.00    -0.019 C 
BRANCH  17  18
ATOM     18  C   UNL     1      35.620 -20.164 -19.662  0.00  0.00    +0.045 C 
BRANCH  18  19
ATOM     19  C   UNL     1      34.496 -20.967 -19.021  0.00  0.00    +0.205 C 
BRANCH  19  20
ATOM     20  O   UNL     1      35.025 -21.810 -18.006  0.00  0.00    -0.475 OA
BRANCH  20  24
ATOM     21  O   UNL     1      31.659 -23.188 -13.847  0.00  0.00    -0.464 OA
ATOM     22  O   UNL     1      28.455 -22.516 -15.378  0.00  0.00    -0.271 OA
ATOM     23  N   UNL     1      30.555 -22.263 -16.280  0.00  0.00    -0.278 N 
ATOM     24  C   UNL     1      34.176 -22.159 -16.988  0.00  0.00    +0.140 C 
ATOM     25  C   UNL     1      32.796 -22.046 -17.161  0.00  0.00    +0.055 C 
ATOM     26  C   UNL     1      31.937 -22.409 -16.123  0.00  0.00    +0.088 C 
ATOM     27  C   UNL     1      34.693 -22.621 -15.777  0.00  0.00    +0.040 C 
ATOM     28  C   UNL     1      32.451 -22.875 -14.914  0.00  0.00    +0.153 C 
ATOM     29  C   UNL     1      33.832 -22.972 -14.737  0.00  0.00    +0.041 C 
ATOM     30  C   UNL     1      30.315 -23.472 -14.185  0.00  0.00    +0.290 C 
ATOM     31  C   UNL     1      29.671 -22.684 -15.314  0.00  0.00    +0.271 C 
ATOM     32  H   UNL     1      30.206 -21.849 -17.102  0.00  0.00    +0.155 HD
ENDBRANCH  20  24
ENDBRANCH  19  20
ENDBRANCH  18  19
ENDBRANCH  17  18
ENDBRANCH   1  17
TORSDOF 7
ENDMDL
MODEL 8
REMARK VINA RESULT:     -10.9      3.629      6.451
REMARK  Name = 46861612
REMARK  7 active torsions:
REMARK  status: ('A' for Active; 'I' for Inactive)
REMARK    1  A    between atoms: C_1  and  N_2
REMARK    2  A    between atoms: C_1  and  C_17
REMARK    3  A    between atoms: N_3  and  C_11
REMARK    4  A    between atoms: C_17  and  C_18
REMARK    5  A    between atoms: C_18  and  C_19
REMARK    6  A    between atoms: C_19  and  O_20
REMARK    7  A    between atoms: O_20  and  C_24
REMARK                            x       y       z     vdW  Elec       q    Type
REMARK                         _______ _______ _______ _____ _____    ______ ____
ROOT
ATOM      1  C   UNL     1      34.953 -16.134 -24.365  0.00  0.00    -0.077 C 
ENDROOT
BRANCH   1   2
ATOM      2  N   UNL     1      34.194 -14.982 -23.881  0.00  0.00    +0.389 N 
ATOM      3  N   UNL     1      33.764 -12.243 -23.196  0.00  0.00    -0.311 N 
ATOM      4  C   UNL     1      34.835 -14.404 -22.694  0.00  0.00    -0.055 C 
ATOM      5  C   UNL     1      34.077 -13.963 -24.931  0.00  0.00    -0.055 C 
ATOM      6  C   UNL     1      33.235 -12.777 -24.456  0.00  0.00    +0.068 C 
ATOM      7  C   UNL     1      34.018 -13.233 -22.143  0.00  0.00    +0.068 C 
ATOM      8  H   UNL     1      33.259 -15.302 -23.627  0.00  0.00    -0.080 HD
BRANCH   3  11
ATOM      9 CL   UNL     1      35.185 -10.070 -24.692  0.00  0.00    -0.080 Cl
ATOM     10 CL   UNL     1      34.374  -7.122 -23.715  0.00  0.00    -0.081 Cl
ATOM     11  C   UNL     1      33.443 -10.937 -22.808  0.00  0.00    +0.059 C 
ATOM     12  C   UNL     1      34.030  -9.828 -23.418  0.00  0.00    +0.081 C 
ATOM     13  C   UNL     1      32.513 -10.759 -21.784  0.00  0.00    +0.015 C 
ATOM     14  C   UNL     1      33.686  -8.541 -23.003  0.00  0.00    +0.069 C 
ATOM     15  C   UNL     1      32.169  -9.472 -21.370  0.00  0.00    +0.002 C 
ATOM     16  C   UNL     1      32.757  -8.363 -21.979  0.00  0.00    +0.012 C 
ENDBRANCH   3  11
ENDBRANCH   1   2
BRANCH   1  17
ATOM     17  C   UNL     1      34.598 -17.382 -23.560  0.00  0.00    -0.019 C 
BRANCH  17  18
ATOM     18  C   UNL     1      35.813 -17.918 -22.806  0.00  0.00    +0.045 C 
BRANCH  18  19
ATOM     19  C   UNL     1      35.519 -18.101 -21.323  0.00  0.00    +0.205 C 
BRANCH  19  20
ATOM     20  O   UNL     1      34.499 -19.076 -21.152  0.00  0.00    -0.475 OA
BRANCH  20  24
ATOM     21  O   UNL     1      34.954 -22.289 -16.680  0.00  0.00    -0.464 OA
ATOM     22  O   UNL     1      31.460 -22.829 -15.932  0.00  0.00    -0.271 OA
ATOM     23  N   UNL     1      32.385 -21.597 -17.638  0.00  0.00    -0.278 N 
ATOM     24  C   UNL     1      34.594 -19.884 -20.048  0.00  0.00    +0.140 C 
ATOM     25  C   UNL     1      33.438 -20.340 -19.416  0.00  0.00    +0.055 C 
ATOM     26  C   UNL     1      33.542 -21.168 -18.297  0.00  0.00    +0.088 C 
ATOM     27  C   UNL     1      35.849 -20.243 -19.555  0.00  0.00    +0.040 C 
ATOM     28  C   UNL     1      34.794 -21.531 -17.805  0.00  0.00    +0.153 C 
ATOM     29  C   UNL     1      35.951 -21.061 -18.429  0.00  0.00    +0.041 C 
ATOM     30  C   UNL     1      33.821 -23.064 -16.337  0.00  0.00    +0.290 C 
ATOM     31  C   UNL     1      32.442 -22.477 -16.583  0.00  0.00    +0.271 C 
ATOM     32  H   UNL     1      31.510 -21.262 -17.938  0.00  0.00    +0.155 HD
ENDBRANCH  20  24
ENDBRANCH  19  20
ENDBRANCH  18  19
ENDBRANCH  17  18
ENDBRANCH   1  17
TORSDOF 7
ENDMDL
MODEL 9
REMARK VINA RESULT:     -10.9      2.548      4.092
REMARK  Name = 46861612
REMARK  7 active torsions:
REMARK  status: ('A' for Active; 'I' for Inactive)
REMARK    1  A    between atoms: C_1  and  N_2
REMARK    2  A    between atoms: C_1  and  C_17
REMARK    3  A    between atoms: N_3  and  C_11
REMARK    4  A    between atoms: C_17  and  C_18
REMARK    5  A    between atoms: C_18  and  C_19
REMARK    6  A    between atoms: C_19  and  O_20
REMARK    7  A    between atoms: O_20  and  C_24
REMARK                            x       y       z     vdW  Elec       q    Type
REMARK                         _______ _______ _______ _____ _____    ______ ____
ROOT
ATOM      1  C   UNL     1      36.005 -17.736 -22.229  0.00  0.00    -0.077 C 
ENDROOT
BRANCH   1   2
ATOM      2  N   UNL     1      35.774 -16.294 -22.159  0.00  0.00    +0.389 N 
ATOM      3  N   UNL     1      34.222 -13.911 -21.899  0.00  0.00    -0.311 N 
ATOM      4  C   UNL     1      34.893 -15.859 -23.250  0.00  0.00    -0.055 C 
ATOM      5  C   UNL     1      35.184 -15.929 -20.866  0.00  0.00    -0.055 C 
ATOM      6  C   UNL     1      34.991 -14.414 -20.757  0.00  0.00    +0.068 C 
ATOM      7  C   UNL     1      34.691 -14.343 -23.222  0.00  0.00    +0.068 C 
ATOM      8  H   UNL     1      36.675 -15.823 -22.255  0.00  0.00    -0.080 HD
BRANCH   3  11
ATOM      9 CL   UNL     1      32.266 -13.665 -19.642  0.00  0.00    -0.080 Cl
ATOM     10 CL   UNL     1      30.823 -10.799 -19.526  0.00  0.00    -0.081 Cl
ATOM     11  C   UNL     1      33.566 -12.678 -21.805  0.00  0.00    +0.059 C 
ATOM     12  C   UNL     1      32.628 -12.424 -20.802  0.00  0.00    +0.081 C 
ATOM     13  C   UNL     1      33.868 -11.692 -22.743  0.00  0.00    +0.015 C 
ATOM     14  C   UNL     1      31.994 -11.183 -20.740  0.00  0.00    +0.069 C 
ATOM     15  C   UNL     1      33.234 -10.451 -22.680  0.00  0.00    +0.002 C 
ATOM     16  C   UNL     1      32.296 -10.197 -21.679  0.00  0.00    +0.012 C 
ENDBRANCH   3  11
ENDBRANCH   1   2
BRANCH   1  17
ATOM     17  C   UNL     1      35.463 -18.423 -20.977  0.00  0.00    -0.019 C 
BRANCH  17  18
ATOM     18  C   UNL     1      36.571 -19.153 -20.223  0.00  0.00    +0.045 C 
BRANCH  18  19
ATOM     19  C   UNL     1      36.011 -20.234 -19.307  0.00  0.00    +0.205 C 
BRANCH  19  20
ATOM     20  O   UNL     1      36.841 -20.372 -18.161  0.00  0.00    -0.475 OA
BRANCH  20  24
ATOM     21  O   UNL     1      34.881 -23.592 -14.122  0.00  0.00    -0.464 OA
ATOM     22  O   UNL     1      37.705 -23.565 -11.867  0.00  0.00    -0.271 OA
ATOM     23  N   UNL     1      37.486 -22.513 -13.899  0.00  0.00    -0.278 N 
ATOM     24  C   UNL     1      36.365 -21.159 -17.145  0.00  0.00    +0.140 C 
ATOM     25  C   UNL     1      37.165 -21.421 -16.033  0.00  0.00    +0.055 C 
ATOM     26  C   UNL     1      36.672 -22.218 -14.998  0.00  0.00    +0.088 C 
ATOM     27  C   UNL     1      35.083 -21.703 -17.227  0.00  0.00    +0.040 C 
ATOM     28  C   UNL     1      35.390 -22.759 -15.077  0.00  0.00    +0.153 C 
ATOM     29  C   UNL     1      34.596 -22.509 -16.197  0.00  0.00    +0.041 C 
ATOM     30  C   UNL     1      35.514 -23.485 -12.861  0.00  0.00    +0.290 C 
ATOM     31  C   UNL     1      37.011 -23.225 -12.823  0.00  0.00    +0.271 C 
ATOM     32  H   UNL     1      38.419 -22.201 -13.895  0.00  0.00    +0.155 HD
ENDBRANCH  20  24
ENDBRANCH  19  20
ENDBRANCH  18  19
ENDBRANCH  17  18
ENDBRANCH   1  17
TORSDOF 7
ENDMDL
