MODEL 1
REMARK VINA RESULT:     -11.7      0.000      0.000
REMARK  Name = 60795
REMARK  7 active torsions:
REMARK  status: ('A' for Active; 'I' for Inactive)
REMARK    1  A    between atoms: C_1  and  N_2
REMARK    2  A    between atoms: C_1  and  C_17
REMARK    3  A    between atoms: N_3  and  C_11
REMARK    4  A    between atoms: C_17  and  C_18
REMARK    5  A    between atoms: C_18  and  C_19
REMARK    6  A    between atoms: C_19  and  O_20
REMARK    7  A    between atoms: O_20  and  C_26
REMARK                            x       y       z     vdW  Elec       q    Type
REMARK                         _______ _______ _______ _____ _____    ______ ____
ROOT
ATOM      1  C   UNL     1      35.680 -20.941 -18.641  0.00  0.00    -0.077 C 
ENDROOT
BRANCH   1   2
ATOM      2  N   UNL     1      35.664 -20.129 -19.857  0.00  0.00    +0.389 N 
ATOM      3  N   UNL     1      35.293 -17.756 -21.404  0.00  0.00    -0.311 N 
ATOM      4  C   UNL     1      34.314 -19.614 -20.115  0.00  0.00    -0.055 C 
ATOM      5  C   UNL     1      36.611 -19.013 -19.745  0.00  0.00    -0.055 C 
ATOM      6  C   UNL     1      34.271 -18.810 -21.416  0.00  0.00    +0.068 C 
ATOM      7  C   UNL     1      36.645 -18.187 -21.033  0.00  0.00    +0.068 C 
ATOM      8  H   UNL     1      35.945 -20.721 -20.638  0.00  0.00    -0.080 HD
BRANCH   3  11
ATOM      9 CL   UNL     1      34.977 -15.069 -20.083  0.00  0.00    -0.080 Cl
ATOM     10 CL   UNL     1      34.594 -12.648 -22.155  0.00  0.00    -0.081 Cl
ATOM     11  C   UNL     1      35.124 -16.666 -22.265  0.00  0.00    +0.059 C 
ATOM     12  C   UNL     1      34.962 -15.344 -21.798  0.00  0.00    +0.081 C 
ATOM     13  C   UNL     1      35.112 -16.877 -23.659  0.00  0.00    +0.015 C 
ATOM     14  C   UNL     1      34.795 -14.281 -22.687  0.00  0.00    +0.069 C 
ATOM     15  C   UNL     1      34.946 -15.815 -24.548  0.00  0.00    +0.002 C 
ATOM     16  C   UNL     1      34.788 -14.517 -24.062  0.00  0.00    +0.012 C 
ENDBRANCH   3  11
ENDBRANCH   1   2
BRANCH   1  17
ATOM     17  C   UNL     1      34.541 -21.958 -18.667  0.00  0.00    -0.019 C 
BRANCH  17  18
ATOM     18  C   UNL     1      33.457 -21.599 -17.651  0.00  0.00    +0.045 C 
BRANCH  18  19
ATOM     19  C   UNL     1      33.333 -22.657 -16.563  0.00  0.00    +0.205 C 
BRANCH  19  20
ATOM     20  O   UNL     1      34.557 -23.381 -16.451  0.00  0.00    -0.475 OA
BRANCH  20  26
ATOM     21  O   UNL     1      35.494 -24.363  -9.479  0.00  0.00    -0.275 OA
ATOM     22  N   UNL     1      35.177 -23.994 -11.723  0.00  0.00    -0.284 N 
ATOM     23  C   UNL     1      36.822 -22.757 -13.018  0.00  0.00    -0.008 C 
ATOM     24  C   UNL     1      37.567 -22.455 -11.750  0.00  0.00    +0.037 C 
ATOM     25  C   UNL     1      35.627 -23.485 -12.955  0.00  0.00    +0.049 C 
ATOM     26  C   UNL     1      35.297 -23.178 -15.326  0.00  0.00    +0.140 C 
ATOM     27  C   UNL     1      37.379 -23.570 -10.732  0.00  0.00    +0.090 C 
ATOM     28  C   UNL     1      34.859 -23.688 -14.105  0.00  0.00    +0.051 C 
ATOM     29  C   UNL     1      37.245 -22.238 -14.246  0.00  0.00    +0.000 C 
ATOM     30  C   UNL     1      36.488 -22.457 -15.399  0.00  0.00    +0.037 C 
ATOM     31  C   UNL     1      35.929 -23.980 -10.565  0.00  0.00    +0.226 C 
ATOM     32  H   UNL     1      34.272 -24.383 -11.686  0.00  0.00    +0.155 HD
ENDBRANCH  20  26
ENDBRANCH  19  20
ENDBRANCH  18  19
ENDBRANCH  17  18
ENDBRANCH   1  17
TORSDOF 7
ENDMDL
MODEL 2
REMARK VINA RESULT:     -11.7      2.324      4.074
REMARK  Name = 60795
REMARK  7 active torsions:
REMARK  status: ('A' for Active; 'I' for Inactive)
REMARK    1  A    between atoms: C_1  and  N_2
REMARK    2  A    between atoms: C_1  and  C_17
REMARK    3  A    between atoms: N_3  and  C_11
REMARK    4  A    between atoms: C_17  and  C_18
REMARK    5  A    between atoms: C_18  and  C_19
REMARK    6  A    between atoms: C_19  and  O_20
REMARK    7  A    between atoms: O_20  and  C_26
REMARK                            x       y       z     vdW  Elec       q    Type
REMARK                         _______ _______ _______ _____ _____    ______ ____
ROOT
ATOM      1  C   UNL     1      35.917 -21.198 -18.375  0.00  0.00    -0.077 C 
ENDROOT
BRANCH   1   2
ATOM      2  N   UNL     1      35.845 -20.390 -19.591  0.00  0.00    +0.389 N 
ATOM      3  N   UNL     1      35.412 -18.018 -21.124  0.00  0.00    -0.311 N 
ATOM      4  C   UNL     1      34.487 -19.867 -19.783  0.00  0.00    -0.055 C 
ATOM      5  C   UNL     1      36.803 -19.280 -19.529  0.00  0.00    -0.055 C 
ATOM      6  C   UNL     1      34.384 -19.066 -21.082  0.00  0.00    +0.068 C 
ATOM      7  C   UNL     1      36.778 -18.457 -20.820  0.00  0.00    +0.068 C 
ATOM      8  H   UNL     1      36.083 -20.985 -20.384  0.00  0.00    -0.080 HD
BRANCH   3  11
ATOM      9 CL   UNL     1      35.137 -15.332 -19.795  0.00  0.00    -0.080 Cl
ATOM     10 CL   UNL     1      34.669 -12.913 -21.852  0.00  0.00    -0.081 Cl
ATOM     11  C   UNL     1      35.208 -16.930 -21.979  0.00  0.00    +0.059 C 
ATOM     12  C   UNL     1      35.059 -15.607 -21.507  0.00  0.00    +0.081 C 
ATOM     13  C   UNL     1      35.144 -17.142 -23.372  0.00  0.00    +0.015 C 
ATOM     14  C   UNL     1      34.855 -14.546 -22.390  0.00  0.00    +0.069 C 
ATOM     15  C   UNL     1      34.942 -16.081 -24.254  0.00  0.00    +0.002 C 
ATOM     16  C   UNL     1      34.797 -14.783 -23.763  0.00  0.00    +0.012 C 
ENDBRANCH   3  11
ENDBRANCH   1   2
BRANCH   1  17
ATOM     17  C   UNL     1      36.937 -20.608 -17.404  0.00  0.00    -0.019 C 
BRANCH  17  18
ATOM     18  C   UNL     1      37.389 -21.645 -16.377  0.00  0.00    +0.045 C 
BRANCH  18  19
ATOM     19  C   UNL     1      36.307 -21.920 -15.341  0.00  0.00    +0.205 C 
BRANCH  19  20
ATOM     20  O   UNL     1      35.546 -23.062 -15.728  0.00  0.00    -0.475 OA
BRANCH  20  26
ATOM     21  O   UNL     1      28.618 -21.807 -16.664  0.00  0.00    -0.275 OA
ATOM     22  N   UNL     1      30.859 -22.172 -16.326  0.00  0.00    -0.284 N 
ATOM     23  C   UNL     1      31.639 -23.299 -14.317  0.00  0.00    -0.008 C 
ATOM     24  C   UNL     1      30.236 -23.279 -13.782  0.00  0.00    +0.037 C 
ATOM     25  C   UNL     1      31.909 -22.707 -15.558  0.00  0.00    +0.049 C 
ATOM     26  C   UNL     1      34.266 -23.139 -15.268  0.00  0.00    +0.140 C 
ATOM     27  C   UNL     1      29.223 -23.332 -14.915  0.00  0.00    +0.090 C 
ATOM     28  C   UNL     1      33.221 -22.617 -16.030  0.00  0.00    +0.051 C 
ATOM     29  C   UNL     1      32.696 -23.807 -13.555  0.00  0.00    +0.000 C 
ATOM     30  C   UNL     1      34.006 -23.735 -14.035  0.00  0.00    +0.037 C 
ATOM     31  C   UNL     1      29.523 -22.341 -16.024  0.00  0.00    +0.226 C 
ATOM     32  H   UNL     1      31.092 -21.645 -17.125  0.00  0.00    +0.155 HD
ENDBRANCH  20  26
ENDBRANCH  19  20
ENDBRANCH  18  19
ENDBRANCH  17  18
ENDBRANCH   1  17
TORSDOF 7
ENDMDL
MODEL 3
REMARK VINA RESULT:     -11.7      1.918      2.353
REMARK  Name = 60795
REMARK  7 active torsions:
REMARK  status: ('A' for Active; 'I' for Inactive)
REMARK    1  A    between atoms: C_1  and  N_2
REMARK    2  A    between atoms: C_1  and  C_17
REMARK    3  A    between atoms: N_3  and  C_11
REMARK    4  A    between atoms: C_17  and  C_18
REMARK    5  A    between atoms: C_18  and  C_19
REMARK    6  A    between atoms: C_19  and  O_20
REMARK    7  A    between atoms: O_20  and  C_26
REMARK                            x       y       z     vdW  Elec       q    Type
REMARK                         _______ _______ _______ _____ _____    ______ ____
ROOT
ATOM      1  C   UNL     1      35.699 -21.164 -18.447  0.00  0.00    -0.077 C 
ENDROOT
BRANCH   1   2
ATOM      2  N   UNL     1      35.684 -20.342 -19.656  0.00  0.00    +0.389 N 
ATOM      3  N   UNL     1      35.332 -17.952 -21.181  0.00  0.00    -0.311 N 
ATOM      4  C   UNL     1      34.339 -19.808 -19.899  0.00  0.00    -0.055 C 
ATOM      5  C   UNL     1      36.646 -19.240 -19.542  0.00  0.00    -0.055 C 
ATOM      6  C   UNL     1      34.297 -18.993 -21.193  0.00  0.00    +0.068 C 
ATOM      7  C   UNL     1      36.681 -18.404 -20.824  0.00  0.00    +0.068 C 
ATOM      8  H   UNL     1      35.952 -20.931 -20.444  0.00  0.00    -0.080 HD
BRANCH   3  11
ATOM      9 CL   UNL     1      35.059 -15.273 -19.837  0.00  0.00    -0.080 Cl
ATOM     10 CL   UNL     1      34.692 -12.830 -21.886  0.00  0.00    -0.081 Cl
ATOM     11  C   UNL     1      35.172 -16.853 -22.032  0.00  0.00    +0.059 C 
ATOM     12  C   UNL     1      35.029 -15.533 -21.553  0.00  0.00    +0.081 C 
ATOM     13  C   UNL     1      35.148 -17.053 -23.428  0.00  0.00    +0.015 C 
ATOM     14  C   UNL     1      34.869 -14.461 -22.433  0.00  0.00    +0.069 C 
ATOM     15  C   UNL     1      34.990 -15.981 -24.307  0.00  0.00    +0.002 C 
ATOM     16  C   UNL     1      34.850 -14.686 -23.809  0.00  0.00    +0.012 C 
ENDBRANCH   3  11
ENDBRANCH   1   2
BRANCH   1  17
ATOM     17  C   UNL     1      34.555 -22.176 -18.479  0.00  0.00    -0.019 C 
BRANCH  17  18
ATOM     18  C   UNL     1      33.569 -21.933 -17.336  0.00  0.00    +0.045 C 
BRANCH  18  19
ATOM     19  C   UNL     1      33.757 -22.939 -16.208  0.00  0.00    +0.205 C 
BRANCH  19  20
ATOM     20  O   UNL     1      34.297 -22.284 -15.062  0.00  0.00    -0.475 OA
BRANCH  20  26
ATOM     21  O   UNL     1      40.936 -24.804 -14.909  0.00  0.00    -0.275 OA
ATOM     22  N   UNL     1      38.771 -24.040 -14.963  0.00  0.00    -0.284 N 
ATOM     23  C   UNL     1      37.336 -24.250 -13.011  0.00  0.00    -0.008 C 
ATOM     24  C   UNL     1      38.410 -25.049 -12.330  0.00  0.00    +0.037 C 
ATOM     25  C   UNL     1      37.540 -23.806 -14.324  0.00  0.00    +0.049 C 
ATOM     26  C   UNL     1      35.293 -22.927 -14.392  0.00  0.00    +0.140 C 
ATOM     27  C   UNL     1      39.789 -24.624 -12.810  0.00  0.00    +0.090 C 
ATOM     28  C   UNL     1      36.518 -23.154 -15.019  0.00  0.00    +0.051 C 
ATOM     29  C   UNL     1      36.099 -24.029 -12.397  0.00  0.00    +0.000 C 
ATOM     30  C   UNL     1      35.084 -23.361 -13.084  0.00  0.00    +0.037 C 
ATOM     31  C   UNL     1      39.888 -24.536 -14.321  0.00  0.00    +0.226 C 
ATOM     32  H   UNL     1      38.839 -23.838 -15.925  0.00  0.00    +0.155 HD
ENDBRANCH  20  26
ENDBRANCH  19  20
ENDBRANCH  18  19
ENDBRANCH  17  18
ENDBRANCH   1  17
TORSDOF 7
ENDMDL
MODEL 4
REMARK VINA RESULT:     -11.6      3.230      5.563
REMARK  Name = 60795
REMARK  7 active torsions:
REMARK  status: ('A' for Active; 'I' for Inactive)
REMARK    1  A    between atoms: C_1  and  N_2
REMARK    2  A    between atoms: C_1  and  C_17
REMARK    3  A    between atoms: N_3  and  C_11
REMARK    4  A    between atoms: C_17  and  C_18
REMARK    5  A    between atoms: C_18  and  C_19
REMARK    6  A    between atoms: C_19  and  O_20
REMARK    7  A    between atoms: O_20  and  C_26
REMARK                            x       y       z     vdW  Elec       q    Type
REMARK                         _______ _______ _______ _____ _____    ______ ____
ROOT
ATOM      1  C   UNL     1      35.218 -16.479 -23.730  0.00  0.00    -0.077 C 
ENDROOT
BRANCH   1   2
ATOM      2  N   UNL     1      35.019 -15.068 -23.401  0.00  0.00    +0.389 N 
ATOM      3  N   UNL     1      33.632 -12.807 -22.338  0.00  0.00    -0.311 N 
ATOM      4  C   UNL     1      33.825 -14.545 -24.076  0.00  0.00    -0.055 C 
ATOM      5  C   UNL     1      34.891 -14.890 -21.950  0.00  0.00    -0.055 C 
ATOM      6  C   UNL     1      33.639 -13.054 -23.786  0.00  0.00    +0.068 C 
ATOM      7  C   UNL     1      34.739 -13.410 -21.587  0.00  0.00    +0.068 C 
ATOM      8  H   UNL     1      35.835 -14.548 -23.725  0.00  0.00    -0.080 HD
BRANCH   3  11
ATOM      9 CL   UNL     1      32.070 -13.037 -19.776  0.00  0.00    -0.080 Cl
ATOM     10 CL   UNL     1      30.756 -10.271 -18.811  0.00  0.00    -0.081 Cl
ATOM     11  C   UNL     1      33.041 -11.628 -21.874  0.00  0.00    +0.059 C 
ATOM     12  C   UNL     1      32.276 -11.574 -20.689  0.00  0.00    +0.081 C 
ATOM     13  C   UNL     1      33.204 -10.434 -22.606  0.00  0.00    +0.015 C 
ATOM     14  C   UNL     1      31.699 -10.379 -20.257  0.00  0.00    +0.069 C 
ATOM     15  C   UNL     1      32.628  -9.239 -22.174  0.00  0.00    +0.002 C 
ATOM     16  C   UNL     1      31.876  -9.211 -20.999  0.00  0.00    +0.012 C 
ENDBRANCH   3  11
ENDBRANCH   1   2
BRANCH   1  17
ATOM     17  C   UNL     1      35.646 -17.258 -22.488  0.00  0.00    -0.019 C 
BRANCH  17  18
ATOM     18  C   UNL     1      34.967 -18.626 -22.432  0.00  0.00    +0.045 C 
BRANCH  18  19
ATOM     19  C   UNL     1      34.632 -19.029 -21.002  0.00  0.00    +0.205 C 
BRANCH  19  20
ATOM     20  O   UNL     1      35.709 -19.781 -20.446  0.00  0.00    -0.475 OA
BRANCH  20  26
ATOM     21  O   UNL     1      37.963 -22.357 -14.222  0.00  0.00    -0.275 OA
ATOM     22  N   UNL     1      37.235 -21.574 -16.255  0.00  0.00    -0.284 N 
ATOM     23  C   UNL     1      34.928 -21.899 -16.951  0.00  0.00    -0.008 C 
ATOM     24  C   UNL     1      34.699 -22.748 -15.734  0.00  0.00    +0.037 C 
ATOM     25  C   UNL     1      36.204 -21.372 -17.190  0.00  0.00    +0.049 C 
ATOM     26  C   UNL     1      35.455 -20.474 -19.302  0.00  0.00    +0.140 C 
ATOM     27  C   UNL     1      35.592 -22.304 -14.587  0.00  0.00    +0.090 C 
ATOM     28  C   UNL     1      36.472 -20.669 -18.368  0.00  0.00    +0.051 C 
ATOM     29  C   UNL     1      33.919 -21.709 -17.901  0.00  0.00    +0.000 C 
ATOM     30  C   UNL     1      34.181 -20.989 -19.069  0.00  0.00    +0.037 C 
ATOM     31  C   UNL     1      37.040 -22.120 -15.001  0.00  0.00    +0.226 C 
ATOM     32  H   UNL     1      38.150 -21.312 -16.510  0.00  0.00    +0.155 HD
ENDBRANCH  20  26
ENDBRANCH  19  20
ENDBRANCH  18  19
ENDBRANCH  17  18
ENDBRANCH   1  17
TORSDOF 7
ENDMDL
MODEL 5
REMARK VINA RESULT:     -11.3      3.150      4.742
REMARK  Name = 60795
REMARK  7 active torsions:
REMARK  status: ('A' for Active; 'I' for Inactive)
REMARK    1  A    between atoms: C_1  and  N_2
REMARK    2  A    between atoms: C_1  and  C_17
REMARK    3  A    between atoms: N_3  and  C_11
REMARK    4  A    between atoms: C_17  and  C_18
REMARK    5  A    between atoms: C_18  and  C_19
REMARK    6  A    between atoms: C_19  and  O_20
REMARK    7  A    between atoms: O_20  and  C_26
REMARK                            x       y       z     vdW  Elec       q    Type
REMARK                         _______ _______ _______ _____ _____    ______ ____
ROOT
ATOM      1  C   UNL     1      36.002 -18.291 -21.319  0.00  0.00    -0.077 C 
ENDROOT
BRANCH   1   2
ATOM      2  N   UNL     1      35.854 -16.840 -21.426  0.00  0.00    +0.389 N 
ATOM      3  N   UNL     1      34.430 -14.371 -21.620  0.00  0.00    -0.311 N 
ATOM      4  C   UNL     1      35.149 -16.484 -22.664  0.00  0.00    -0.055 C 
ATOM      5  C   UNL     1      35.126 -16.309 -20.267  0.00  0.00    -0.055 C 
ATOM      6  C   UNL     1      35.039 -14.966 -22.816  0.00  0.00    +0.068 C 
ATOM      7  C   UNL     1      35.012 -14.784 -20.339  0.00  0.00    +0.068 C 
ATOM      8  H   UNL     1      36.785 -16.426 -21.447  0.00  0.00    -0.080 HD
BRANCH   3  11
ATOM      9 CL   UNL     1      32.247 -13.738 -19.646  0.00  0.00    -0.080 Cl
ATOM     10 CL   UNL     1      30.976 -10.814 -20.018  0.00  0.00    -0.081 Cl
ATOM     11  C   UNL     1      33.844 -13.107 -21.739  0.00  0.00    +0.059 C 
ATOM     12  C   UNL     1      32.807 -12.663 -20.889  0.00  0.00    +0.081 C 
ATOM     13  C   UNL     1      34.292 -12.224 -22.744  0.00  0.00    +0.015 C 
ATOM     14  C   UNL     1      32.246 -11.394 -21.039  0.00  0.00    +0.069 C 
ATOM     15  C   UNL     1      33.731 -10.956 -22.893  0.00  0.00    +0.002 C 
ATOM     16  C   UNL     1      32.708 -10.541 -22.041  0.00  0.00    +0.012 C 
ENDBRANCH   3  11
ENDBRANCH   1   2
BRANCH   1  17
ATOM     17  C   UNL     1      34.979 -18.857 -20.336  0.00  0.00    -0.019 C 
BRANCH  17  18
ATOM     18  C   UNL     1      35.506 -20.121 -19.656  0.00  0.00    +0.045 C 
BRANCH  18  19
ATOM     19  C   UNL     1      34.375 -20.965 -19.083  0.00  0.00    +0.205 C 
BRANCH  19  20
ATOM     20  O   UNL     1      34.892 -21.864 -18.104  0.00  0.00    -0.475 OA
BRANCH  20  26
ATOM     21  O   UNL     1      28.374 -22.469 -15.346  0.00  0.00    -0.275 OA
ATOM     22  N   UNL     1      30.488 -22.227 -16.209  0.00  0.00    -0.284 N 
ATOM     23  C   UNL     1      32.442 -22.750 -14.859  0.00  0.00    -0.008 C 
ATOM     24  C   UNL     1      31.545 -22.961 -13.674  0.00  0.00    +0.037 C 
ATOM     25  C   UNL     1      31.883 -22.350 -16.080  0.00  0.00    +0.049 C 
ATOM     26  C   UNL     1      34.088 -22.153 -17.043  0.00  0.00    +0.140 C 
ATOM     27  C   UNL     1      30.177 -23.460 -14.112  0.00  0.00    +0.090 C 
ATOM     28  C   UNL     1      32.704 -22.042 -17.169  0.00  0.00    +0.051 C 
ATOM     29  C   UNL     1      33.833 -22.845 -14.741  0.00  0.00    +0.000 C 
ATOM     30  C   UNL     1      34.652 -22.556 -15.833  0.00  0.00    +0.037 C 
ATOM     31  C   UNL     1      29.588 -22.648 -15.250  0.00  0.00    +0.226 C 
ATOM     32  H   UNL     1      30.133 -21.817 -17.032  0.00  0.00    +0.155 HD
ENDBRANCH  20  26
ENDBRANCH  19  20
ENDBRANCH  18  19
ENDBRANCH  17  18
ENDBRANCH   1  17
TORSDOF 7
ENDMDL
MODEL 6
REMARK VINA RESULT:     -11.2      4.572     11.413
REMARK  Name = 60795
REMARK  7 active torsions:
REMARK  status: ('A' for Active; 'I' for Inactive)
REMARK    1  A    between atoms: C_1  and  N_2
REMARK    2  A    between atoms: C_1  and  C_17
REMARK    3  A    between atoms: N_3  and  C_11
REMARK    4  A    between atoms: C_17  and  C_18
REMARK    5  A    between atoms: C_18  and  C_19
REMARK    6  A    between atoms: C_19  and  O_20
REMARK    7  A    between atoms: O_20  and  C_26
REMARK                            x       y       z     vdW  Elec       q    Type
REMARK                         _______ _______ _______ _____ _____    ______ ____
ROOT
ATOM      1  C   UNL     1      35.122 -21.232 -18.881  0.00  0.00    -0.077 C 
ENDROOT
BRANCH   1   2
ATOM      2  N   UNL     1      35.418 -21.299 -17.451  0.00  0.00    +0.389 N 
ATOM      3  N   UNL     1      36.453 -22.458 -15.053  0.00  0.00    -0.311 N 
ATOM      4  C   UNL     1      34.758 -22.460 -16.842  0.00  0.00    -0.055 C 
ATOM      5  C   UNL     1      36.867 -21.375 -17.227  0.00  0.00    -0.055 C 
ATOM      6  C   UNL     1      35.012 -22.509 -15.334  0.00  0.00    +0.068 C 
ATOM      7  C   UNL     1      37.194 -21.389 -15.731  0.00  0.00    +0.068 C 
ATOM      8  H   UNL     1      35.062 -20.450 -17.013  0.00  0.00    -0.080 HD
BRANCH   3  11
ATOM      9 CL   UNL     1      36.519 -25.450 -14.736  0.00  0.00    -0.080 Cl
ATOM     10 CL   UNL     1      37.555 -26.422 -11.858  0.00  0.00    -0.081 Cl
ATOM     11  C   UNL     1      36.899 -22.933 -13.816  0.00  0.00    +0.059 C 
ATOM     12  C   UNL     1      36.985 -24.309 -13.513  0.00  0.00    +0.081 C 
ATOM     13  C   UNL     1      37.283 -22.015 -12.816  0.00  0.00    +0.015 C 
ATOM     14  C   UNL     1      37.434 -24.746 -12.266  0.00  0.00    +0.069 C 
ATOM     15  C   UNL     1      37.732 -22.452 -11.570  0.00  0.00    +0.002 C 
ATOM     16  C   UNL     1      37.808 -23.818 -11.295  0.00  0.00    +0.012 C 
ENDBRANCH   3  11
ENDBRANCH   1   2
BRANCH   1  17
ATOM     17  C   UNL     1      33.891 -20.362 -19.129  0.00  0.00    -0.019 C 
BRANCH  17  18
ATOM     18  C   UNL     1      34.160 -19.319 -20.212  0.00  0.00    +0.045 C 
BRANCH  18  19
ATOM     19  C   UNL     1      35.651 -19.141 -20.465  0.00  0.00    +0.205 C 
BRANCH  19  20
ATOM     20  O   UNL     1      36.073 -17.863 -19.995  0.00  0.00    -0.475 OA
BRANCH  20  26
ATOM     21  O   UNL     1      34.341 -14.595 -26.059  0.00  0.00    -0.275 OA
ATOM     22  N   UNL     1      34.944 -15.619 -24.094  0.00  0.00    -0.284 N 
ATOM     23  C   UNL     1      34.555 -14.523 -21.958  0.00  0.00    -0.008 C 
ATOM     24  C   UNL     1      34.110 -13.291 -22.692  0.00  0.00    +0.037 C 
ATOM     25  C   UNL     1      34.995 -15.635 -22.689  0.00  0.00    +0.049 C 
ATOM     26  C   UNL     1      35.576 -16.771 -20.640  0.00  0.00    +0.140 C 
ATOM     27  C   UNL     1      33.480 -13.652 -24.028  0.00  0.00    +0.090 C 
ATOM     28  C   UNL     1      35.515 -16.754 -22.033  0.00  0.00    +0.051 C 
ATOM     29  C   UNL     1      34.633 -14.546 -20.562  0.00  0.00    +0.000 C 
ATOM     30  C   UNL     1      35.134 -15.671 -19.905  0.00  0.00    +0.037 C 
ATOM     31  C   UNL     1      34.315 -14.633 -24.829  0.00  0.00    +0.226 C 
ATOM     32  H   UNL     1      35.383 -16.354 -24.582  0.00  0.00    +0.155 HD
ENDBRANCH  20  26
ENDBRANCH  19  20
ENDBRANCH  18  19
ENDBRANCH  17  18
ENDBRANCH   1  17
TORSDOF 7
ENDMDL
MODEL 7
REMARK VINA RESULT:     -11.2      3.724      6.518
REMARK  Name = 60795
REMARK  7 active torsions:
REMARK  status: ('A' for Active; 'I' for Inactive)
REMARK    1  A    between atoms: C_1  and  N_2
REMARK    2  A    between atoms: C_1  and  C_17
REMARK    3  A    between atoms: N_3  and  C_11
REMARK    4  A    between atoms: C_17  and  C_18
REMARK    5  A    between atoms: C_18  and  C_19
REMARK    6  A    between atoms: C_19  and  O_20
REMARK    7  A    between atoms: O_20  and  C_26
REMARK                            x       y       z     vdW  Elec       q    Type
REMARK                         _______ _______ _______ _____ _____    ______ ____
ROOT
ATOM      1  C   UNL     1      35.343 -16.322 -23.770  0.00  0.00    -0.077 C 
ENDROOT
BRANCH   1   2
ATOM      2  N   UNL     1      35.099 -14.914 -23.458  0.00  0.00    +0.389 N 
ATOM      3  N   UNL     1      33.650 -12.690 -22.403  0.00  0.00    -0.311 N 
ATOM      4  C   UNL     1      33.875 -14.445 -24.118  0.00  0.00    -0.055 C 
ATOM      5  C   UNL     1      34.991 -14.720 -22.008  0.00  0.00    -0.055 C 
ATOM      6  C   UNL     1      33.639 -12.959 -23.847  0.00  0.00    +0.068 C 
ATOM      7  C   UNL     1      34.790 -13.241 -21.664  0.00  0.00    +0.068 C 
ATOM      8  H   UNL     1      35.889 -14.371 -23.805  0.00  0.00    -0.080 HD
BRANCH   3  11
ATOM      9 CL   UNL     1      32.061 -12.961 -19.860  0.00  0.00    -0.080 Cl
ATOM     10 CL   UNL     1      30.669 -10.230 -18.909  0.00  0.00    -0.081 Cl
ATOM     11  C   UNL     1      33.024 -11.526 -21.945  0.00  0.00    +0.059 C 
ATOM     12  C   UNL     1      32.243 -11.493 -20.769  0.00  0.00    +0.081 C 
ATOM     13  C   UNL     1      33.166 -10.327 -22.674  0.00  0.00    +0.015 C 
ATOM     14  C   UNL     1      31.632 -10.312 -20.343  0.00  0.00    +0.069 C 
ATOM     15  C   UNL     1      32.556  -9.148 -22.248  0.00  0.00    +0.002 C 
ATOM     16  C   UNL     1      31.789  -9.140 -21.083  0.00  0.00    +0.012 C 
ENDBRANCH   3  11
ENDBRANCH   1   2
BRANCH   1  17
ATOM     17  C   UNL     1      34.102 -16.948 -24.402  0.00  0.00    -0.019 C 
BRANCH  17  18
ATOM     18  C   UNL     1      33.986 -18.430 -24.045  0.00  0.00    +0.045 C 
BRANCH  18  19
ATOM     19  C   UNL     1      35.011 -18.837 -22.994  0.00  0.00    +0.205 C 
BRANCH  19  20
ATOM     20  O   UNL     1      34.599 -18.371 -21.711  0.00  0.00    -0.475 OA
BRANCH  20  26
ATOM     21  O   UNL     1      31.642 -22.301 -16.587  0.00  0.00    -0.275 OA
ATOM     22  N   UNL     1      32.614 -20.995 -18.206  0.00  0.00    -0.284 N 
ATOM     23  C   UNL     1      35.026 -21.003 -18.517  0.00  0.00    -0.008 C 
ATOM     24  C   UNL     1      35.163 -21.868 -17.297  0.00  0.00    +0.037 C 
ATOM     25  C   UNL     1      33.754 -20.563 -18.907  0.00  0.00    +0.049 C 
ATOM     26  C   UNL     1      34.737 -19.232 -20.665  0.00  0.00    +0.140 C 
ATOM     27  C   UNL     1      33.937 -22.750 -17.118  0.00  0.00    +0.090 C 
ATOM     28  C   UNL     1      33.609 -19.671 -19.973  0.00  0.00    +0.051 C 
ATOM     29  C   UNL     1      36.152 -20.546 -19.210  0.00  0.00    +0.000 C 
ATOM     30  C   UNL     1      36.005 -19.670 -20.288  0.00  0.00    +0.037 C 
ATOM     31  C   UNL     1      32.634 -21.984 -17.243  0.00  0.00    +0.226 C 
ATOM     32  H   UNL     1      31.752 -20.567 -18.415  0.00  0.00    +0.155 HD
ENDBRANCH  20  26
ENDBRANCH  19  20
ENDBRANCH  18  19
ENDBRANCH  17  18
ENDBRANCH   1  17
TORSDOF 7
ENDMDL
MODEL 8
REMARK VINA RESULT:     -11.1      2.553      4.444
REMARK  Name = 60795
REMARK  7 active torsions:
REMARK  status: ('A' for Active; 'I' for Inactive)
REMARK    1  A    between atoms: C_1  and  N_2
REMARK    2  A    between atoms: C_1  and  C_17
REMARK    3  A    between atoms: N_3  and  C_11
REMARK    4  A    between atoms: C_17  and  C_18
REMARK    5  A    between atoms: C_18  and  C_19
REMARK    6  A    between atoms: C_19  and  O_20
REMARK    7  A    between atoms: O_20  and  C_26
REMARK                            x       y       z     vdW  Elec       q    Type
REMARK                         _______ _______ _______ _____ _____    ______ ____
ROOT
ATOM      1  C   UNL     1      36.161 -17.837 -21.848  0.00  0.00    -0.077 C 
ENDROOT
BRANCH   1   2
ATOM      2  N   UNL     1      35.906 -16.398 -21.823  0.00  0.00    +0.389 N 
ATOM      3  N   UNL     1      34.304 -14.035 -21.714  0.00  0.00    -0.311 N 
ATOM      4  C   UNL     1      35.090 -15.999 -22.977  0.00  0.00    -0.055 C 
ATOM      5  C   UNL     1      35.230 -16.016 -20.578  0.00  0.00    -0.055 C 
ATOM      6  C   UNL     1      34.864 -14.486 -22.994  0.00  0.00    +0.068 C 
ATOM      7  C   UNL     1      35.006 -14.502 -20.514  0.00  0.00    +0.068 C 
ATOM      8  H   UNL     1      36.803 -15.915 -21.872  0.00  0.00    -0.080 HD
BRANCH   3  11
ATOM      9 CL   UNL     1      32.251 -13.715 -19.536  0.00  0.00    -0.080 Cl
ATOM     10 CL   UNL     1      30.756 -10.874 -19.576  0.00  0.00    -0.081 Cl
ATOM     11  C   UNL     1      33.625 -12.812 -21.687  0.00  0.00    +0.059 C 
ATOM     12  C   UNL     1      32.633 -12.512 -20.728  0.00  0.00    +0.081 C 
ATOM     13  C   UNL     1      33.929 -11.827 -22.649  0.00  0.00    +0.015 C 
ATOM     14  C   UNL     1      31.975 -11.281 -20.733  0.00  0.00    +0.069 C 
ATOM     15  C   UNL     1      33.272 -10.596 -22.653  0.00  0.00    +0.002 C 
ATOM     16  C   UNL     1      32.295 -10.323 -21.696  0.00  0.00    +0.012 C 
ENDBRANCH   3  11
ENDBRANCH   1   2
BRANCH   1  17
ATOM     17  C   UNL     1      35.694 -18.482 -20.545  0.00  0.00    -0.019 C 
BRANCH  17  18
ATOM     18  C   UNL     1      36.845 -19.197 -19.838  0.00  0.00    +0.045 C 
BRANCH  18  19
ATOM     19  C   UNL     1      36.544 -20.675 -19.627  0.00  0.00    +0.205 C 
BRANCH  19  20
ATOM     20  O   UNL     1      36.668 -21.001 -18.244  0.00  0.00    -0.475 OA
BRANCH  20  26
ATOM     21  O   UNL     1      33.605 -23.753 -12.456  0.00  0.00    -0.275 OA
ATOM     22  N   UNL     1      34.592 -22.912 -14.352  0.00  0.00    -0.284 N 
ATOM     23  C   UNL     1      33.258 -22.412 -16.323  0.00  0.00    -0.008 C 
ATOM     24  C   UNL     1      32.064 -23.023 -15.648  0.00  0.00    +0.037 C 
ATOM     25  C   UNL     1      34.495 -22.414 -15.663  0.00  0.00    +0.049 C 
ATOM     26  C   UNL     1      35.554 -21.463 -17.614  0.00  0.00    +0.140 C 
ATOM     27  C   UNL     1      32.150 -22.855 -14.139  0.00  0.00    +0.090 C 
ATOM     28  C   UNL     1      35.644 -21.950 -16.310  0.00  0.00    +0.051 C 
ATOM     29  C   UNL     1      33.182 -21.934 -17.635  0.00  0.00    +0.000 C 
ATOM     30  C   UNL     1      34.326 -21.452 -18.275  0.00  0.00    +0.037 C 
ATOM     31  C   UNL     1      33.502 -23.251 -13.576  0.00  0.00    +0.226 C 
ATOM     32  H   UNL     1      35.491 -23.025 -13.965  0.00  0.00    +0.155 HD
ENDBRANCH  20  26
ENDBRANCH  19  20
ENDBRANCH  18  19
ENDBRANCH  17  18
ENDBRANCH   1  17
TORSDOF 7
ENDMDL
MODEL 9
REMARK VINA RESULT:     -11.1      6.212     12.162
REMARK  Name = 60795
REMARK  7 active torsions:
REMARK  status: ('A' for Active; 'I' for Inactive)
REMARK    1  A    between atoms: C_1  and  N_2
REMARK    2  A    between atoms: C_1  and  C_17
REMARK    3  A    between atoms: N_3  and  C_11
REMARK    4  A    between atoms: C_17  and  C_18
REMARK    5  A    between atoms: C_18  and  C_19
REMARK    6  A    between atoms: C_19  and  O_20
REMARK    7  A    between atoms: O_20  and  C_26
REMARK                            x       y       z     vdW  Elec       q    Type
REMARK                         _______ _______ _______ _____ _____    ______ ____
ROOT
ATOM      1  C   UNL     1      34.679 -15.318 -23.969  0.00  0.00    -0.077 C 
ENDROOT
BRANCH   1   2
ATOM      2  N   UNL     1      35.258 -16.374 -23.141  0.00  0.00    +0.389 N 
ATOM      3  N   UNL     1      35.274 -18.380 -21.106  0.00  0.00    -0.311 N 
ATOM      4  C   UNL     1      35.223 -15.995 -21.723  0.00  0.00    -0.055 C 
ATOM      5  C   UNL     1      34.537 -17.637 -23.337  0.00  0.00    -0.055 C 
ATOM      6  C   UNL     1      35.879 -17.067 -20.851  0.00  0.00    +0.068 C 
ATOM      7  C   UNL     1      35.168 -18.766 -22.517  0.00  0.00    +0.068 C 
ATOM      8  H   UNL     1      36.229 -16.503 -23.423  0.00  0.00    -0.080 HD
BRANCH   3  11
ATOM      9 CL   UNL     1      32.717 -19.670 -20.178  0.00  0.00    -0.080 Cl
ATOM     10 CL   UNL     1      33.146 -21.917 -17.927  0.00  0.00    -0.081 Cl
ATOM     11  C   UNL     1      35.407 -19.369 -20.126  0.00  0.00    +0.059 C 
ATOM     12  C   UNL     1      34.302 -20.064 -19.589  0.00  0.00    +0.081 C 
ATOM     13  C   UNL     1      36.690 -19.699 -19.641  0.00  0.00    +0.015 C 
ATOM     14  C   UNL     1      34.473 -21.044 -18.610  0.00  0.00    +0.069 C 
ATOM     15  C   UNL     1      36.861 -20.679 -18.664  0.00  0.00    +0.002 C 
ATOM     16  C   UNL     1      35.753 -21.351 -18.148  0.00  0.00    +0.012 C 
ENDBRANCH   3  11
ENDBRANCH   1   2
BRANCH   1  17
ATOM     17  C   UNL     1      34.810 -13.965 -23.272  0.00  0.00    -0.019 C 
BRANCH  17  18
ATOM     18  C   UNL     1      33.441 -13.328 -23.037  0.00  0.00    +0.045 C 
BRANCH  18  19
ATOM     19  C   UNL     1      33.169 -13.108 -21.555  0.00  0.00    +0.205 C 
BRANCH  19  20
ATOM     20  O   UNL     1      31.955 -12.378 -21.389  0.00  0.00    -0.475 OA
BRANCH  20  26
ATOM     21  O   UNL     1      32.598  -5.343 -22.135  0.00  0.00    -0.275 OA
ATOM     22  N   UNL     1      32.442  -7.620 -21.878  0.00  0.00    -0.284 N 
ATOM     23  C   UNL     1      32.238  -8.603 -19.663  0.00  0.00    -0.008 C 
ATOM     24  C   UNL     1      32.448  -7.244 -19.060  0.00  0.00    +0.037 C 
ATOM     25  C   UNL     1      32.282  -8.750 -21.056  0.00  0.00    +0.049 C 
ATOM     26  C   UNL     1      32.048 -11.142 -20.826  0.00  0.00    +0.140 C 
ATOM     27  C   UNL     1      31.922  -6.155 -19.981  0.00  0.00    +0.090 C 
ATOM     28  C   UNL     1      32.198 -10.018 -21.638  0.00  0.00    +0.051 C 
ATOM     29  C   UNL     1      32.102  -9.739 -18.858  0.00  0.00    +0.000 C 
ATOM     30  C   UNL     1      31.997 -11.004 -19.440  0.00  0.00    +0.037 C 
ATOM     31  C   UNL     1      32.385  -6.320 -21.416  0.00  0.00    +0.226 C 
ATOM     32  H   UNL     1      32.605  -7.766 -22.838  0.00  0.00    +0.155 HD
ENDBRANCH  20  26
ENDBRANCH  19  20
ENDBRANCH  18  19
ENDBRANCH  17  18
ENDBRANCH   1  17
TORSDOF 7
ENDMDL
