MODEL 1
REMARK VINA RESULT:     -12.3      0.000      0.000
REMARK  Name = 444746
REMARK  6 active torsions:
REMARK  status: ('A' for Active; 'I' for Inactive)
REMARK    1  A    between atoms: C_1  and  C_9
REMARK    2  A    between atoms: C_1  and  N_13
REMARK    3  A    between atoms: C_1  and  C_27
REMARK    4  A    between atoms: C_4  and  O_10
REMARK    5  A    between atoms: C_14  and  C_18
REMARK    6  A    between atoms: C_27  and  C_29
REMARK                            x       y       z     vdW  Elec       q    Type
REMARK                         _______ _______ _______ _____ _____    ______ ____
ROOT
ATOM      1  C   UNL     1      35.400 -22.071 -15.283  0.00  0.00    +0.153 C 
ENDROOT
BRANCH   1   9
ATOM      2  O   UNL     1      37.604 -22.605 -15.969  0.00  0.00    -0.273 OA
ATOM      3  N   UNL     1      37.091 -22.996 -13.738  0.00  0.00    -0.278 N 
ATOM      4  C   UNL     1      37.461 -24.863 -11.560  0.00  0.00    +0.114 C 
ATOM      5  C   UNL     1      38.403 -24.841 -12.765  0.00  0.00    +0.051 C 
ATOM      6  C   UNL     1      36.074 -24.352 -11.948  0.00  0.00    +0.051 C 
ATOM      7  C   UNL     1      38.442 -23.459 -13.408  0.00  0.00    +0.096 C 
ATOM      8  C   UNL     1      36.153 -22.978 -12.607  0.00  0.00    +0.096 C 
ATOM      9  C   UNL     1      36.799 -22.579 -15.036  0.00  0.00    +0.244 C 
BRANCH   4  10
ATOM     10  O   UNL     1      37.339 -26.191 -11.067  0.00  0.00    -0.384 OA
ATOM     11  H   UNL     1      37.472 -26.819 -11.795  0.00  0.00    +0.210 HD
ENDBRANCH   4  10
ENDBRANCH   1   9
BRANCH   1  13
ATOM     12  O   UNL     1      34.601 -22.756 -17.899  0.00  0.00    -0.269 OA
ATOM     13  N   UNL     1      35.544 -21.245 -16.446  0.00  0.00    -0.294 N 
ATOM     14  C   UNL     1      35.122 -21.655 -17.716  0.00  0.00    +0.260 C 
ATOM     15  H   UNL     1      35.955 -20.356 -16.349  0.00  0.00    +0.150 HD
BRANCH  14  18
ATOM     16 CL   UNL     1      35.045 -16.778 -23.632  0.00  0.00    -0.082 Cl
ATOM     17  N   UNL     1      36.482 -20.062 -19.019  0.00  0.00    -0.309 N 
ATOM     18  C   UNL     1      35.308 -20.685 -18.804  0.00  0.00    +0.102 C 
ATOM     19  C   UNL     1      34.383 -20.287 -19.705  0.00  0.00    +0.020 C 
ATOM     20  C   UNL     1      35.029 -19.341 -20.551  0.00  0.00    +0.016 C 
ATOM     21  C   UNL     1      36.344 -19.218 -20.099  0.00  0.00    +0.048 C 
ATOM     22  C   UNL     1      34.619 -18.576 -21.661  0.00  0.00    +0.013 C 
ATOM     23  C   UNL     1      37.275 -18.366 -20.703  0.00  0.00    +0.015 C 
ATOM     24  C   UNL     1      35.538 -17.717 -22.275  0.00  0.00    +0.058 C 
ATOM     25  C   UNL     1      36.844 -17.616 -21.802  0.00  0.00    +0.013 C 
ATOM     26  H   UNL     1      37.304 -20.189 -18.492  0.00  0.00    +0.152 HD
ENDBRANCH  14  18
ENDBRANCH   1  13
BRANCH   1  27
ATOM     27  C   UNL     1      34.445 -23.240 -15.489  0.00  0.00    +0.055 C 
BRANCH  27  29
ATOM     28  F   UNL     1      29.170 -21.949 -14.039  0.00  0.00    -0.204 F 
ATOM     29  C   UNL     1      33.030 -22.894 -15.100  0.00  0.00    -0.020 C 
ATOM     30  C   UNL     1      32.691 -22.823 -13.758  0.00  0.00    -0.002 C 
ATOM     31  C   UNL     1      32.091 -22.653 -16.092  0.00  0.00    -0.002 C 
ATOM     32  C   UNL     1      31.382 -22.504 -13.398  0.00  0.00    +0.029 C 
ATOM     33  C   UNL     1      30.782 -22.332 -15.732  0.00  0.00    +0.029 C 
ATOM     34  C   UNL     1      30.427 -22.258 -14.385  0.00  0.00    +0.140 C 
ENDBRANCH  27  29
ENDBRANCH   1  27
TORSDOF 6
ENDMDL
MODEL 2
REMARK VINA RESULT:     -11.9      2.890      4.801
REMARK  Name = 444746
REMARK  6 active torsions:
REMARK  status: ('A' for Active; 'I' for Inactive)
REMARK    1  A    between atoms: C_1  and  C_9
REMARK    2  A    between atoms: C_1  and  N_13
REMARK    3  A    between atoms: C_1  and  C_27
REMARK    4  A    between atoms: C_4  and  O_10
REMARK    5  A    between atoms: C_14  and  C_18
REMARK    6  A    between atoms: C_27  and  C_29
REMARK                            x       y       z     vdW  Elec       q    Type
REMARK                         _______ _______ _______ _____ _____    ______ ____
ROOT
ATOM      1  C   UNL     1      34.042 -22.718 -16.257  0.00  0.00    +0.153 C 
ENDROOT
BRANCH   1   9
ATOM      2  O   UNL     1      31.968 -21.772 -16.904  0.00  0.00    -0.273 OA
ATOM      3  N   UNL     1      31.885 -23.448 -15.298  0.00  0.00    -0.278 N 
ATOM      4  C   UNL     1      30.601 -24.247 -12.832  0.00  0.00    +0.114 C 
ATOM      5  C   UNL     1      29.970 -23.213 -13.767  0.00  0.00    +0.051 C 
ATOM      6  C   UNL     1      32.123 -24.250 -12.979  0.00  0.00    +0.051 C 
ATOM      7  C   UNL     1      30.423 -23.424 -15.208  0.00  0.00    +0.096 C 
ATOM      8  C   UNL     1      32.540 -24.441 -14.434  0.00  0.00    +0.096 C 
ATOM      9  C   UNL     1      32.540 -22.598 -16.189  0.00  0.00    +0.244 C 
BRANCH   4  10
ATOM     10  O   UNL     1      30.271 -23.942 -11.484  0.00  0.00    -0.384 OA
ATOM     11  H   UNL     1      30.537 -23.030 -11.284  0.00  0.00    +0.210 HD
ENDBRANCH   4  10
ENDBRANCH   1   9
BRANCH   1  13
ATOM     12  O   UNL     1      34.191 -23.060 -19.052  0.00  0.00    -0.269 OA
ATOM     13  N   UNL     1      34.415 -21.710 -17.206  0.00  0.00    -0.294 N 
ATOM     14  C   UNL     1      34.467 -21.955 -18.583  0.00  0.00    +0.260 C 
ATOM     15  H   UNL     1      34.645 -20.811 -16.877  0.00  0.00    +0.150 HD
BRANCH  14  18
ATOM     16 CL   UNL     1      35.340 -15.958 -23.280  0.00  0.00    -0.082 Cl
ATOM     17  N   UNL     1      36.099 -20.350 -19.502  0.00  0.00    -0.309 N 
ATOM     18  C   UNL     1      34.836 -20.813 -19.430  0.00  0.00    +0.102 C 
ATOM     19  C   UNL     1      34.015 -20.089 -20.222  0.00  0.00    +0.020 C 
ATOM     20  C   UNL     1      34.826 -19.096 -20.838  0.00  0.00    +0.016 C 
ATOM     21  C   UNL     1      36.129 -19.281 -20.370  0.00  0.00    +0.048 C 
ATOM     22  C   UNL     1      34.577 -18.053 -21.753  0.00  0.00    +0.013 C 
ATOM     23  C   UNL     1      37.198 -18.473 -20.771  0.00  0.00    +0.015 C 
ATOM     24  C   UNL     1      35.636 -17.235 -22.163  0.00  0.00    +0.058 C 
ATOM     25  C   UNL     1      36.926 -17.445 -21.679  0.00  0.00    +0.013 C 
ATOM     26  H   UNL     1      36.873 -20.715 -19.015  0.00  0.00    +0.152 HD
ENDBRANCH  14  18
ENDBRANCH   1  13
BRANCH   1  27
ATOM     27  C   UNL     1      34.650 -22.502 -14.878  0.00  0.00    +0.055 C 
BRANCH  27  29
ATOM     28  F   UNL     1      39.528 -25.226 -14.262  0.00  0.00    -0.204 F 
ATOM     29  C   UNL     1      35.959 -23.233 -14.713  0.00  0.00    -0.020 C 
ATOM     30  C   UNL     1      35.950 -24.588 -14.422  0.00  0.00    -0.002 C 
ATOM     31  C   UNL     1      37.150 -22.536 -14.855  0.00  0.00    -0.002 C 
ATOM     32  C   UNL     1      37.160 -25.264 -14.267  0.00  0.00    +0.029 C 
ATOM     33  C   UNL     1      38.361 -23.212 -14.702  0.00  0.00    +0.029 C 
ATOM     34  C   UNL     1      38.366 -24.576 -14.408  0.00  0.00    +0.140 C 
ENDBRANCH  27  29
ENDBRANCH   1  27
TORSDOF 6
ENDMDL
MODEL 3
REMARK VINA RESULT:     -11.7      1.244      1.594
REMARK  Name = 444746
REMARK  6 active torsions:
REMARK  status: ('A' for Active; 'I' for Inactive)
REMARK    1  A    between atoms: C_1  and  C_9
REMARK    2  A    between atoms: C_1  and  N_13
REMARK    3  A    between atoms: C_1  and  C_27
REMARK    4  A    between atoms: C_4  and  O_10
REMARK    5  A    between atoms: C_14  and  C_18
REMARK    6  A    between atoms: C_27  and  C_29
REMARK                            x       y       z     vdW  Elec       q    Type
REMARK                         _______ _______ _______ _____ _____    ______ ____
ROOT
ATOM      1  C   UNL     1      34.299 -23.095 -15.070  0.00  0.00    +0.153 C 
ENDROOT
BRANCH   1   9
ATOM      2  O   UNL     1      35.587 -24.997 -15.652  0.00  0.00    -0.273 OA
ATOM      3  N   UNL     1      36.490 -23.590 -14.039  0.00  0.00    -0.278 N 
ATOM      4  C   UNL     1      37.929 -23.549 -11.531  0.00  0.00    +0.114 C 
ATOM      5  C   UNL     1      37.952 -24.773 -12.448  0.00  0.00    +0.051 C 
ATOM      6  C   UNL     1      36.640 -22.751 -11.727  0.00  0.00    +0.051 C 
ATOM      7  C   UNL     1      37.719 -24.376 -13.902  0.00  0.00    +0.096 C 
ATOM      8  C   UNL     1      36.428 -22.390 -13.194  0.00  0.00    +0.096 C 
ATOM      9  C   UNL     1      35.513 -23.983 -14.953  0.00  0.00    +0.244 C 
BRANCH   4  10
ATOM     10  O   UNL     1      38.010 -23.962 -10.173  0.00  0.00    -0.384 OA
ATOM     11  H   UNL     1      37.756 -23.226  -9.595  0.00  0.00    +0.210 HD
ENDBRANCH   4  10
ENDBRANCH   1   9
BRANCH   1  13
ATOM     12  O   UNL     1      33.805 -23.438 -17.824  0.00  0.00    -0.269 OA
ATOM     13  N   UNL     1      34.658 -22.172 -16.107  0.00  0.00    -0.294 N 
ATOM     14  C   UNL     1      34.379 -22.412 -17.457  0.00  0.00    +0.260 C 
ATOM     15  H   UNL     1      35.119 -21.338 -15.861  0.00  0.00    +0.150 HD
BRANCH  14  18
ATOM     16 CL   UNL     1      35.424 -16.884 -22.666  0.00  0.00    -0.082 Cl
ATOM     17  N   UNL     1      36.050 -20.920 -18.489  0.00  0.00    -0.309 N 
ATOM     18  C   UNL     1      34.780 -21.358 -18.398  0.00  0.00    +0.102 C 
ATOM     19  C   UNL     1      33.984 -20.699 -19.268  0.00  0.00    +0.020 C 
ATOM     20  C   UNL     1      34.820 -19.777 -19.958  0.00  0.00    +0.016 C 
ATOM     21  C   UNL     1      36.111 -19.935 -19.450  0.00  0.00    +0.048 C 
ATOM     22  C   UNL     1      34.602 -18.819 -20.968  0.00  0.00    +0.013 C 
ATOM     23  C   UNL     1      37.200 -19.183 -19.904  0.00  0.00    +0.015 C 
ATOM     24  C   UNL     1      35.681 -18.057 -21.431  0.00  0.00    +0.058 C 
ATOM     25  C   UNL     1      36.958 -18.238 -20.906  0.00  0.00    +0.013 C 
ATOM     26  H   UNL     1      36.810 -21.249 -17.956  0.00  0.00    +0.152 HD
ENDBRANCH  14  18
ENDBRANCH   1  13
BRANCH   1  27
ATOM     27  C   UNL     1      33.069 -23.928 -15.404  0.00  0.00    +0.055 C 
BRANCH  27  29
ATOM     28  F   UNL     1      28.291 -21.200 -14.250  0.00  0.00    -0.204 F 
ATOM     29  C   UNL     1      31.786 -23.196 -15.094  0.00  0.00    -0.020 C 
ATOM     30  C   UNL     1      30.992 -22.745 -16.136  0.00  0.00    -0.002 C 
ATOM     31  C   UNL     1      31.425 -22.986 -13.772  0.00  0.00    -0.002 C 
ATOM     32  C   UNL     1      29.807 -22.067 -15.850  0.00  0.00    +0.029 C 
ATOM     33  C   UNL     1      30.239 -22.309 -13.485  0.00  0.00    +0.029 C 
ATOM     34  C   UNL     1      29.431 -21.849 -14.525  0.00  0.00    +0.140 C 
ENDBRANCH  27  29
ENDBRANCH   1  27
TORSDOF 6
ENDMDL
MODEL 4
REMARK VINA RESULT:     -10.7     11.033     15.402
REMARK  Name = 444746
REMARK  6 active torsions:
REMARK  status: ('A' for Active; 'I' for Inactive)
REMARK    1  A    between atoms: C_1  and  C_9
REMARK    2  A    between atoms: C_1  and  N_13
REMARK    3  A    between atoms: C_1  and  C_27
REMARK    4  A    between atoms: C_4  and  O_10
REMARK    5  A    between atoms: C_14  and  C_18
REMARK    6  A    between atoms: C_27  and  C_29
REMARK                            x       y       z     vdW  Elec       q    Type
REMARK                         _______ _______ _______ _____ _____    ______ ____
ROOT
ATOM      1  C   UNL     1      32.881  -9.144 -22.335  0.00  0.00    +0.153 C 
ENDROOT
BRANCH   1   9
ATOM      2  O   UNL     1      31.587  -9.943 -20.518  0.00  0.00    -0.273 OA
ATOM      3  N   UNL     1      32.788  -7.988 -20.153  0.00  0.00    -0.278 N 
ATOM      4  C   UNL     1      32.659  -5.374 -18.922  0.00  0.00    +0.114 C 
ATOM      5  C   UNL     1      31.727  -6.509 -18.494  0.00  0.00    +0.051 C 
ATOM      6  C   UNL     1      33.095  -5.553 -20.376  0.00  0.00    +0.051 C 
ATOM      7  C   UNL     1      32.361  -7.871 -18.757  0.00  0.00    +0.096 C 
ATOM      8  C   UNL     1      33.704  -6.933 -20.608  0.00  0.00    +0.096 C 
ATOM      9  C   UNL     1      32.358  -9.069 -20.923  0.00  0.00    +0.244 C 
BRANCH   4  10
ATOM     10  O   UNL     1      31.990  -4.126 -18.794  0.00  0.00    -0.384 OA
ATOM     11  H   UNL     1      32.644  -3.411 -18.756  0.00  0.00    +0.210 HD
ENDBRANCH   4  10
ENDBRANCH   1   9
BRANCH   1  13
ATOM     12  O   UNL     1      34.758 -10.271 -24.111  0.00  0.00    -0.269 OA
ATOM     13  N   UNL     1      33.109 -10.545 -22.534  0.00  0.00    -0.294 N 
ATOM     14  C   UNL     1      34.061 -11.031 -23.437  0.00  0.00    +0.260 C 
ATOM     15  H   UNL     1      32.575 -11.191 -22.018  0.00  0.00    +0.150 HD
BRANCH  14  18
ATOM     16 CL   UNL     1      35.273 -18.577 -22.823  0.00  0.00    -0.082 Cl
ATOM     17  N   UNL     1      33.748 -13.209 -24.552  0.00  0.00    -0.309 N 
ATOM     18  C   UNL     1      34.201 -12.492 -23.506  0.00  0.00    +0.102 C 
ATOM     19  C   UNL     1      34.770 -13.298 -22.584  0.00  0.00    +0.020 C 
ATOM     20  C   UNL     1      34.667 -14.624 -23.092  0.00  0.00    +0.016 C 
ATOM     21  C   UNL     1      34.022 -14.540 -24.328  0.00  0.00    +0.048 C 
ATOM     22  C   UNL     1      35.061 -15.891 -22.618  0.00  0.00    +0.013 C 
ATOM     23  C   UNL     1      33.750 -15.663 -25.117  0.00  0.00    +0.015 C 
ATOM     24  C   UNL     1      34.795 -17.024 -23.395  0.00  0.00    +0.058 C 
ATOM     25  C   UNL     1      34.150 -16.909 -24.624  0.00  0.00    +0.013 C 
ATOM     26  H   UNL     1      33.297 -12.843 -25.347  0.00  0.00    +0.152 HD
ENDBRANCH  14  18
ENDBRANCH   1  13
BRANCH   1  27
ATOM     27  C   UNL     1      31.864  -8.555 -23.304  0.00  0.00    +0.055 C 
BRANCH  27  29
ATOM     28  F   UNL     1      33.429  -3.504 -25.209  0.00  0.00    -0.204 F 
ATOM     29  C   UNL     1      32.283  -7.199 -23.815  0.00  0.00    -0.020 C 
ATOM     30  C   UNL     1      31.349  -6.179 -23.884  0.00  0.00    -0.002 C 
ATOM     31  C   UNL     1      33.598  -6.998 -24.208  0.00  0.00    -0.002 C 
ATOM     32  C   UNL     1      31.736  -4.926 -24.358  0.00  0.00    +0.029 C 
ATOM     33  C   UNL     1      33.987  -5.744 -24.681  0.00  0.00    +0.029 C 
ATOM     34  C   UNL     1      33.055  -4.708 -24.757  0.00  0.00    +0.140 C 
ENDBRANCH  27  29
ENDBRANCH   1  27
TORSDOF 6
ENDMDL
MODEL 5
REMARK VINA RESULT:     -10.6      3.032      5.820
REMARK  Name = 444746
REMARK  6 active torsions:
REMARK  status: ('A' for Active; 'I' for Inactive)
REMARK    1  A    between atoms: C_1  and  C_9
REMARK    2  A    between atoms: C_1  and  N_13
REMARK    3  A    between atoms: C_1  and  C_27
REMARK    4  A    between atoms: C_4  and  O_10
REMARK    5  A    between atoms: C_14  and  C_18
REMARK    6  A    between atoms: C_27  and  C_29
REMARK                            x       y       z     vdW  Elec       q    Type
REMARK                         _______ _______ _______ _____ _____    ______ ____
ROOT
ATOM      1  C   UNL     1      33.460 -23.249 -14.057  0.00  0.00    +0.153 C 
ENDROOT
BRANCH   1   9
ATOM      2  O   UNL     1      32.018 -22.423 -12.369  0.00  0.00    -0.273 OA
ATOM      3  N   UNL     1      31.203 -22.370 -14.543  0.00  0.00    -0.278 N 
ATOM      4  C   UNL     1      28.842 -22.818 -16.154  0.00  0.00    +0.114 C 
ATOM      5  C   UNL     1      28.748 -22.557 -14.649  0.00  0.00    +0.051 C 
ATOM      6  C   UNL     1      30.186 -23.454 -16.509  0.00  0.00    +0.051 C 
ATOM      7  C   UNL     1      29.938 -21.739 -14.157  0.00  0.00    +0.096 C 
ATOM      8  C   UNL     1      31.351 -22.622 -15.983  0.00  0.00    +0.096 C 
ATOM      9  C   UNL     1      32.166 -22.643 -13.573  0.00  0.00    +0.244 C 
BRANCH   4  10
ATOM     10  O   UNL     1      27.798 -23.694 -16.557  0.00  0.00    -0.384 OA
ATOM     11  H   UNL     1      26.983 -23.466 -16.083  0.00  0.00    +0.210 HD
ENDBRANCH   4  10
ENDBRANCH   1   9
BRANCH   1  13
ATOM     12  O   UNL     1      34.440 -24.131 -16.549  0.00  0.00    -0.269 OA
ATOM     13  N   UNL     1      33.834 -22.407 -15.156  0.00  0.00    -0.294 N 
ATOM     14  C   UNL     1      34.314 -22.919 -16.367  0.00  0.00    +0.260 C 
ATOM     15  H   UNL     1      33.751 -21.431 -15.056  0.00  0.00    +0.150 HD
BRANCH  14  18
ATOM     16 CL   UNL     1      36.974 -17.867 -21.484  0.00  0.00    -0.082 Cl
ATOM     17  N   UNL     1      33.676 -21.404 -18.205  0.00  0.00    -0.309 N 
ATOM     18  C   UNL     1      34.625 -21.932 -17.409  0.00  0.00    +0.102 C 
ATOM     19  C   UNL     1      35.841 -21.429 -17.716  0.00  0.00    +0.020 C 
ATOM     20  C   UNL     1      35.638 -20.515 -18.787  0.00  0.00    +0.016 C 
ATOM     21  C   UNL     1      34.271 -20.518 -19.076  0.00  0.00    +0.048 C 
ATOM     22  C   UNL     1      36.488 -19.683 -19.543  0.00  0.00    +0.013 C 
ATOM     23  C   UNL     1      33.710 -19.727 -20.084  0.00  0.00    +0.015 C 
ATOM     24  C   UNL     1      35.942 -18.887 -20.556  0.00  0.00    +0.058 C 
ATOM     25  C   UNL     1      34.574 -18.911 -20.820  0.00  0.00    +0.013 C 
ATOM     26  H   UNL     1      32.715 -21.616 -18.172  0.00  0.00    +0.152 HD
ENDBRANCH  14  18
ENDBRANCH   1  13
BRANCH   1  27
ATOM     27  C   UNL     1      34.487 -23.263 -12.933  0.00  0.00    +0.055 C 
BRANCH  27  29
ATOM     28  F   UNL     1      39.529 -25.022 -14.689  0.00  0.00    -0.204 F 
ATOM     29  C   UNL     1      35.840 -23.735 -13.404  0.00  0.00    -0.020 C 
ATOM     30  C   UNL     1      36.025 -25.074 -13.709  0.00  0.00    -0.002 C 
ATOM     31  C   UNL     1      36.876 -22.821 -13.523  0.00  0.00    -0.002 C 
ATOM     32  C   UNL     1      37.276 -25.511 -14.144  0.00  0.00    +0.029 C 
ATOM     33  C   UNL     1      38.128 -23.257 -13.959  0.00  0.00    +0.029 C 
ATOM     34  C   UNL     1      38.328 -24.603 -14.269  0.00  0.00    +0.140 C 
ENDBRANCH  27  29
ENDBRANCH   1  27
TORSDOF 6
ENDMDL
MODEL 6
REMARK VINA RESULT:     -10.4     11.058     15.329
REMARK  Name = 444746
REMARK  6 active torsions:
REMARK  status: ('A' for Active; 'I' for Inactive)
REMARK    1  A    between atoms: C_1  and  C_9
REMARK    2  A    between atoms: C_1  and  N_13
REMARK    3  A    between atoms: C_1  and  C_27
REMARK    4  A    between atoms: C_4  and  O_10
REMARK    5  A    between atoms: C_14  and  C_18
REMARK    6  A    between atoms: C_27  and  C_29
REMARK                            x       y       z     vdW  Elec       q    Type
REMARK                         _______ _______ _______ _____ _____    ______ ____
ROOT
ATOM      1  C   UNL     1      33.247  -7.775 -22.658  0.00  0.00    +0.153 C 
ENDROOT
BRANCH   1   9
ATOM      2  O   UNL     1      33.762  -6.728 -20.596  0.00  0.00    -0.273 OA
ATOM      3  N   UNL     1      32.229  -8.471 -20.517  0.00  0.00    -0.278 N 
ATOM      4  C   UNL     1      31.417 -10.787 -18.985  0.00  0.00    +0.114 C 
ATOM      5  C   UNL     1      32.247  -9.664 -18.361  0.00  0.00    +0.051 C 
ATOM      6  C   UNL     1      31.668 -10.871 -20.491  0.00  0.00    +0.051 C 
ATOM      7  C   UNL     1      32.005  -8.338 -19.075  0.00  0.00    +0.096 C 
ATOM      8  C   UNL     1      31.438  -9.524 -21.169  0.00  0.00    +0.096 C 
ATOM      9  C   UNL     1      33.107  -7.604 -21.166  0.00  0.00    +0.244 C 
BRANCH   4  10
ATOM     10  O   UNL     1      31.766 -12.031 -18.392  0.00  0.00    -0.384 OA
ATOM     11  H   UNL     1      32.442 -12.469 -18.933  0.00  0.00    +0.210 HD
ENDBRANCH   4  10
ENDBRANCH   1   9
BRANCH   1  13
ATOM     12  O   UNL     1      34.752  -9.084 -24.650  0.00  0.00    -0.269 OA
ATOM     13  N   UNL     1      33.361  -9.194 -22.824  0.00  0.00    -0.294 N 
ATOM     14  C   UNL     1      34.130  -9.773 -23.840  0.00  0.00    +0.260 C 
ATOM     15  H   UNL     1      32.881  -9.785 -22.200  0.00  0.00    +0.150 HD
BRANCH  14  18
ATOM     16 CL   UNL     1      33.894 -17.359 -24.930  0.00  0.00    -0.082 Cl
ATOM     17  N   UNL     1      34.694 -11.959 -22.847  0.00  0.00    -0.309 N 
ATOM     18  C   UNL     1      34.175 -11.241 -23.861  0.00  0.00    +0.102 C 
ATOM     19  C   UNL     1      33.730 -12.054 -24.844  0.00  0.00    +0.020 C 
ATOM     20  C   UNL     1      33.990 -13.385 -24.412  0.00  0.00    +0.016 C 
ATOM     21  C   UNL     1      34.595 -13.298 -23.157  0.00  0.00    +0.048 C 
ATOM     22  C   UNL     1      33.769 -14.660 -24.971  0.00  0.00    +0.013 C 
ATOM     23  C   UNL     1      34.991 -14.425 -22.428  0.00  0.00    +0.015 C 
ATOM     24  C   UNL     1      34.161 -15.797 -24.255  0.00  0.00    +0.058 C 
ATOM     25  C   UNL     1      34.761 -15.678 -23.004  0.00  0.00    +0.013 C 
ATOM     26  H   UNL     1      35.080 -11.590 -22.020  0.00  0.00    +0.152 HD
ENDBRANCH  14  18
ENDBRANCH   1  13
BRANCH   1  27
ATOM     27  C   UNL     1      32.039  -7.181 -23.370  0.00  0.00    +0.055 C 
BRANCH  27  29
ATOM     28  F   UNL     1      32.826  -1.786 -24.737  0.00  0.00    -0.204 F 
ATOM     29  C   UNL     1      32.250  -5.733 -23.737  0.00  0.00    -0.020 C 
ATOM     30  C   UNL     1      31.879  -4.743 -22.841  0.00  0.00    -0.002 C 
ATOM     31  C   UNL     1      32.812  -5.417 -24.965  0.00  0.00    -0.002 C 
ATOM     32  C   UNL     1      32.073  -3.404 -23.180  0.00  0.00    +0.029 C 
ATOM     33  C   UNL     1      33.007  -4.078 -25.304  0.00  0.00    +0.029 C 
ATOM     34  C   UNL     1      32.637  -3.072 -24.412  0.00  0.00    +0.140 C 
ENDBRANCH  27  29
ENDBRANCH   1  27
TORSDOF 6
ENDMDL
MODEL 7
REMARK VINA RESULT:     -10.3      4.033      7.758
REMARK  Name = 444746
REMARK  6 active torsions:
REMARK  status: ('A' for Active; 'I' for Inactive)
REMARK    1  A    between atoms: C_1  and  C_9
REMARK    2  A    between atoms: C_1  and  N_13
REMARK    3  A    between atoms: C_1  and  C_27
REMARK    4  A    between atoms: C_4  and  O_10
REMARK    5  A    between atoms: C_14  and  C_18
REMARK    6  A    between atoms: C_27  and  C_29
REMARK                            x       y       z     vdW  Elec       q    Type
REMARK                         _______ _______ _______ _____ _____    ______ ____
ROOT
ATOM      1  C   UNL     1      35.057 -22.881 -14.063  0.00  0.00    +0.153 C 
ENDROOT
BRANCH   1   9
ATOM      2  O   UNL     1      36.894 -21.590 -14.822  0.00  0.00    -0.273 OA
ATOM      3  N   UNL     1      35.363 -22.260 -16.435  0.00  0.00    -0.278 N 
ATOM      4  C   UNL     1      33.946 -21.389 -18.801  0.00  0.00    +0.114 C 
ATOM      5  C   UNL     1      35.226 -20.694 -18.332  0.00  0.00    +0.051 C 
ATOM      6  C   UNL     1      33.215 -22.029 -17.621  0.00  0.00    +0.051 C 
ATOM      7  C   UNL     1      36.111 -21.649 -17.537  0.00  0.00    +0.096 C 
ATOM      8  C   UNL     1      34.135 -22.960 -16.837  0.00  0.00    +0.096 C 
ATOM      9  C   UNL     1      35.860 -22.185 -15.134  0.00  0.00    +0.244 C 
BRANCH   4  10
ATOM     10  O   UNL     1      33.082 -20.442 -19.417  0.00  0.00    -0.384 OA
ATOM     11  H   UNL     1      32.159 -20.691 -19.250  0.00  0.00    +0.210 HD
ENDBRANCH   4  10
ENDBRANCH   1   9
BRANCH   1  13
ATOM     12  O   UNL     1      32.771 -23.892 -12.759  0.00  0.00    -0.269 OA
ATOM     13  N   UNL     1      33.700 -22.694 -14.486  0.00  0.00    -0.294 N 
ATOM     14  C   UNL     1      32.613 -23.229 -13.785  0.00  0.00    +0.260 C 
ATOM     15  H   UNL     1      33.525 -22.171 -15.301  0.00  0.00    +0.150 HD
BRANCH  14  18
ATOM     16 CL   UNL     1      25.569 -20.945 -15.772  0.00  0.00    -0.082 Cl
ATOM     17  N   UNL     1      30.806 -23.514 -15.439  0.00  0.00    -0.309 N 
ATOM     18  C   UNL     1      31.282 -22.924 -14.326  0.00  0.00    +0.102 C 
ATOM     19  C   UNL     1      30.379 -22.055 -13.821  0.00  0.00    +0.020 C 
ATOM     20  C   UNL     1      29.249 -22.104 -14.686  0.00  0.00    +0.016 C 
ATOM     21  C   UNL     1      29.543 -23.026 -15.692  0.00  0.00    +0.048 C 
ATOM     22  C   UNL     1      28.001 -21.450 -14.709  0.00  0.00    +0.013 C 
ATOM     23  C   UNL     1      28.648 -23.329 -16.724  0.00  0.00    +0.015 C 
ATOM     24  C   UNL     1      27.096 -21.741 -15.736  0.00  0.00    +0.058 C 
ATOM     25  C   UNL     1      27.417 -22.667 -16.726  0.00  0.00    +0.013 C 
ATOM     26  H   UNL     1      31.281 -24.183 -15.982  0.00  0.00    +0.152 HD
ENDBRANCH  14  18
ENDBRANCH   1  13
BRANCH   1  27
ATOM     27  C   UNL     1      35.463 -24.346 -13.970  0.00  0.00    +0.055 C 
BRANCH  27  29
ATOM     28  F   UNL     1      40.980 -24.961 -13.088  0.00  0.00    -0.204 F 
ATOM     29  C   UNL     1      36.944 -24.511 -13.733  0.00  0.00    -0.020 C 
ATOM     30  C   UNL     1      37.521 -23.941 -12.610  0.00  0.00    -0.002 C 
ATOM     31  C   UNL     1      37.702 -25.230 -14.645  0.00  0.00    -0.002 C 
ATOM     32  C   UNL     1      38.890 -24.093 -12.391  0.00  0.00    +0.029 C 
ATOM     33  C   UNL     1      39.072 -25.383 -14.426  0.00  0.00    +0.029 C 
ATOM     34  C   UNL     1      39.666 -24.814 -13.299  0.00  0.00    +0.140 C 
ENDBRANCH  27  29
ENDBRANCH   1  27
TORSDOF 6
ENDMDL
MODEL 8
REMARK VINA RESULT:     -10.3      3.193      5.826
REMARK  Name = 444746
REMARK  6 active torsions:
REMARK  status: ('A' for Active; 'I' for Inactive)
REMARK    1  A    between atoms: C_1  and  C_9
REMARK    2  A    between atoms: C_1  and  N_13
REMARK    3  A    between atoms: C_1  and  C_27
REMARK    4  A    between atoms: C_4  and  O_10
REMARK    5  A    between atoms: C_14  and  C_18
REMARK    6  A    between atoms: C_27  and  C_29
REMARK                            x       y       z     vdW  Elec       q    Type
REMARK                         _______ _______ _______ _____ _____    ______ ____
ROOT
ATOM      1  C   UNL     1      35.154 -23.577 -12.959  0.00  0.00    +0.153 C 
ENDROOT
BRANCH   1   9
ATOM      2  O   UNL     1      34.007 -22.652 -11.103  0.00  0.00    -0.273 OA
ATOM      3  N   UNL     1      32.728 -23.109 -12.987  0.00  0.00    -0.278 N 
ATOM      4  C   UNL     1      30.179 -24.154 -13.870  0.00  0.00    +0.114 C 
ATOM      5  C   UNL     1      30.383 -23.635 -12.445  0.00  0.00    +0.051 C 
ATOM      6  C   UNL     1      31.498 -24.662 -14.453  0.00  0.00    +0.051 C 
ATOM      7  C   UNL     1      31.493 -22.591 -12.393  0.00  0.00    +0.096 C 
ATOM      8  C   UNL     1      32.590 -23.601 -14.364  0.00  0.00    +0.096 C 
ATOM      9  C   UNL     1      33.917 -23.069 -12.260  0.00  0.00    +0.244 C 
BRANCH   4  10
ATOM     10  O   UNL     1      29.239 -25.221 -13.865  0.00  0.00    -0.384 OA
ATOM     11  H   UNL     1      28.748 -25.223 -14.702  0.00  0.00    +0.210 HD
ENDBRANCH   4  10
ENDBRANCH   1   9
BRANCH   1  13
ATOM     12  O   UNL     1      35.702 -24.509 -15.562  0.00  0.00    -0.269 OA
ATOM     13  N   UNL     1      35.228 -22.768 -14.140  0.00  0.00    -0.294 N 
ATOM     14  C   UNL     1      35.506 -23.303 -15.402  0.00  0.00    +0.260 C 
ATOM     15  H   UNL     1      35.079 -21.798 -14.060  0.00  0.00    +0.150 HD
BRANCH  14  18
ATOM     16 CL   UNL     1      36.618 -18.188 -21.004  0.00  0.00    -0.082 Cl
ATOM     17  N   UNL     1      34.420 -22.097 -17.260  0.00  0.00    -0.309 N 
ATOM     18  C   UNL     1      35.517 -22.351 -16.521  0.00  0.00    +0.102 C 
ATOM     19  C   UNL     1      36.568 -21.625 -16.959  0.00  0.00    +0.020 C 
ATOM     20  C   UNL     1      36.093 -20.855 -18.059  0.00  0.00    +0.016 C 
ATOM     21  C   UNL     1      34.743 -21.171 -18.226  0.00  0.00    +0.048 C 
ATOM     22  C   UNL     1      36.683 -19.918 -18.930  0.00  0.00    +0.013 C 
ATOM     23  C   UNL     1      33.950 -20.594 -19.225  0.00  0.00    +0.015 C 
ATOM     24  C   UNL     1      35.904 -19.334 -19.935  0.00  0.00    +0.058 C 
ATOM     25  C   UNL     1      34.559 -19.668 -20.077  0.00  0.00    +0.013 C 
ATOM     26  H   UNL     1      33.534 -22.506 -17.131  0.00  0.00    +0.152 HD
ENDBRANCH  14  18
ENDBRANCH   1  13
BRANCH   1  27
ATOM     27  C   UNL     1      36.368 -23.431 -12.051  0.00  0.00    +0.055 C 
BRANCH  27  29
ATOM     28  F   UNL     1      40.850 -26.170 -14.053  0.00  0.00    -0.204 F 
ATOM     29  C   UNL     1      37.571 -24.166 -12.588  0.00  0.00    -0.020 C 
ATOM     30  C   UNL     1      38.809 -23.545 -12.575  0.00  0.00    -0.002 C 
ATOM     31  C   UNL     1      37.416 -25.451 -13.086  0.00  0.00    -0.002 C 
ATOM     32  C   UNL     1      39.921 -24.224 -13.073  0.00  0.00    +0.029 C 
ATOM     33  C   UNL     1      38.528 -26.131 -13.583  0.00  0.00    +0.029 C 
ATOM     34  C   UNL     1      39.781 -25.517 -13.577  0.00  0.00    +0.140 C 
ENDBRANCH  27  29
ENDBRANCH   1  27
TORSDOF 6
ENDMDL
MODEL 9
REMARK VINA RESULT:      -9.4      9.898     13.417
REMARK  Name = 444746
REMARK  6 active torsions:
REMARK  status: ('A' for Active; 'I' for Inactive)
REMARK    1  A    between atoms: C_1  and  C_9
REMARK    2  A    between atoms: C_1  and  N_13
REMARK    3  A    between atoms: C_1  and  C_27
REMARK    4  A    between atoms: C_4  and  O_10
REMARK    5  A    between atoms: C_14  and  C_18
REMARK    6  A    between atoms: C_27  and  C_29
REMARK                            x       y       z     vdW  Elec       q    Type
REMARK                         _______ _______ _______ _____ _____    ______ ____
ROOT
ATOM      1  C   UNL     1      33.490 -11.301 -22.339  0.00  0.00    +0.153 C 
ENDROOT
BRANCH   1   9
ATOM      2  O   UNL     1      33.638 -12.501 -24.376  0.00  0.00    -0.273 OA
ATOM      3  N   UNL     1      34.755 -13.412 -22.555  0.00  0.00    -0.278 N 
ATOM      4  C   UNL     1      35.360 -15.897 -21.202  0.00  0.00    +0.114 C 
ATOM      5  C   UNL     1      34.929 -15.867 -22.670  0.00  0.00    +0.051 C 
ATOM      6  C   UNL     1      34.795 -14.693 -20.449  0.00  0.00    +0.051 C 
ATOM      7  C   UNL     1      35.292 -14.538 -23.324  0.00  0.00    +0.096 C 
ATOM      8  C   UNL     1      35.158 -13.383 -21.142  0.00  0.00    +0.096 C 
ATOM      9  C   UNL     1      33.964 -12.454 -23.188  0.00  0.00    +0.244 C 
BRANCH   4  10
ATOM     10  O   UNL     1      34.887 -17.087 -20.585  0.00  0.00    -0.384 OA
ATOM     11  H   UNL     1      34.056 -17.361 -21.005  0.00  0.00    +0.210 HD
ENDBRANCH   4  10
ENDBRANCH   1   9
BRANCH   1  13
ATOM     12  O   UNL     1      33.491  -8.618 -21.473  0.00  0.00    -0.269 OA
ATOM     13  N   UNL     1      33.734 -10.154 -23.164  0.00  0.00    -0.294 N 
ATOM     14  C   UNL     1      33.718  -8.848 -22.661  0.00  0.00    +0.260 C 
ATOM     15  H   UNL     1      33.920 -10.290 -24.121  0.00  0.00    +0.150 HD
BRANCH  14  18
ATOM     16 CL   UNL     1      36.208  -3.820 -27.887  0.00  0.00    -0.082 Cl
ATOM     17  N   UNL     1      33.179  -6.750 -23.841  0.00  0.00    -0.309 N 
ATOM     18  C   UNL     1      34.018  -7.781 -23.624  0.00  0.00    +0.102 C 
ATOM     19  C   UNL     1      35.119  -7.672 -24.400  0.00  0.00    +0.020 C 
ATOM     20  C   UNL     1      34.956  -6.480 -25.162  0.00  0.00    +0.016 C 
ATOM     21  C   UNL     1      33.731  -5.921 -24.792  0.00  0.00    +0.048 C 
ATOM     22  C   UNL     1      35.736  -5.821 -26.133  0.00  0.00    +0.013 C 
ATOM     23  C   UNL     1      33.244  -4.732 -25.346  0.00  0.00    +0.015 C 
ATOM     24  C   UNL     1      35.261  -4.632 -26.698  0.00  0.00    +0.058 C 
ATOM     25  C   UNL     1      34.035  -4.098 -26.308  0.00  0.00    +0.013 C 
ATOM     26  H   UNL     1      32.313  -6.612 -23.393  0.00  0.00    +0.152 HD
ENDBRANCH  14  18
ENDBRANCH   1  13
BRANCH   1  27
ATOM     27  C   UNL     1      32.021 -11.482 -21.979  0.00  0.00    +0.055 C 
BRANCH  27  29
ATOM     28  F   UNL     1      31.079 -10.725 -16.489  0.00  0.00    -0.204 F 
ATOM     29  C   UNL     1      31.768 -11.279 -20.506  0.00  0.00    -0.020 C 
ATOM     30  C   UNL     1      31.115 -10.134 -20.079  0.00  0.00    -0.002 C 
ATOM     31  C   UNL     1      32.194 -12.242 -19.603  0.00  0.00    -0.002 C 
ATOM     32  C   UNL     1      30.883  -9.945 -18.717  0.00  0.00    +0.029 C 
ATOM     33  C   UNL     1      31.961 -12.054 -18.240  0.00  0.00    +0.029 C 
ATOM     34  C   UNL     1      31.305 -10.905 -17.797  0.00  0.00    +0.140 C 
ENDBRANCH  27  29
ENDBRANCH   1  27
TORSDOF 6
ENDMDL
