MODEL 1
REMARK VINA RESULT:     -13.0      0.000      0.000
REMARK  Name = 447731
REMARK  4 active torsions:
REMARK  status: ('A' for Active; 'I' for Inactive)
REMARK    1  A    between atoms: N_2  and  C_13
REMARK    2  A    between atoms: C_3  and  C_19
REMARK    3  A    between atoms: C_6  and  C_17
REMARK    4  A    between atoms: C_27  and  C_31
REMARK                            x       y       z     vdW  Elec       q    Type
REMARK                         _______ _______ _______ _____ _____    ______ ____
ROOT
ATOM      1  O   UNL     1      33.934 -23.200 -17.399  0.00  0.00    -0.270 OA
ATOM      2  N   UNL     1      35.398 -21.790 -16.216  0.00  0.00    -0.280 N 
ATOM      3  C   UNL     1      34.570 -22.157 -17.284  0.00  0.00    +0.249 C 
ATOM      4  H   UNL     1      35.834 -20.910 -16.289  0.00  0.00    +0.155 HD
ENDROOT
BRANCH   2  13
ATOM      5  N   UNL     1      37.439 -25.911 -11.700  0.00  0.00    +0.387 N 
ATOM      6  C   UNL     1      38.337 -24.992 -13.810  0.00  0.00    +0.001 C 
ATOM      7  C   UNL     1      37.126 -24.071 -13.859  0.00  0.00    -0.029 C 
ATOM      8  C   UNL     1      38.653 -25.454 -12.374  0.00  0.00    -0.077 C 
ATOM      9  C   UNL     1      36.247 -24.006 -12.758  0.00  0.00    -0.048 C 
ATOM     10  C   UNL     1      36.527 -24.783 -11.496  0.00  0.00    -0.055 C 
ATOM     11  C   UNL     1      36.814 -23.337 -15.015  0.00  0.00    +0.010 C 
ATOM     12  C   UNL     1      35.121 -23.170 -12.810  0.00  0.00    -0.005 C 
ATOM     13  C   UNL     1      35.683 -22.519 -15.060  0.00  0.00    +0.050 C 
ATOM     14  C   UNL     1      34.841 -22.432 -13.957  0.00  0.00    +0.014 C 
ATOM     15  H   UNL     1      37.686 -26.314 -10.795  0.00  0.00    -0.084 HD
ATOM     16  H   UNL     1      36.979 -26.615 -12.277  0.00  0.00    -0.084 HD
BRANCH   6  17
ATOM     17  C   UNL     1      39.603 -24.375 -14.414  0.00  0.00    +0.002 C 
ATOM     18  C   UNL     1      40.790 -25.301 -14.258  0.00  0.00    +0.000 C 
ENDBRANCH   6  17
ENDBRANCH   2  13
BRANCH   3  19
ATOM     19  C   UNL     1      34.489 -21.172 -18.395  0.00  0.00    +0.054 C 
ATOM     20  C   UNL     1      35.577 -19.585 -19.838  0.00  0.00    +0.000 C 
ATOM     21  C   UNL     1      34.335 -19.333 -20.469  0.00  0.00    +0.000 C 
ATOM     22  C   UNL     1      35.637 -20.519 -18.790  0.00  0.00    +0.005 C 
ATOM     23  C   UNL     1      33.269 -20.945 -18.992  0.00  0.00    +0.005 C 
ATOM     24  C   UNL     1      33.191 -20.021 -20.033  0.00  0.00    +0.000 C 
ATOM     25  C   UNL     1      34.274 -18.399 -21.517  0.00  0.00    +0.003 C 
ATOM     26  C   UNL     1      36.720 -18.897 -20.273  0.00  0.00    +0.000 C 
ATOM     27  C   UNL     1      35.421 -17.724 -21.936  0.00  0.00    +0.031 C 
ATOM     28  C   UNL     1      36.642 -17.973 -21.315  0.00  0.00    +0.003 C 
BRANCH  27  31
ATOM     29  N   UNL     1      34.655 -17.051 -24.200  0.00  0.00    -0.343 N 
ATOM     30  N   UNL     1      35.929 -15.585 -22.903  0.00  0.00    -0.285 NA
ATOM     31  C   UNL     1      35.341 -16.760 -23.022  0.00  0.00    +0.117 C 
ATOM     32  H   UNL     1      34.613 -16.384 -24.923  0.00  0.00    +0.144 HD
ATOM     33  H   UNL     1      34.212 -17.924 -24.309  0.00  0.00    +0.144 HD
ATOM     34  H   UNL     1      35.876 -14.931 -23.637  0.00  0.00    +0.188 HD
ENDBRANCH  27  31
ENDBRANCH   3  19
TORSDOF 4
ENDMDL
MODEL 2
REMARK VINA RESULT:     -11.9      1.224      2.652
REMARK  Name = 447731
REMARK  4 active torsions:
REMARK  status: ('A' for Active; 'I' for Inactive)
REMARK    1  A    between atoms: N_2  and  C_13
REMARK    2  A    between atoms: C_3  and  C_19
REMARK    3  A    between atoms: C_6  and  C_17
REMARK    4  A    between atoms: C_27  and  C_31
REMARK                            x       y       z     vdW  Elec       q    Type
REMARK                         _______ _______ _______ _____ _____    ______ ____
ROOT
ATOM      1  O   UNL     1      34.448 -22.724 -17.547  0.00  0.00    -0.270 OA
ATOM      2  N   UNL     1      36.145 -21.309 -16.740  0.00  0.00    -0.280 N 
ATOM      3  C   UNL     1      35.133 -21.708 -17.622  0.00  0.00    +0.249 C 
ATOM      4  H   UNL     1      36.594 -20.459 -16.954  0.00  0.00    +0.155 HD
ENDROOT
BRANCH   2  13
ATOM      5  N   UNL     1      37.114 -23.857 -10.899  0.00  0.00    +0.387 N 
ATOM      6  C   UNL     1      35.154 -23.275 -12.287  0.00  0.00    +0.001 C 
ATOM      7  C   UNL     1      36.121 -22.956 -13.418  0.00  0.00    -0.029 C 
ATOM      8  C   UNL     1      35.761 -24.265 -11.272  0.00  0.00    -0.077 C 
ATOM      9  C   UNL     1      37.490 -23.263 -13.282  0.00  0.00    -0.048 C 
ATOM     10  C   UNL     1      38.006 -23.973 -12.055  0.00  0.00    -0.055 C 
ATOM     11  C   UNL     1      35.693 -22.284 -14.575  0.00  0.00    +0.010 C 
ATOM     12  C   UNL     1      38.383 -22.952 -14.318  0.00  0.00    -0.005 C 
ATOM     13  C   UNL     1      36.595 -21.967 -15.594  0.00  0.00    +0.050 C 
ATOM     14  C   UNL     1      37.937 -22.307 -15.468  0.00  0.00    +0.014 C 
ATOM     15  H   UNL     1      37.454 -24.458 -10.148  0.00  0.00    -0.084 HD
ATOM     16  H   UNL     1      37.097 -22.887 -10.584  0.00  0.00    -0.084 HD
BRANCH   6  17
ATOM     17  C   UNL     1      33.808 -23.831 -12.766  0.00  0.00    +0.002 C 
ATOM     18  C   UNL     1      32.750 -22.750 -12.794  0.00  0.00    +0.000 C 
ENDBRANCH   6  17
ENDBRANCH   2  13
BRANCH   3  19
ATOM     19  C   UNL     1      34.900 -20.802 -18.777  0.00  0.00    +0.054 C 
ATOM     20  C   UNL     1      35.762 -19.232 -20.383  0.00  0.00    +0.000 C 
ATOM     21  C   UNL     1      34.464 -19.110 -20.935  0.00  0.00    +0.000 C 
ATOM     22  C   UNL     1      35.965 -20.093 -19.291  0.00  0.00    +0.005 C 
ATOM     23  C   UNL     1      33.629 -20.701 -19.295  0.00  0.00    +0.005 C 
ATOM     24  C   UNL     1      33.408 -19.852 -20.379  0.00  0.00    +0.000 C 
ATOM     25  C   UNL     1      34.259 -18.249 -22.026  0.00  0.00    +0.003 C 
ATOM     26  C   UNL     1      36.816 -18.490 -20.938  0.00  0.00    +0.000 C 
ATOM     27  C   UNL     1      35.319 -17.519 -22.565  0.00  0.00    +0.031 C 
ATOM     28  C   UNL     1      36.596 -17.640 -22.021  0.00  0.00    +0.003 C 
BRANCH  27  31
ATOM     29  N   UNL     1      35.569 -15.324 -23.696  0.00  0.00    -0.343 N 
ATOM     30  N   UNL     1      34.416 -17.064 -24.743  0.00  0.00    -0.285 NA
ATOM     31  C   UNL     1      35.091 -16.633 -23.694  0.00  0.00    +0.117 C 
ATOM     32  H   UNL     1      35.404 -14.740 -24.471  0.00  0.00    +0.144 HD
ATOM     33  H   UNL     1      36.074 -14.982 -22.922  0.00  0.00    +0.144 HD
ATOM     34  H   UNL     1      34.260 -16.465 -25.509  0.00  0.00    +0.188 HD
ENDBRANCH  27  31
ENDBRANCH   3  19
TORSDOF 4
ENDMDL
MODEL 3
REMARK VINA RESULT:     -11.3      2.151     10.357
REMARK  Name = 447731
REMARK  4 active torsions:
REMARK  status: ('A' for Active; 'I' for Inactive)
REMARK    1  A    between atoms: N_2  and  C_13
REMARK    2  A    between atoms: C_3  and  C_19
REMARK    3  A    between atoms: C_6  and  C_17
REMARK    4  A    between atoms: C_27  and  C_31
REMARK                            x       y       z     vdW  Elec       q    Type
REMARK                         _______ _______ _______ _____ _____    ______ ____
ROOT
ATOM      1  O   UNL     1      36.946 -20.293 -20.252  0.00  0.00    -0.270 OA
ATOM      2  N   UNL     1      35.169 -18.891 -19.614  0.00  0.00    -0.280 N 
ATOM      3  C   UNL     1      36.042 -19.978 -19.484  0.00  0.00    +0.249 C 
ATOM      4  H   UNL     1      34.500 -18.787 -18.899  0.00  0.00    +0.155 HD
ENDROOT
BRANCH   2  13
ATOM      5  N   UNL     1      35.156 -15.535 -25.117  0.00  0.00    +0.387 N 
ATOM      6  C   UNL     1      34.458 -17.795 -24.406  0.00  0.00    +0.001 C 
ATOM      7  C   UNL     1      34.764 -17.379 -22.975  0.00  0.00    -0.029 C 
ATOM      8  C   UNL     1      34.154 -16.582 -25.308  0.00  0.00    -0.077 C 
ATOM      9  C   UNL     1      35.079 -16.036 -22.685  0.00  0.00    -0.048 C 
ATOM     10  C   UNL     1      35.048 -14.983 -23.764  0.00  0.00    -0.055 C 
ATOM     11  C   UNL     1      34.819 -18.324 -21.937  0.00  0.00    +0.010 C 
ATOM     12  C   UNL     1      35.379 -15.657 -21.368  0.00  0.00    -0.005 C 
ATOM     13  C   UNL     1      35.132 -17.936 -20.632  0.00  0.00    +0.050 C 
ATOM     14  C   UNL     1      35.406 -16.603 -20.347  0.00  0.00    +0.014 C 
ATOM     15  H   UNL     1      35.002 -14.791 -25.798  0.00  0.00    -0.084 HD
ATOM     16  H   UNL     1      36.086 -15.933 -25.244  0.00  0.00    -0.084 HD
BRANCH   6  17
ATOM     17  C   UNL     1      33.298 -18.792 -24.523  0.00  0.00    +0.002 C 
ATOM     18  C   UNL     1      32.265 -18.314 -25.520  0.00  0.00    +0.000 C 
ENDBRANCH   6  17
ENDBRANCH   2  13
BRANCH   3  19
ATOM     19  C   UNL     1      35.814 -20.841 -18.295  0.00  0.00    +0.054 C 
ATOM     20  C   UNL     1      36.615 -21.767 -16.225  0.00  0.00    +0.000 C 
ATOM     21  C   UNL     1      35.385 -22.452 -16.075  0.00  0.00    +0.000 C 
ATOM     22  C   UNL     1      36.815 -20.955 -17.354  0.00  0.00    +0.005 C 
ATOM     23  C   UNL     1      34.610 -21.496 -18.173  0.00  0.00    +0.005 C 
ATOM     24  C   UNL     1      34.393 -22.306 -17.059  0.00  0.00    +0.000 C 
ATOM     25  C   UNL     1      35.184 -23.264 -14.946  0.00  0.00    +0.003 C 
ATOM     26  C   UNL     1      37.606 -21.913 -15.242  0.00  0.00    +0.000 C 
ATOM     27  C   UNL     1      36.181 -23.398 -13.979  0.00  0.00    +0.031 C 
ATOM     28  C   UNL     1      37.390 -22.723 -14.127  0.00  0.00    +0.003 C 
BRANCH  27  31
ATOM     29  N   UNL     1      36.771 -25.342 -12.553  0.00  0.00    -0.343 N 
ATOM     30  N   UNL     1      34.963 -23.973 -11.990  0.00  0.00    -0.285 NA
ATOM     31  C   UNL     1      35.957 -24.242 -12.817  0.00  0.00    +0.117 C 
ATOM     32  H   UNL     1      36.602 -25.900 -11.760  0.00  0.00    +0.144 HD
ATOM     33  H   UNL     1      37.516 -25.561 -13.159  0.00  0.00    +0.144 HD
ATOM     34  H   UNL     1      34.810 -24.544 -11.202  0.00  0.00    +0.188 HD
ENDBRANCH  27  31
ENDBRANCH   3  19
TORSDOF 4
ENDMDL
MODEL 4
REMARK VINA RESULT:     -11.2      7.587     14.831
REMARK  Name = 447731
REMARK  4 active torsions:
REMARK  status: ('A' for Active; 'I' for Inactive)
REMARK    1  A    between atoms: N_2  and  C_13
REMARK    2  A    between atoms: C_3  and  C_19
REMARK    3  A    between atoms: C_6  and  C_17
REMARK    4  A    between atoms: C_27  and  C_31
REMARK                            x       y       z     vdW  Elec       q    Type
REMARK                         _______ _______ _______ _____ _____    ______ ____
ROOT
ATOM      1  O   UNL     1      33.836 -11.970 -24.609  0.00  0.00    -0.270 OA
ATOM      2  N   UNL     1      34.620 -10.605 -22.862  0.00  0.00    -0.280 N 
ATOM      3  C   UNL     1      34.305 -11.819 -23.486  0.00  0.00    +0.249 C 
ATOM      4  H   UNL     1      34.992 -10.670 -21.952  0.00  0.00    +0.155 HD
ENDROOT
BRANCH   2  13
ATOM      5  N   UNL     1      32.638  -4.861 -25.011  0.00  0.00    +0.387 N 
ATOM      6  C   UNL     1      31.872  -6.493 -23.322  0.00  0.00    +0.001 C 
ATOM      7  C   UNL     1      33.146  -7.282 -23.588  0.00  0.00    -0.029 C 
ATOM      8  C   UNL     1      32.027  -5.004 -23.691  0.00  0.00    -0.077 C 
ATOM      9  C   UNL     1      34.153  -6.736 -24.410  0.00  0.00    -0.048 C 
ATOM     10  C   UNL     1      34.021  -5.344 -24.976  0.00  0.00    -0.055 C 
ATOM     11  C   UNL     1      33.312  -8.586 -23.096  0.00  0.00    +0.010 C 
ATOM     12  C   UNL     1      35.319  -7.471 -24.670  0.00  0.00    -0.005 C 
ATOM     13  C   UNL     1      34.472  -9.314 -23.372  0.00  0.00    +0.050 C 
ATOM     14  C   UNL     1      35.477  -8.754 -24.153  0.00  0.00    +0.014 C 
ATOM     15  H   UNL     1      32.630  -3.877 -25.282  0.00  0.00    -0.084 HD
ATOM     16  H   UNL     1      32.108  -5.410 -25.688  0.00  0.00    -0.084 HD
BRANCH   6  17
ATOM     17  C   UNL     1      31.381  -6.588 -21.873  0.00  0.00    +0.002 C 
ATOM     18  C   UNL     1      32.085  -5.581 -20.990  0.00  0.00    +0.000 C 
ENDBRANCH   6  17
ENDBRANCH   2  13
BRANCH   3  19
ATOM     19  C   UNL     1      34.551 -13.037 -22.670  0.00  0.00    +0.054 C 
ATOM     20  C   UNL     1      34.993 -15.399 -22.557  0.00  0.00    +0.000 C 
ATOM     21  C   UNL     1      35.011 -15.311 -21.144  0.00  0.00    +0.000 C 
ATOM     22  C   UNL     1      34.759 -14.238 -23.314  0.00  0.00    +0.005 C 
ATOM     23  C   UNL     1      34.563 -12.925 -21.298  0.00  0.00    +0.005 C 
ATOM     24  C   UNL     1      34.793 -14.067 -20.531  0.00  0.00    +0.000 C 
ATOM     25  C   UNL     1      35.244 -16.471 -20.387  0.00  0.00    +0.003 C 
ATOM     26  C   UNL     1      35.210 -16.643 -23.171  0.00  0.00    +0.000 C 
ATOM     27  C   UNL     1      35.457 -17.699 -21.013  0.00  0.00    +0.031 C 
ATOM     28  C   UNL     1      35.440 -17.784 -22.403  0.00  0.00    +0.003 C 
BRANCH  27  31
ATOM     29  N   UNL     1      36.906 -19.085 -19.550  0.00  0.00    -0.343 N 
ATOM     30  N   UNL     1      34.760 -19.815 -20.114  0.00  0.00    -0.285 NA
ATOM     31  C   UNL     1      35.697 -18.890 -20.215  0.00  0.00    +0.117 C 
ATOM     32  H   UNL     1      37.048 -19.899 -19.015  0.00  0.00    +0.144 HD
ATOM     33  H   UNL     1      37.619 -18.409 -19.615  0.00  0.00    +0.144 HD
ATOM     34  H   UNL     1      34.921 -20.623 -19.574  0.00  0.00    +0.188 HD
ENDBRANCH  27  31
ENDBRANCH   3  19
TORSDOF 4
ENDMDL
MODEL 5
REMARK VINA RESULT:     -11.0      2.184     10.238
REMARK  Name = 447731
REMARK  4 active torsions:
REMARK  status: ('A' for Active; 'I' for Inactive)
REMARK    1  A    between atoms: N_2  and  C_13
REMARK    2  A    between atoms: C_3  and  C_19
REMARK    3  A    between atoms: C_6  and  C_17
REMARK    4  A    between atoms: C_27  and  C_31
REMARK                            x       y       z     vdW  Elec       q    Type
REMARK                         _______ _______ _______ _____ _____    ______ ____
ROOT
ATOM      1  O   UNL     1      32.929 -20.256 -20.154  0.00  0.00    -0.270 OA
ATOM      2  N   UNL     1      35.088 -19.328 -20.252  0.00  0.00    -0.280 N 
ATOM      3  C   UNL     1      34.074 -20.141 -19.728  0.00  0.00    +0.249 C 
ATOM      4  H   UNL     1      35.952 -19.359 -19.781  0.00  0.00    +0.155 HD
ENDROOT
BRANCH   2  13
ATOM      5  N   UNL     1      34.094 -14.621 -24.542  0.00  0.00    +0.387 N 
ATOM      6  C   UNL     1      34.377 -14.769 -22.092  0.00  0.00    +0.001 C 
ATOM      7  C   UNL     1      34.699 -16.245 -22.274  0.00  0.00    -0.029 C 
ATOM      8  C   UNL     1      34.659 -13.954 -23.370  0.00  0.00    -0.077 C 
ATOM      9  C   UNL     1      34.864 -16.774 -23.571  0.00  0.00    -0.048 C 
ATOM     10  C   UNL     1      34.799 -15.883 -24.785  0.00  0.00    -0.055 C 
ATOM     11  C   UNL     1      34.758 -17.120 -21.177  0.00  0.00    +0.010 C 
ATOM     12  C   UNL     1      35.143 -18.139 -23.739  0.00  0.00    -0.005 C 
ATOM     13  C   UNL     1      35.023 -18.479 -21.359  0.00  0.00    +0.050 C 
ATOM     14  C   UNL     1      35.221 -18.986 -22.637  0.00  0.00    +0.014 C 
ATOM     15  H   UNL     1      34.195 -14.015 -25.357  0.00  0.00    -0.084 HD
ATOM     16  H   UNL     1      33.107 -14.815 -24.374  0.00  0.00    -0.084 HD
BRANCH   6  17
ATOM     17  C   UNL     1      35.123 -14.116 -20.922  0.00  0.00    +0.002 C 
ATOM     18  C   UNL     1      34.228 -13.155 -20.171  0.00  0.00    +0.000 C 
ENDBRANCH   6  17
ENDBRANCH   2  13
BRANCH   3  19
ATOM     19  C   UNL     1      34.442 -20.916 -18.515  0.00  0.00    +0.054 C 
ATOM     20  C   UNL     1      36.096 -21.558 -16.890  0.00  0.00    +0.000 C 
ATOM     21  C   UNL     1      35.127 -22.365 -16.247  0.00  0.00    +0.000 C 
ATOM     22  C   UNL     1      35.732 -20.831 -18.037  0.00  0.00    +0.005 C 
ATOM     23  C   UNL     1      33.481 -21.693 -17.908  0.00  0.00    +0.005 C 
ATOM     24  C   UNL     1      33.824 -22.422 -16.770  0.00  0.00    +0.000 C 
ATOM     25  C   UNL     1      35.489 -23.093 -15.102  0.00  0.00    +0.003 C 
ATOM     26  C   UNL     1      37.398 -21.501 -16.369  0.00  0.00    +0.000 C 
ATOM     27  C   UNL     1      36.788 -23.025 -14.597  0.00  0.00    +0.031 C 
ATOM     28  C   UNL     1      37.740 -22.230 -15.230  0.00  0.00    +0.003 C 
BRANCH  27  31
ATOM     29  N   UNL     1      36.400 -24.886 -13.001  0.00  0.00    -0.343 N 
ATOM     30  N   UNL     1      38.199 -23.428 -12.695  0.00  0.00    -0.285 NA
ATOM     31  C   UNL     1      37.148 -23.783 -13.410  0.00  0.00    +0.117 C 
ATOM     32  H   UNL     1      36.661 -25.386 -12.194  0.00  0.00    +0.144 HD
ATOM     33  H   UNL     1      35.610 -25.166 -13.519  0.00  0.00    +0.144 HD
ATOM     34  H   UNL     1      38.444 -23.941 -11.891  0.00  0.00    +0.188 HD
ENDBRANCH  27  31
ENDBRANCH   3  19
TORSDOF 4
ENDMDL
MODEL 6
REMARK VINA RESULT:     -11.0      8.433     14.976
REMARK  Name = 447731
REMARK  4 active torsions:
REMARK  status: ('A' for Active; 'I' for Inactive)
REMARK    1  A    between atoms: N_2  and  C_13
REMARK    2  A    between atoms: C_3  and  C_19
REMARK    3  A    between atoms: C_6  and  C_17
REMARK    4  A    between atoms: C_27  and  C_31
REMARK                            x       y       z     vdW  Elec       q    Type
REMARK                         _______ _______ _______ _____ _____    ______ ____
ROOT
ATOM      1  O   UNL     1      31.780 -10.654 -21.564  0.00  0.00    -0.270 OA
ATOM      2  N   UNL     1      33.568  -9.672 -22.734  0.00  0.00    -0.280 N 
ATOM      3  C   UNL     1      32.853 -10.728 -22.154  0.00  0.00    +0.249 C 
ATOM      4  H   UNL     1      34.417  -9.914 -23.171  0.00  0.00    +0.155 HD
ENDROOT
BRANCH   2  13
ATOM      5  N   UNL     1      31.172  -3.748 -21.893  0.00  0.00    +0.387 N 
ATOM      6  C   UNL     1      31.635  -5.704 -20.456  0.00  0.00    +0.001 C 
ATOM      7  C   UNL     1      32.301  -6.359 -21.658  0.00  0.00    -0.029 C 
ATOM      8  C   UNL     1      31.626  -4.166 -20.568  0.00  0.00    -0.077 C 
ATOM      9  C   UNL     1      32.511  -5.615 -22.837  0.00  0.00    -0.048 C 
ATOM     10  C   UNL     1      32.150  -4.153 -22.906  0.00  0.00    -0.055 C 
ATOM     11  C   UNL     1      32.643  -7.721 -21.650  0.00  0.00    +0.010 C 
ATOM     12  C   UNL     1      33.109  -6.224 -23.951  0.00  0.00    -0.005 C 
ATOM     13  C   UNL     1      33.226  -8.319 -22.769  0.00  0.00    +0.050 C 
ATOM     14  C   UNL     1      33.463  -7.570 -23.916  0.00  0.00    +0.014 C 
ATOM     15  H   UNL     1      31.068  -2.733 -21.910  0.00  0.00    -0.084 HD
ATOM     16  H   UNL     1      30.276  -4.191 -22.096  0.00  0.00    -0.084 HD
BRANCH   6  17
ATOM     17  C   UNL     1      32.268  -6.092 -19.115  0.00  0.00    +0.002 C 
ATOM     18  C   UNL     1      32.615  -4.866 -18.299  0.00  0.00    +0.000 C 
ENDBRANCH   6  17
ENDBRANCH   2  13
BRANCH   3  19
ATOM     19  C   UNL     1      33.494 -12.065 -22.256  0.00  0.00    +0.054 C 
ATOM     20  C   UNL     1      34.383 -14.022 -21.178  0.00  0.00    +0.000 C 
ATOM     21  C   UNL     1      34.693 -14.562 -22.449  0.00  0.00    +0.000 C 
ATOM     22  C   UNL     1      33.777 -12.757 -21.098  0.00  0.00    +0.005 C 
ATOM     23  C   UNL     1      33.786 -12.567 -23.504  0.00  0.00    +0.005 C 
ATOM     24  C   UNL     1      34.388 -13.820 -23.603  0.00  0.00    +0.000 C 
ATOM     25  C   UNL     1      35.300 -15.826 -22.530  0.00  0.00    +0.003 C 
ATOM     26  C   UNL     1      34.689 -14.763 -20.025  0.00  0.00    +0.000 C 
ATOM     27  C   UNL     1      35.597 -16.548 -21.374  0.00  0.00    +0.031 C 
ATOM     28  C   UNL     1      35.291 -16.017 -20.124  0.00  0.00    +0.003 C 
BRANCH  27  31
ATOM     29  N   UNL     1      35.490 -19.027 -21.305  0.00  0.00    -0.343 N 
ATOM     30  N   UNL     1      37.518 -17.947 -21.726  0.00  0.00    -0.285 NA
ATOM     31  C   UNL     1      36.225 -17.855 -21.474  0.00  0.00    +0.117 C 
ATOM     32  H   UNL     1      35.935 -19.902 -21.378  0.00  0.00    +0.144 HD
ATOM     33  H   UNL     1      34.525 -18.980 -21.114  0.00  0.00    +0.144 HD
ATOM     34  H   UNL     1      37.945 -18.831 -21.794  0.00  0.00    +0.188 HD
ENDBRANCH  27  31
ENDBRANCH   3  19
TORSDOF 4
ENDMDL
MODEL 7
REMARK VINA RESULT:     -11.0      2.203     10.591
REMARK  Name = 447731
REMARK  4 active torsions:
REMARK  status: ('A' for Active; 'I' for Inactive)
REMARK    1  A    between atoms: N_2  and  C_13
REMARK    2  A    between atoms: C_3  and  C_19
REMARK    3  A    between atoms: C_6  and  C_17
REMARK    4  A    between atoms: C_27  and  C_31
REMARK                            x       y       z     vdW  Elec       q    Type
REMARK                         _______ _______ _______ _____ _____    ______ ____
ROOT
ATOM      1  O   UNL     1      33.359 -20.072 -20.267  0.00  0.00    -0.270 OA
ATOM      2  N   UNL     1      35.374 -18.992 -20.820  0.00  0.00    -0.280 N 
ATOM      3  C   UNL     1      34.545 -19.833 -20.066  0.00  0.00    +0.249 C 
ATOM      4  H   UNL     1      36.306 -18.916 -20.513  0.00  0.00    +0.155 HD
ENDROOT
BRANCH   2  13
ATOM      5  N   UNL     1      33.319 -14.695 -25.163  0.00  0.00    +0.387 N 
ATOM      6  C   UNL     1      34.155 -14.620 -22.839  0.00  0.00    +0.001 C 
ATOM      7  C   UNL     1      34.462 -16.106 -22.961  0.00  0.00    -0.029 C 
ATOM      8  C   UNL     1      34.120 -13.923 -24.214  0.00  0.00    -0.077 C 
ATOM      9  C   UNL     1      34.341 -16.749 -24.209  0.00  0.00    -0.048 C 
ATOM     10  C   UNL     1      33.979 -15.971 -25.450  0.00  0.00    -0.055 C 
ATOM     11  C   UNL     1      34.789 -16.877 -21.834  0.00  0.00    +0.010 C 
ATOM     12  C   UNL     1      34.606 -18.122 -24.318  0.00  0.00    -0.005 C 
ATOM     13  C   UNL     1      35.039 -18.246 -21.952  0.00  0.00    +0.050 C 
ATOM     14  C   UNL     1      34.953 -18.867 -23.193  0.00  0.00    +0.014 C 
ATOM     15  H   UNL     1      33.217 -14.165 -26.029  0.00  0.00    -0.084 HD
ATOM     16  H   UNL     1      32.401 -14.876 -24.758  0.00  0.00    -0.084 HD
BRANCH   6  17
ATOM     17  C   UNL     1      35.132 -13.862 -21.933  0.00  0.00    +0.002 C 
ATOM     18  C   UNL     1      34.458 -13.419 -20.653  0.00  0.00    +0.000 C 
ENDBRANCH   6  17
ENDBRANCH   2  13
BRANCH   3  19
ATOM     19  C   UNL     1      35.189 -20.473 -18.889  0.00  0.00    +0.054 C 
ATOM     20  C   UNL     1      35.014 -21.869 -16.937  0.00  0.00    +0.000 C 
ATOM     21  C   UNL     1      36.394 -21.667 -16.690  0.00  0.00    +0.000 C 
ATOM     22  C   UNL     1      34.421 -21.257 -18.055  0.00  0.00    +0.005 C 
ATOM     23  C   UNL     1      36.531 -20.261 -18.670  0.00  0.00    +0.005 C 
ATOM     24  C   UNL     1      37.138 -20.859 -17.566  0.00  0.00    +0.000 C 
ATOM     25  C   UNL     1      36.988 -22.277 -15.573  0.00  0.00    +0.003 C 
ATOM     26  C   UNL     1      34.271 -22.675 -16.061  0.00  0.00    +0.000 C 
ATOM     27  C   UNL     1      36.233 -23.075 -14.713  0.00  0.00    +0.031 C 
ATOM     28  C   UNL     1      34.877 -23.274 -14.957  0.00  0.00    +0.003 C 
BRANCH  27  31
ATOM     29  N   UNL     1      36.380 -24.895 -13.031  0.00  0.00    -0.343 N 
ATOM     30  N   UNL     1      37.912 -23.132 -12.996  0.00  0.00    -0.285 NA
ATOM     31  C   UNL     1      36.863 -23.700 -13.561  0.00  0.00    +0.117 C 
ATOM     32  H   UNL     1      36.822 -25.301 -12.251  0.00  0.00    +0.144 HD
ATOM     33  H   UNL     1      35.597 -25.333 -13.437  0.00  0.00    +0.144 HD
ATOM     34  H   UNL     1      38.340 -23.553 -12.215  0.00  0.00    +0.188 HD
ENDBRANCH  27  31
ENDBRANCH   3  19
TORSDOF 4
ENDMDL
MODEL 8
REMARK VINA RESULT:     -10.8      8.237     14.853
REMARK  Name = 447731
REMARK  4 active torsions:
REMARK  status: ('A' for Active; 'I' for Inactive)
REMARK    1  A    between atoms: N_2  and  C_13
REMARK    2  A    between atoms: C_3  and  C_19
REMARK    3  A    between atoms: C_6  and  C_17
REMARK    4  A    between atoms: C_27  and  C_31
REMARK                            x       y       z     vdW  Elec       q    Type
REMARK                         _______ _______ _______ _____ _____    ______ ____
ROOT
ATOM      1  O   UNL     1      33.812 -10.654 -25.023  0.00  0.00    -0.270 OA
ATOM      2  N   UNL     1      33.654 -10.066 -22.752  0.00  0.00    -0.280 N 
ATOM      3  C   UNL     1      33.864 -10.935 -23.830  0.00  0.00    +0.249 C 
ATOM      4  H   UNL     1      33.736 -10.463 -21.855  0.00  0.00    +0.155 HD
ENDROOT
BRANCH   2  13
ATOM      5  N   UNL     1      31.355  -4.095 -21.971  0.00  0.00    +0.387 N 
ATOM      6  C   UNL     1      31.725  -6.065 -20.527  0.00  0.00    +0.001 C 
ATOM      7  C   UNL     1      32.419  -6.730 -21.707  0.00  0.00    -0.029 C 
ATOM      8  C   UNL     1      31.752  -4.528 -20.633  0.00  0.00    -0.077 C 
ATOM      9  C   UNL     1      32.687  -5.987 -22.875  0.00  0.00    -0.048 C 
ATOM     10  C   UNL     1      32.360  -4.517 -22.950  0.00  0.00    -0.055 C 
ATOM     11  C   UNL     1      32.732  -8.099 -21.693  0.00  0.00    +0.010 C 
ATOM     12  C   UNL     1      33.311  -6.605 -23.969  0.00  0.00    -0.005 C 
ATOM     13  C   UNL     1      33.341  -8.706 -22.793  0.00  0.00    +0.050 C 
ATOM     14  C   UNL     1      33.636  -7.958 -23.928  0.00  0.00    +0.014 C 
ATOM     15  H   UNL     1      31.272  -3.079 -21.988  0.00  0.00    -0.084 HD
ATOM     16  H   UNL     1      30.457  -4.519 -22.208  0.00  0.00    -0.084 HD
BRANCH   6  17
ATOM     17  C   UNL     1      32.301  -6.472 -19.166  0.00  0.00    +0.002 C 
ATOM     18  C   UNL     1      32.559  -5.259 -18.298  0.00  0.00    +0.000 C 
ENDBRANCH   6  17
ENDBRANCH   2  13
BRANCH   3  19
ATOM     19  C   UNL     1      34.155 -12.346 -23.464  0.00  0.00    +0.054 C 
ATOM     20  C   UNL     1      34.677 -13.982 -21.780  0.00  0.00    +0.000 C 
ATOM     21  C   UNL     1      34.699 -14.982 -22.782  0.00  0.00    +0.000 C 
ATOM     22  C   UNL     1      34.400 -12.653 -22.142  0.00  0.00    +0.005 C 
ATOM     23  C   UNL     1      34.171 -13.299 -24.457  0.00  0.00    +0.005 C 
ATOM     24  C   UNL     1      34.445 -14.623 -24.116  0.00  0.00    +0.000 C 
ATOM     25  C   UNL     1      34.976 -16.311 -22.421  0.00  0.00    +0.003 C 
ATOM     26  C   UNL     1      34.932 -14.341 -20.447  0.00  0.00    +0.000 C 
ATOM     27  C   UNL     1      35.228 -16.649 -21.091  0.00  0.00    +0.031 C 
ATOM     28  C   UNL     1      35.205 -15.665 -20.106  0.00  0.00    +0.003 C 
BRANCH  27  31
ATOM     29  N   UNL     1      36.477 -18.346 -19.778  0.00  0.00    -0.343 N 
ATOM     30  N   UNL     1      34.855 -19.011 -21.321  0.00  0.00    -0.285 NA
ATOM     31  C   UNL     1      35.513 -18.029 -20.733  0.00  0.00    +0.117 C 
ATOM     32  H   UNL     1      36.654 -19.287 -19.550  0.00  0.00    +0.144 HD
ATOM     33  H   UNL     1      36.981 -17.628 -19.330  0.00  0.00    +0.144 HD
ATOM     34  H   UNL     1      35.046 -19.946 -21.081  0.00  0.00    +0.188 HD
ENDBRANCH  27  31
ENDBRANCH   3  19
TORSDOF 4
ENDMDL
MODEL 9
REMARK VINA RESULT:     -10.6      8.744     15.340
REMARK  Name = 447731
REMARK  4 active torsions:
REMARK  status: ('A' for Active; 'I' for Inactive)
REMARK    1  A    between atoms: N_2  and  C_13
REMARK    2  A    between atoms: C_3  and  C_19
REMARK    3  A    between atoms: C_6  and  C_17
REMARK    4  A    between atoms: C_27  and  C_31
REMARK                            x       y       z     vdW  Elec       q    Type
REMARK                         _______ _______ _______ _____ _____    ______ ____
ROOT
ATOM      1  O   UNL     1      31.212 -10.533 -21.349  0.00  0.00    -0.270 OA
ATOM      2  N   UNL     1      33.211  -9.347 -21.704  0.00  0.00    -0.280 N 
ATOM      3  C   UNL     1      32.401 -10.489 -21.645  0.00  0.00    +0.249 C 
ATOM      4  H   UNL     1      34.150  -9.496 -21.961  0.00  0.00    +0.155 HD
ENDROOT
BRANCH   2  13
ATOM      5  N   UNL     1      32.252  -2.975 -21.597  0.00  0.00    +0.387 N 
ATOM      6  C   UNL     1      32.587  -4.697 -23.336  0.00  0.00    +0.001 C 
ATOM      7  C   UNL     1      32.519  -5.744 -22.233  0.00  0.00    -0.029 C 
ATOM      8  C   UNL     1      31.862  -3.395 -22.941  0.00  0.00    -0.077 C 
ATOM      9  C   UNL     1      32.157  -5.364 -20.924  0.00  0.00    -0.048 C 
ATOM     10  C   UNL     1      31.764  -3.942 -20.611  0.00  0.00    -0.055 C 
ATOM     11  C   UNL     1      32.887  -7.078 -22.470  0.00  0.00    +0.010 C 
ATOM     12  C   UNL     1      32.112  -6.326 -19.904  0.00  0.00    -0.005 C 
ATOM     13  C   UNL     1      32.851  -8.024 -21.443  0.00  0.00    +0.050 C 
ATOM     14  C   UNL     1      32.458  -7.649 -20.163  0.00  0.00    +0.014 C 
ATOM     15  H   UNL     1      31.849  -2.058 -21.399  0.00  0.00    -0.084 HD
ATOM     16  H   UNL     1      33.269  -2.924 -21.543  0.00  0.00    -0.084 HD
BRANCH   6  17
ATOM     17  C   UNL     1      32.025  -5.181 -24.678  0.00  0.00    +0.002 C 
ATOM     18  C   UNL     1      32.587  -4.373 -25.828  0.00  0.00    +0.000 C 
ENDBRANCH   6  17
ENDBRANCH   2  13
BRANCH   3  19
ATOM     19  C   UNL     1      33.085 -11.772 -21.953  0.00  0.00    +0.054 C 
ATOM     20  C   UNL     1      34.128 -13.799 -21.185  0.00  0.00    +0.000 C 
ATOM     21  C   UNL     1      34.363 -14.169 -22.531  0.00  0.00    +0.000 C 
ATOM     22  C   UNL     1      33.480 -12.583 -20.910  0.00  0.00    +0.005 C 
ATOM     23  C   UNL     1      33.302 -12.108 -23.270  0.00  0.00    +0.005 C 
ATOM     24  C   UNL     1      33.944 -13.311 -23.562  0.00  0.00    +0.000 C 
ATOM     25  C   UNL     1      35.011 -15.384 -22.806  0.00  0.00    +0.003 C 
ATOM     26  C   UNL     1      34.547 -14.655 -20.154  0.00  0.00    +0.000 C 
ATOM     27  C   UNL     1      35.421 -16.223 -21.770  0.00  0.00    +0.031 C 
ATOM     28  C   UNL     1      35.189 -15.858 -20.446  0.00  0.00    +0.003 C 
BRANCH  27  31
ATOM     29  N   UNL     1      35.437 -18.501 -22.754  0.00  0.00    -0.343 N 
ATOM     30  N   UNL     1      37.342 -17.664 -21.693  0.00  0.00    -0.285 NA
ATOM     31  C   UNL     1      36.091 -17.477 -22.072  0.00  0.00    +0.117 C 
ATOM     32  H   UNL     1      35.909 -19.343 -22.949  0.00  0.00    +0.144 HD
ATOM     33  H   UNL     1      34.503 -18.383 -23.043  0.00  0.00    +0.144 HD
ATOM     34  H   UNL     1      37.797 -18.513 -21.896  0.00  0.00    +0.188 HD
ENDBRANCH  27  31
ENDBRANCH   3  19
TORSDOF 4
ENDMDL
