MODEL 1
REMARK VINA RESULT:     -12.7      0.000      0.000
REMARK  Name = 5288710
REMARK  3 active torsions:
REMARK  status: ('A' for Active; 'I' for Inactive)
REMARK    1  A    between atoms: C_6  and  N_18
REMARK    2  A    between atoms: C_9  and  C_15
REMARK    3  A    between atoms: N_18  and  C_29
REMARK                            x       y       z     vdW  Elec       q    Type
REMARK                         _______ _______ _______ _____ _____    ______ ____
ROOT
ATOM      1  O   UNL     1      35.154 -23.365 -15.496  0.00  0.00    -0.270 OA
ATOM      2  N   UNL     1      33.153 -23.603 -14.263  0.00  0.00    -0.280 N 
ATOM      3  C   UNL     1      31.668 -22.592 -15.698  0.00  0.00    +0.019 C 
ATOM      4  C   UNL     1      33.002 -22.549 -16.288  0.00  0.00    +0.069 C 
ATOM      5  C   UNL     1      31.817 -23.242 -14.470  0.00  0.00    +0.051 C 
ATOM      6  C   UNL     1      33.378 -22.028 -17.459  0.00  0.00    +0.066 C 
ATOM      7  C   UNL     1      33.956 -23.212 -15.339  0.00  0.00    +0.251 C 
ATOM      8  C   UNL     1      30.428 -22.144 -16.115  0.00  0.00    +0.005 C 
ATOM      9  C   UNL     1      29.337 -22.363 -15.268  0.00  0.00    +0.036 C 
ATOM     10  C   UNL     1      30.753 -23.469 -13.619  0.00  0.00    +0.015 C 
ATOM     11  C   UNL     1      29.497 -23.019 -14.032  0.00  0.00    +0.004 C 
ATOM     12  H   UNL     1      33.484 -24.071 -13.463  0.00  0.00    +0.155 HD
ENDROOT
BRANCH   9  15
ATOM     13  O   UNL     1      27.876 -21.599 -16.979  0.00  0.00    -0.431 OA
ATOM     14  N   UNL     1      25.902 -21.255 -15.929  0.00  0.00    -0.203 NA
ATOM     15  C   UNL     1      28.025 -21.909 -15.665  0.00  0.00    +0.166 C 
ATOM     16  C   UNL     1      26.836 -21.703 -15.030  0.00  0.00    +0.140 C 
ATOM     17  C   UNL     1      26.572 -21.215 -17.058  0.00  0.00    +0.285 C 
ENDBRANCH   9  15
BRANCH   6  18
ATOM     18  N   UNL     1      34.619 -21.997 -17.992  0.00  0.00    -0.311 N 
ATOM     19  H   UNL     1      35.182 -22.783 -17.810  0.00  0.00    +0.152 HD
BRANCH  18  29
ATOM     20  S   UNL     1      35.537 -17.382 -22.120  0.00  0.00    -0.002 S 
ATOM     21  O   UNL     1      35.679 -17.913 -23.461  0.00  0.00    -0.172 OA
ATOM     22  O   UNL     1      35.314 -15.971 -21.881  0.00  0.00    -0.172 OA
ATOM     23  C   UNL     1      34.251 -18.304 -21.292  0.00  0.00    +0.177 C 
ATOM     24  C   UNL     1      36.956 -17.898 -21.166  0.00  0.00    +0.177 C 
ATOM     25  C   UNL     1      35.020 -19.201 -20.384  0.00  0.00    +0.000 C 
ATOM     26  C   UNL     1      36.403 -18.994 -20.319  0.00  0.00    -0.001 C 
ATOM     27  C   UNL     1      34.424 -20.196 -19.611  0.00  0.00    +0.012 C 
ATOM     28  C   UNL     1      37.192 -19.780 -19.482  0.00  0.00    -0.002 C 
ATOM     29  C   UNL     1      35.214 -20.986 -18.776  0.00  0.00    +0.048 C 
ATOM     30  C   UNL     1      36.595 -20.778 -18.712  0.00  0.00    +0.014 C 
ENDBRANCH  18  29
ENDBRANCH   6  18
TORSDOF 3
ENDMDL
MODEL 2
REMARK VINA RESULT:     -12.1      2.190      3.314
REMARK  Name = 5288710
REMARK  3 active torsions:
REMARK  status: ('A' for Active; 'I' for Inactive)
REMARK    1  A    between atoms: C_6  and  N_18
REMARK    2  A    between atoms: C_9  and  C_15
REMARK    3  A    between atoms: N_18  and  C_29
REMARK                            x       y       z     vdW  Elec       q    Type
REMARK                         _______ _______ _______ _____ _____    ______ ____
ROOT
ATOM      1  O   UNL     1      37.275 -20.875 -18.235  0.00  0.00    -0.270 OA
ATOM      2  N   UNL     1      36.131 -21.877 -16.427  0.00  0.00    -0.280 N 
ATOM      3  C   UNL     1      33.970 -21.780 -17.208  0.00  0.00    +0.019 C 
ATOM      4  C   UNL     1      34.862 -21.195 -18.204  0.00  0.00    +0.069 C 
ATOM      5  C   UNL     1      34.792 -22.178 -16.150  0.00  0.00    +0.051 C 
ATOM      6  C   UNL     1      34.552 -20.669 -19.392  0.00  0.00    +0.066 C 
ATOM      7  C   UNL     1      36.265 -21.266 -17.677  0.00  0.00    +0.251 C 
ATOM      8  C   UNL     1      32.604 -21.980 -17.154  0.00  0.00    +0.005 C 
ATOM      9  C   UNL     1      32.077 -22.589 -16.011  0.00  0.00    +0.036 C 
ATOM     10  C   UNL     1      34.294 -22.782 -15.012  0.00  0.00    +0.015 C 
ATOM     11  C   UNL     1      32.913 -22.987 -14.950  0.00  0.00    +0.004 C 
ATOM     12  H   UNL     1      36.881 -22.070 -15.818  0.00  0.00    +0.155 HD
ENDROOT
BRANCH   9  15
ATOM     13  O   UNL     1      29.864 -21.893 -16.523  0.00  0.00    -0.431 OA
ATOM     14  N   UNL     1      28.540 -23.464 -15.576  0.00  0.00    -0.203 NA
ATOM     15  C   UNL     1      30.655 -22.815 -15.915  0.00  0.00    +0.166 C 
ATOM     16  C   UNL     1      29.858 -23.764 -15.343  0.00  0.00    +0.140 C 
ATOM     17  C   UNL     1      28.607 -22.354 -16.275  0.00  0.00    +0.285 C 
ENDBRANCH   9  15
BRANCH   6  18
ATOM     18  N   UNL     1      35.390 -20.130 -20.304  0.00  0.00    -0.311 N 
ATOM     19  H   UNL     1      36.172 -20.679 -20.542  0.00  0.00    +0.152 HD
BRANCH  18  29
ATOM     20  S   UNL     1      34.453 -15.698 -24.623  0.00  0.00    -0.002 S 
ATOM     21  O   UNL     1      35.594 -15.596 -25.511  0.00  0.00    -0.172 OA
ATOM     22  O   UNL     1      33.183 -15.078 -24.943  0.00  0.00    -0.172 OA
ATOM     23  C   UNL     1      34.166 -17.429 -24.287  0.00  0.00    +0.177 C 
ATOM     24  C   UNL     1      34.959 -15.143 -23.003  0.00  0.00    +0.177 C 
ATOM     25  C   UNL     1      34.701 -17.589 -22.905  0.00  0.00    +0.000 C 
ATOM     26  C   UNL     1      35.106 -16.421 -22.248  0.00  0.00    -0.001 C 
ATOM     27  C   UNL     1      34.791 -18.822 -22.262  0.00  0.00    +0.012 C 
ATOM     28  C   UNL     1      35.603 -16.484 -20.948  0.00  0.00    -0.002 C 
ATOM     29  C   UNL     1      35.292 -18.885 -20.961  0.00  0.00    +0.048 C 
ATOM     30  C   UNL     1      35.697 -17.719 -20.306  0.00  0.00    +0.014 C 
ENDBRANCH  18  29
ENDBRANCH   6  18
TORSDOF 3
ENDMDL
MODEL 3
REMARK VINA RESULT:     -11.6      3.413      5.794
REMARK  Name = 5288710
REMARK  3 active torsions:
REMARK  status: ('A' for Active; 'I' for Inactive)
REMARK    1  A    between atoms: C_6  and  N_18
REMARK    2  A    between atoms: C_9  and  C_15
REMARK    3  A    between atoms: N_18  and  C_29
REMARK                            x       y       z     vdW  Elec       q    Type
REMARK                         _______ _______ _______ _____ _____    ______ ____
ROOT
ATOM      1  O   UNL     1      32.785 -20.956 -19.939  0.00  0.00    -0.270 OA
ATOM      2  N   UNL     1      32.585 -21.785 -17.736  0.00  0.00    -0.280 N 
ATOM      3  C   UNL     1      34.799 -21.829 -17.115  0.00  0.00    +0.019 C 
ATOM      4  C   UNL     1      34.700 -21.333 -18.484  0.00  0.00    +0.069 C 
ATOM      5  C   UNL     1      33.487 -22.087 -16.709  0.00  0.00    +0.051 C 
ATOM      6  C   UNL     1      35.682 -20.950 -19.304  0.00  0.00    +0.066 C 
ATOM      7  C   UNL     1      33.250 -21.312 -18.872  0.00  0.00    +0.251 C 
ATOM      8  C   UNL     1      35.860 -22.054 -16.259  0.00  0.00    +0.005 C 
ATOM      9  C   UNL     1      35.575 -22.548 -14.982  0.00  0.00    +0.036 C 
ATOM     10  C   UNL     1      33.183 -22.574 -15.453  0.00  0.00    +0.015 C 
ATOM     11  C   UNL     1      34.250 -22.806 -14.582  0.00  0.00    +0.004 C 
ATOM     12  H   UNL     1      31.609 -21.892 -17.667  0.00  0.00    +0.155 HD
ENDROOT
BRANCH   9  15
ATOM     13  O   UNL     1      36.418 -22.474 -12.761  0.00  0.00    -0.431 OA
ATOM     14  N   UNL     1      38.512 -23.313 -12.919  0.00  0.00    -0.203 NA
ATOM     15  C   UNL     1      36.656 -22.799 -14.058  0.00  0.00    +0.166 C 
ATOM     16  C   UNL     1      37.919 -23.306 -14.156  0.00  0.00    +0.140 C 
ATOM     17  C   UNL     1      37.581 -22.813 -12.140  0.00  0.00    +0.285 C 
ENDBRANCH   9  15
BRANCH   6  18
ATOM     18  N   UNL     1      35.574 -20.493 -20.570  0.00  0.00    -0.311 N 
ATOM     19  H   UNL     1      35.564 -21.182 -21.273  0.00  0.00    +0.152 HD
BRANCH  18  29
ATOM     20  S   UNL     1      34.597 -15.427 -24.113  0.00  0.00    -0.002 S 
ATOM     21  O   UNL     1      35.727 -15.187 -24.989  0.00  0.00    -0.172 OA
ATOM     22  O   UNL     1      33.326 -14.761 -24.312  0.00  0.00    -0.172 OA
ATOM     23  C   UNL     1      34.307 -17.189 -24.053  0.00  0.00    +0.177 C 
ATOM     24  C   UNL     1      35.128 -15.139 -22.433  0.00  0.00    +0.177 C 
ATOM     25  C   UNL     1      34.860 -17.569 -22.722  0.00  0.00    +0.000 C 
ATOM     26  C   UNL     1      35.280 -16.521 -21.893  0.00  0.00    -0.001 C 
ATOM     27  C   UNL     1      34.954 -18.888 -22.286  0.00  0.00    +0.012 C 
ATOM     28  C   UNL     1      35.794 -16.791 -20.627  0.00  0.00    -0.002 C 
ATOM     29  C   UNL     1      35.473 -19.159 -21.019  0.00  0.00    +0.048 C 
ATOM     30  C   UNL     1      35.892 -18.114 -20.192  0.00  0.00    +0.014 C 
ENDBRANCH  18  29
ENDBRANCH   6  18
TORSDOF 3
ENDMDL
MODEL 4
REMARK VINA RESULT:     -11.5      3.600      6.059
REMARK  Name = 5288710
REMARK  3 active torsions:
REMARK  status: ('A' for Active; 'I' for Inactive)
REMARK    1  A    between atoms: C_6  and  N_18
REMARK    2  A    between atoms: C_9  and  C_15
REMARK    3  A    between atoms: N_18  and  C_29
REMARK                            x       y       z     vdW  Elec       q    Type
REMARK                         _______ _______ _______ _____ _____    ______ ____
ROOT
ATOM      1  O   UNL     1      32.829 -20.600 -20.301  0.00  0.00    -0.270 OA
ATOM      2  N   UNL     1      32.632 -21.559 -18.151  0.00  0.00    -0.280 N 
ATOM      3  C   UNL     1      34.842 -21.595 -17.517  0.00  0.00    +0.019 C 
ATOM      4  C   UNL     1      34.742 -21.023 -18.856  0.00  0.00    +0.069 C 
ATOM      5  C   UNL     1      33.533 -21.903 -17.137  0.00  0.00    +0.051 C 
ATOM      6  C   UNL     1      35.721 -20.574 -19.645  0.00  0.00    +0.066 C 
ATOM      7  C   UNL     1      33.294 -21.008 -19.252  0.00  0.00    +0.251 C 
ATOM      8  C   UNL     1      35.902 -21.849 -16.668  0.00  0.00    +0.005 C 
ATOM      9  C   UNL     1      35.619 -22.422 -15.424  0.00  0.00    +0.036 C 
ATOM     10  C   UNL     1      33.231 -22.468 -15.913  0.00  0.00    +0.015 C 
ATOM     11  C   UNL     1      34.297 -22.728 -15.049  0.00  0.00    +0.004 C 
ATOM     12  H   UNL     1      31.657 -21.689 -18.096  0.00  0.00    +0.155 HD
ENDROOT
BRANCH   9  15
ATOM     13  O   UNL     1      36.427 -22.515 -13.191  0.00  0.00    -0.431 OA
ATOM     14  N   UNL     1      38.564 -23.232 -13.389  0.00  0.00    -0.203 NA
ATOM     15  C   UNL     1      36.699 -22.705 -14.508  0.00  0.00    +0.166 C 
ATOM     16  C   UNL     1      37.987 -23.138 -14.630  0.00  0.00    +0.140 C 
ATOM     17  C   UNL     1      37.598 -22.853 -12.583  0.00  0.00    +0.285 C 
ENDBRANCH   9  15
BRANCH   6  18
ATOM     18  N   UNL     1      35.612 -20.047 -20.884  0.00  0.00    -0.311 N 
ATOM     19  H   UNL     1      35.651 -20.691 -21.627  0.00  0.00    +0.152 HD
BRANCH  18  29
ATOM     20  S   UNL     1      34.610 -13.871 -20.706  0.00  0.00    -0.002 S 
ATOM     21  O   UNL     1      33.190 -13.582 -20.643  0.00  0.00    -0.172 OA
ATOM     22  O   UNL     1      35.605 -12.856 -20.426  0.00  0.00    -0.172 OA
ATOM     23  C   UNL     1      34.934 -15.282 -19.660  0.00  0.00    +0.177 C 
ATOM     24  C   UNL     1      34.962 -14.580 -22.307  0.00  0.00    +0.177 C 
ATOM     25  C   UNL     1      35.112 -16.388 -20.644  0.00  0.00    +0.000 C 
ATOM     26  C   UNL     1      35.126 -16.029 -21.997  0.00  0.00    -0.001 C 
ATOM     27  C   UNL     1      35.275 -17.720 -20.270  0.00  0.00    +0.012 C 
ATOM     28  C   UNL     1      35.303 -17.002 -22.978  0.00  0.00    -0.002 C 
ATOM     29  C   UNL     1      35.449 -18.695 -21.253  0.00  0.00    +0.048 C 
ATOM     30  C   UNL     1      35.463 -18.336 -22.604  0.00  0.00    +0.014 C 
ENDBRANCH  18  29
ENDBRANCH   6  18
TORSDOF 3
ENDMDL
MODEL 5
REMARK VINA RESULT:     -11.3      3.963      6.512
REMARK  Name = 5288710
REMARK  3 active torsions:
REMARK  status: ('A' for Active; 'I' for Inactive)
REMARK    1  A    between atoms: C_6  and  N_18
REMARK    2  A    between atoms: C_9  and  C_15
REMARK    3  A    between atoms: N_18  and  C_29
REMARK                            x       y       z     vdW  Elec       q    Type
REMARK                         _______ _______ _______ _____ _____    ______ ____
ROOT
ATOM      1  O   UNL     1      33.463 -19.302 -21.154  0.00  0.00    -0.270 OA
ATOM      2  N   UNL     1      33.039 -20.839 -19.412  0.00  0.00    -0.280 N 
ATOM      3  C   UNL     1      35.094 -20.863 -18.380  0.00  0.00    +0.019 C 
ATOM      4  C   UNL     1      35.144 -19.948 -19.516  0.00  0.00    +0.069 C 
ATOM      5  C   UNL     1      33.794 -21.375 -18.363  0.00  0.00    +0.051 C 
ATOM      6  C   UNL     1      36.172 -19.213 -19.949  0.00  0.00    +0.066 C 
ATOM      7  C   UNL     1      33.796 -19.946 -20.176  0.00  0.00    +0.251 C 
ATOM      8  C   UNL     1      36.020 -21.253 -17.431  0.00  0.00    +0.005 C 
ATOM      9  C   UNL     1      35.612 -22.174 -16.461  0.00  0.00    +0.036 C 
ATOM     10  C   UNL     1      33.370 -22.285 -17.414  0.00  0.00    +0.015 C 
ATOM     11  C   UNL     1      34.300 -22.686 -16.452  0.00  0.00    +0.004 C 
ATOM     12  H   UNL     1      32.096 -21.062 -19.589  0.00  0.00    +0.155 HD
ENDROOT
BRANCH   9  15
ATOM     13  O   UNL     1      36.482 -23.919 -15.104  0.00  0.00    -0.431 OA
ATOM     14  N   UNL     1      38.122 -22.937 -13.895  0.00  0.00    -0.203 NA
ATOM     15  C   UNL     1      36.550 -22.609 -15.453  0.00  0.00    +0.166 C 
ATOM     16  C   UNL     1      37.539 -22.014 -14.726  0.00  0.00    +0.140 C 
ATOM     17  C   UNL     1      37.459 -24.038 -14.162  0.00  0.00    +0.285 C 
ENDBRANCH   9  15
BRANCH   6  18
ATOM     18  N   UNL     1      36.202 -18.370 -21.004  0.00  0.00    -0.311 N 
ATOM     19  H   UNL     1      36.672 -18.703 -21.802  0.00  0.00    +0.152 HD
BRANCH  18  29
ATOM     20  S   UNL     1      33.890 -13.023 -23.290  0.00  0.00    -0.002 S 
ATOM     21  O   UNL     1      34.959 -12.137 -23.708  0.00  0.00    -0.172 OA
ATOM     22  O   UNL     1      32.514 -12.789 -23.678  0.00  0.00    -0.172 OA
ATOM     23  C   UNL     1      34.333 -14.687 -23.760  0.00  0.00    +0.177 C 
ATOM     24  C   UNL     1      33.956 -13.171 -21.511  0.00  0.00    +0.177 C 
ATOM     25  C   UNL     1      34.751 -15.296 -22.465  0.00  0.00    +0.000 C 
ATOM     26  C   UNL     1      34.559 -14.521 -21.315  0.00  0.00    -0.001 C 
ATOM     27  C   UNL     1      35.294 -16.575 -22.366  0.00  0.00    +0.012 C 
ATOM     28  C   UNL     1      34.909 -15.023 -20.064  0.00  0.00    -0.002 C 
ATOM     29  C   UNL     1      35.649 -17.077 -21.113  0.00  0.00    +0.048 C 
ATOM     30  C   UNL     1      35.457 -16.303 -19.966  0.00  0.00    +0.014 C 
ENDBRANCH  18  29
ENDBRANCH   6  18
TORSDOF 3
ENDMDL
MODEL 6
REMARK VINA RESULT:     -11.2      2.394      3.678
REMARK  Name = 5288710
REMARK  3 active torsions:
REMARK  status: ('A' for Active; 'I' for Inactive)
REMARK    1  A    between atoms: C_6  and  N_18
REMARK    2  A    between atoms: C_9  and  C_15
REMARK    3  A    between atoms: N_18  and  C_29
REMARK                            x       y       z     vdW  Elec       q    Type
REMARK                         _______ _______ _______ _____ _____    ______ ____
ROOT
ATOM      1  O   UNL     1      37.269 -20.676 -18.630  0.00  0.00    -0.270 OA
ATOM      2  N   UNL     1      36.259 -21.704 -16.758  0.00  0.00    -0.280 N 
ATOM      3  C   UNL     1      34.056 -21.677 -17.417  0.00  0.00    +0.019 C 
ATOM      4  C   UNL     1      34.872 -21.069 -18.463  0.00  0.00    +0.069 C 
ATOM      5  C   UNL     1      34.948 -22.045 -16.406  0.00  0.00    +0.051 C 
ATOM      6  C   UNL     1      34.481 -20.558 -19.634  0.00  0.00    +0.066 C 
ATOM      7  C   UNL     1      36.305 -21.095 -18.015  0.00  0.00    +0.251 C 
ATOM      8  C   UNL     1      32.702 -21.918 -17.286  0.00  0.00    +0.005 C 
ATOM      9  C   UNL     1      32.259 -22.538 -16.113  0.00  0.00    +0.036 C 
ATOM     10  C   UNL     1      34.533 -22.658 -15.240  0.00  0.00    +0.015 C 
ATOM     11  C   UNL     1      33.165 -22.905 -15.100  0.00  0.00    +0.004 C 
ATOM     12  H   UNL     1      37.047 -21.871 -16.192  0.00  0.00    +0.155 HD
ENDROOT
BRANCH   9  15
ATOM     13  O   UNL     1      30.001 -21.931 -16.532  0.00  0.00    -0.431 OA
ATOM     14  N   UNL     1      28.780 -23.512 -15.470  0.00  0.00    -0.203 NA
ATOM     15  C   UNL     1      30.852 -22.806 -15.937  0.00  0.00    +0.166 C 
ATOM     16  C   UNL     1      30.118 -23.761 -15.296  0.00  0.00    +0.140 C 
ATOM     17  C   UNL     1      28.774 -22.424 -16.205  0.00  0.00    +0.285 C 
ENDBRANCH   9  15
BRANCH   6  18
ATOM     18  N   UNL     1      35.249 -19.998 -20.592  0.00  0.00    -0.311 N 
ATOM     19  H   UNL     1      35.936 -20.584 -20.986  0.00  0.00    +0.152 HD
BRANCH  18  29
ATOM     20  S   UNL     1      34.558 -13.800 -21.121  0.00  0.00    -0.002 S 
ATOM     21  O   UNL     1      33.157 -13.448 -21.248  0.00  0.00    -0.172 OA
ATOM     22  O   UNL     1      35.568 -12.804 -20.828  0.00  0.00    -0.172 OA
ATOM     23  C   UNL     1      34.692 -15.111 -19.915  0.00  0.00    +0.177 C 
ATOM     24  C   UNL     1      35.045 -14.680 -22.596  0.00  0.00    +0.177 C 
ATOM     25  C   UNL     1      34.918 -16.316 -20.762  0.00  0.00    +0.000 C 
ATOM     26  C   UNL     1      35.098 -16.097 -22.133  0.00  0.00    -0.001 C 
ATOM     27  C   UNL     1      34.969 -17.610 -20.246  0.00  0.00    +0.012 C 
ATOM     28  C   UNL     1      35.331 -17.170 -22.990  0.00  0.00    -0.002 C 
ATOM     29  C   UNL     1      35.198 -18.685 -21.106  0.00  0.00    +0.048 C 
ATOM     30  C   UNL     1      35.378 -18.465 -22.474  0.00  0.00    +0.014 C 
ENDBRANCH  18  29
ENDBRANCH   6  18
TORSDOF 3
ENDMDL
MODEL 7
REMARK VINA RESULT:     -11.2      3.521      8.941
REMARK  Name = 5288710
REMARK  3 active torsions:
REMARK  status: ('A' for Active; 'I' for Inactive)
REMARK    1  A    between atoms: C_6  and  N_18
REMARK    2  A    between atoms: C_9  and  C_15
REMARK    3  A    between atoms: N_18  and  C_29
REMARK                            x       y       z     vdW  Elec       q    Type
REMARK                         _______ _______ _______ _____ _____    ______ ____
ROOT
ATOM      1  O   UNL     1      36.389 -21.528 -17.370  0.00  0.00    -0.270 OA
ATOM      2  N   UNL     1      37.169 -19.780 -18.753  0.00  0.00    -0.280 N 
ATOM      3  C   UNL     1      35.473 -19.700 -20.304  0.00  0.00    +0.019 C 
ATOM      4  C   UNL     1      35.177 -20.746 -19.330  0.00  0.00    +0.069 C 
ATOM      5  C   UNL     1      36.693 -19.146 -19.906  0.00  0.00    +0.051 C 
ATOM      6  C   UNL     1      34.121 -21.563 -19.281  0.00  0.00    +0.066 C 
ATOM      7  C   UNL     1      36.294 -20.783 -18.328  0.00  0.00    +0.251 C 
ATOM      8  C   UNL     1      34.814 -19.227 -21.424  0.00  0.00    +0.005 C 
ATOM      9  C   UNL     1      35.408 -18.183 -22.139  0.00  0.00    +0.036 C 
ATOM     10  C   UNL     1      37.297 -18.113 -20.598  0.00  0.00    +0.015 C 
ATOM     11  C   UNL     1      36.637 -17.631 -21.731  0.00  0.00    +0.004 C 
ATOM     12  H   UNL     1      38.012 -19.548 -18.301  0.00  0.00    +0.155 HD
ENDROOT
BRANCH   9  15
ATOM     13  O   UNL     1      34.895 -16.330 -23.534  0.00  0.00    -0.431 OA
ATOM     14  N   UNL     1      33.630 -17.201 -25.195  0.00  0.00    -0.203 NA
ATOM     15  C   UNL     1      34.753 -17.662 -23.315  0.00  0.00    +0.166 C 
ATOM     16  C   UNL     1      33.990 -18.191 -24.316  0.00  0.00    +0.140 C 
ATOM     17  C   UNL     1      34.192 -16.130 -24.683  0.00  0.00    +0.285 C 
ENDBRANCH   9  15
BRANCH   6  18
ATOM     18  N   UNL     1      33.861 -22.527 -18.372  0.00  0.00    -0.311 N 
ATOM     19  H   UNL     1      34.292 -23.397 -18.538  0.00  0.00    +0.152 HD
BRANCH  18  29
ATOM     20  S   UNL     1      31.746 -23.060 -12.505  0.00  0.00    -0.002 S 
ATOM     21  O   UNL     1      31.223 -24.391 -12.266  0.00  0.00    -0.172 OA
ATOM     22  O   UNL     1      32.019 -22.144 -11.417  0.00  0.00    -0.172 OA
ATOM     23  C   UNL     1      33.224 -23.216 -13.496  0.00  0.00    +0.177 C 
ATOM     24  C   UNL     1      30.670 -22.243 -13.673  0.00  0.00    +0.177 C 
ATOM     25  C   UNL     1      32.760 -22.800 -14.850  0.00  0.00    +0.000 C 
ATOM     26  C   UNL     1      31.454 -22.303 -14.941  0.00  0.00    -0.001 C 
ATOM     27  C   UNL     1      33.563 -22.874 -15.986  0.00  0.00    +0.012 C 
ATOM     28  C   UNL     1      30.949 -21.878 -16.168  0.00  0.00    -0.002 C 
ATOM     29  C   UNL     1      33.056 -22.453 -17.216  0.00  0.00    +0.048 C 
ATOM     30  C   UNL     1      31.753 -21.956 -17.306  0.00  0.00    +0.014 C 
ENDBRANCH  18  29
ENDBRANCH   6  18
TORSDOF 3
ENDMDL
MODEL 8
REMARK VINA RESULT:     -11.1      2.625      5.324
REMARK  Name = 5288710
REMARK  3 active torsions:
REMARK  status: ('A' for Active; 'I' for Inactive)
REMARK    1  A    between atoms: C_6  and  N_18
REMARK    2  A    between atoms: C_9  and  C_15
REMARK    3  A    between atoms: N_18  and  C_29
REMARK                            x       y       z     vdW  Elec       q    Type
REMARK                         _______ _______ _______ _____ _____    ______ ____
ROOT
ATOM      1  O   UNL     1      31.783 -21.841 -17.506  0.00  0.00    -0.270 OA
ATOM      2  N   UNL     1      31.772 -22.514 -15.242  0.00  0.00    -0.280 N 
ATOM      3  C   UNL     1      34.024 -22.831 -14.900  0.00  0.00    +0.019 C 
ATOM      4  C   UNL     1      33.809 -22.400 -16.278  0.00  0.00    +0.069 C 
ATOM      5  C   UNL     1      32.756 -22.883 -14.316  0.00  0.00    +0.051 C 
ATOM      6  C   UNL     1      34.715 -22.202 -17.240  0.00  0.00    +0.066 C 
ATOM      7  C   UNL     1      32.336 -22.200 -16.482  0.00  0.00    +0.251 C 
ATOM      8  C   UNL     1      35.152 -23.154 -14.169  0.00  0.00    +0.005 C 
ATOM      9  C   UNL     1      34.978 -23.534 -12.835  0.00  0.00    +0.036 C 
ATOM     10  C   UNL     1      32.561 -23.254 -13.000  0.00  0.00    +0.015 C 
ATOM     11  C   UNL     1      33.696 -23.584 -12.255  0.00  0.00    +0.004 C 
ATOM     12  H   UNL     1      30.808 -22.481 -15.044  0.00  0.00    +0.155 HD
ENDROOT
BRANCH   9  15
ATOM     13  O   UNL     1      37.019 -24.731 -12.615  0.00  0.00    -0.431 OA
ATOM     14  N   UNL     1      37.770 -24.200 -10.548  0.00  0.00    -0.203 NA
ATOM     15  C   UNL     1      36.130 -23.882 -12.037  0.00  0.00    +0.166 C 
ATOM     16  C   UNL     1      36.582 -23.560 -10.791  0.00  0.00    +0.140 C 
ATOM     17  C   UNL     1      37.976 -24.873 -11.657  0.00  0.00    +0.285 C 
ENDBRANCH   9  15
BRANCH   6  18
ATOM     18  N   UNL     1      34.499 -21.804 -18.512  0.00  0.00    -0.311 N 
ATOM     19  H   UNL     1      33.814 -22.308 -19.007  0.00  0.00    +0.152 HD
BRANCH  18  29
ATOM     20  S   UNL     1      35.535 -16.842 -22.183  0.00  0.00    -0.002 S 
ATOM     21  O   UNL     1      35.546 -17.229 -23.580  0.00  0.00    -0.172 OA
ATOM     22  O   UNL     1      35.446 -15.453 -21.781  0.00  0.00    -0.172 OA
ATOM     23  C   UNL     1      34.231 -17.750 -21.367  0.00  0.00    +0.177 C 
ATOM     24  C   UNL     1      36.964 -17.567 -21.395  0.00  0.00    +0.177 C 
ATOM     25  C   UNL     1      34.980 -18.799 -20.617  0.00  0.00    +0.000 C 
ATOM     26  C   UNL     1      36.377 -18.705 -20.631  0.00  0.00    -0.001 C 
ATOM     27  C   UNL     1      34.353 -19.825 -19.913  0.00  0.00    +0.012 C 
ATOM     28  C   UNL     1      37.149 -19.638 -19.941  0.00  0.00    -0.002 C 
ATOM     29  C   UNL     1      35.126 -20.760 -19.225  0.00  0.00    +0.048 C 
ATOM     30  C   UNL     1      36.520 -20.667 -19.240  0.00  0.00    +0.014 C 
ENDBRANCH  18  29
ENDBRANCH   6  18
TORSDOF 3
ENDMDL
MODEL 9
REMARK VINA RESULT:     -10.9      7.102     11.247
REMARK  Name = 5288710
REMARK  3 active torsions:
REMARK  status: ('A' for Active; 'I' for Inactive)
REMARK    1  A    between atoms: C_6  and  N_18
REMARK    2  A    between atoms: C_9  and  C_15
REMARK    3  A    between atoms: N_18  and  C_29
REMARK                            x       y       z     vdW  Elec       q    Type
REMARK                         _______ _______ _______ _____ _____    ______ ____
ROOT
ATOM      1  O   UNL     1      33.533 -13.473 -25.747  0.00  0.00    -0.270 OA
ATOM      2  N   UNL     1      33.684 -15.811 -25.448  0.00  0.00    -0.280 N 
ATOM      3  C   UNL     1      34.640 -15.894 -23.358  0.00  0.00    +0.019 C 
ATOM      4  C   UNL     1      34.457 -14.498 -23.741  0.00  0.00    +0.069 C 
ATOM      5  C   UNL     1      34.154 -16.648 -24.430  0.00  0.00    +0.051 C 
ATOM      6  C   UNL     1      34.767 -13.397 -23.051  0.00  0.00    +0.066 C 
ATOM      7  C   UNL     1      33.833 -14.464 -25.106  0.00  0.00    +0.251 C 
ATOM      8  C   UNL     1      35.156 -16.513 -22.235  0.00  0.00    +0.005 C 
ATOM      9  C   UNL     1      35.176 -17.911 -22.211  0.00  0.00    +0.036 C 
ATOM     10  C   UNL     1      34.163 -18.030 -24.426  0.00  0.00    +0.015 C 
ATOM     11  C   UNL     1      34.684 -18.663 -23.295  0.00  0.00    +0.004 C 
ATOM     12  H   UNL     1      33.299 -16.131 -26.296  0.00  0.00    +0.155 HD
ENDROOT
BRANCH   9  15
ATOM     13  O   UNL     1      34.956 -19.617 -20.572  0.00  0.00    -0.431 OA
ATOM     14  N   UNL     1      36.815 -19.424 -19.297  0.00  0.00    -0.203 NA
ATOM     15  C   UNL     1      35.708 -18.596 -21.057  0.00  0.00    +0.166 C 
ATOM     16  C   UNL     1      36.831 -18.477 -20.290  0.00  0.00    +0.140 C 
ATOM     17  C   UNL     1      35.689 -20.064 -19.515  0.00  0.00    +0.285 C 
ENDBRANCH   9  15
BRANCH   6  18
ATOM     18  N   UNL     1      34.591 -12.110 -23.420  0.00  0.00    -0.311 N 
ATOM     19  H   UNL     1      35.063 -11.832 -24.238  0.00  0.00    +0.152 HD
BRANCH  18  29
ATOM     20  S   UNL     1      32.228  -6.586 -21.667  0.00  0.00    -0.002 S 
ATOM     21  O   UNL     1      33.080  -5.953 -20.679  0.00  0.00    -0.172 OA
ATOM     22  O   UNL     1      31.184  -5.852 -22.352  0.00  0.00    -0.172 OA
ATOM     23  C   UNL     1      33.278  -7.350 -22.894  0.00  0.00    +0.177 C 
ATOM     24  C   UNL     1      31.503  -8.039 -20.925  0.00  0.00    +0.177 C 
ATOM     25  C   UNL     1      33.199  -8.796 -22.540  0.00  0.00    +0.000 C 
ATOM     26  C   UNL     1      32.292  -9.149 -21.534  0.00  0.00    -0.001 C 
ATOM     27  C   UNL     1      33.962  -9.777 -23.170  0.00  0.00    +0.012 C 
ATOM     28  C   UNL     1      32.146 -10.482 -21.156  0.00  0.00    -0.002 C 
ATOM     29  C   UNL     1      33.820 -11.111 -22.789  0.00  0.00    +0.048 C 
ATOM     30  C   UNL     1      32.914 -11.463 -21.784  0.00  0.00    +0.014 C 
ENDBRANCH  18  29
ENDBRANCH   6  18
TORSDOF 3
ENDMDL
