MODEL 1
REMARK VINA RESULT:     -12.1      0.000      0.000
REMARK  Name = 24988948
REMARK  5 active torsions:
REMARK  status: ('A' for Active; 'I' for Inactive)
REMARK    1  A    between atoms: N_2  and  C_21
REMARK    2  A    between atoms: C_6  and  O_11
REMARK    3  A    between atoms: O_11  and  C_13
REMARK    4  A    between atoms: C_16  and  C_20
REMARK    5  A    between atoms: C_21  and  C_25
REMARK                            x       y       z     vdW  Elec       q    Type
REMARK                         _______ _______ _______ _____ _____    ______ ____
ROOT
ATOM      1 CL   UNL     1      34.399 -14.885 -25.465  0.00  0.00    -0.079 Cl
ATOM      2  N   UNL     1      35.205 -18.595 -21.049  0.00  0.00    -0.205 N 
ATOM      3  N   UNL     1      35.762 -17.843 -20.085  0.00  0.00    -0.176 NA
ATOM      4  C   UNL     1      34.926 -17.913 -22.203  0.00  0.00    +0.074 C 
ATOM      5  C   UNL     1      35.337 -16.607 -21.964  0.00  0.00    +0.071 C 
ATOM      6  C   UNL     1      35.182 -15.641 -22.973  0.00  0.00    +0.158 C 
ATOM      7  C   UNL     1      35.840 -16.633 -20.646  0.00  0.00    +0.122 C 
ATOM      8  C   UNL     1      34.358 -18.324 -23.411  0.00  0.00    +0.017 C 
ATOM      9  C   UNL     1      34.615 -16.033 -24.192  0.00  0.00    +0.092 C 
ATOM     10  C   UNL     1      34.211 -17.351 -24.405  0.00  0.00    +0.016 C 
ENDROOT
BRANCH   6  11
ATOM     11  O   UNL     1      35.579 -14.348 -22.764  0.00  0.00    -0.453 OA
BRANCH  11  13
ATOM     12 CL   UNL     1      31.956 -13.262 -19.336  0.00  0.00    -0.082 Cl
ATOM     13  C   UNL     1      34.629 -13.457 -22.305  0.00  0.00    +0.147 C 
ATOM     14  C   UNL     1      34.435 -12.243 -22.963  0.00  0.00    +0.048 C 
ATOM     15  C   UNL     1      33.861 -13.772 -21.184  0.00  0.00    +0.049 C 
ATOM     16  C   UNL     1      33.475 -11.344 -22.500  0.00  0.00    +0.072 C 
ATOM     17  C   UNL     1      32.901 -12.873 -20.720  0.00  0.00    +0.061 C 
ATOM     18  C   UNL     1      32.708 -11.659 -21.378  0.00  0.00    +0.022 C 
BRANCH  16  20
ATOM     19  N   UNL     1      33.118  -9.089 -23.722  0.00  0.00    -0.191 NA
ATOM     20  C   UNL     1      33.278 -10.099 -23.175  0.00  0.00    +0.101 C 
ENDBRANCH  16  20
ENDBRANCH  11  13
ENDBRANCH   6  11
BRANCH   2  21
ATOM     21  C   UNL     1      34.962 -19.996 -20.794  0.00  0.00    +0.159 C 
BRANCH  21  25
ATOM     22  N   UNL     1      36.717 -20.140 -18.998  0.00  0.00    -0.230 N 
ATOM     23  N   UNL     1      37.013 -20.626 -17.774  0.00  0.00    -0.128 NA
ATOM     24  N   UNL     1      35.665 -21.961 -16.262  0.00  0.00    -0.192 NA
ATOM     25  C   UNL     1      35.465 -20.455 -19.448  0.00  0.00    +0.071 C 
ATOM     26  C   UNL     1      34.909 -21.196 -18.442  0.00  0.00    +0.058 C 
ATOM     27  C   UNL     1      35.902 -21.280 -17.419  0.00  0.00    +0.049 C 
ATOM     28  C   UNL     1      33.634 -21.744 -18.442  0.00  0.00    +0.065 C 
ATOM     29  C   UNL     1      33.413 -22.437 -17.247  0.00  0.00    +0.001 C 
ATOM     30  C   UNL     1      34.408 -22.510 -16.243  0.00  0.00    +0.105 C 
ATOM     31  H   UNL     1      37.353 -19.604 -19.525  0.00  0.00    +0.175 HD
ENDBRANCH  21  25
ENDBRANCH   2  21
TORSDOF 5
ENDMDL
MODEL 2
REMARK VINA RESULT:     -11.4      4.535      7.047
REMARK  Name = 24988948
REMARK  5 active torsions:
REMARK  status: ('A' for Active; 'I' for Inactive)
REMARK    1  A    between atoms: N_2  and  C_21
REMARK    2  A    between atoms: C_6  and  O_11
REMARK    3  A    between atoms: O_11  and  C_13
REMARK    4  A    between atoms: C_16  and  C_20
REMARK    5  A    between atoms: C_21  and  C_25
REMARK                            x       y       z     vdW  Elec       q    Type
REMARK                         _______ _______ _______ _____ _____    ______ ____
ROOT
ATOM      1 CL   UNL     1      30.366 -10.515 -18.889  0.00  0.00    -0.079 Cl
ATOM      2  N   UNL     1      34.219 -12.853 -22.576  0.00  0.00    -0.205 N 
ATOM      3  N   UNL     1      34.140 -12.077 -23.671  0.00  0.00    -0.176 NA
ATOM      4  C   UNL     1      33.381 -12.479 -21.561  0.00  0.00    +0.074 C 
ATOM      5  C   UNL     1      32.701 -11.365 -22.040  0.00  0.00    +0.071 C 
ATOM      6  C   UNL     1      31.751 -10.733 -21.220  0.00  0.00    +0.158 C 
ATOM      7  C   UNL     1      33.215 -11.172 -23.340  0.00  0.00    +0.122 C 
ATOM      8  C   UNL     1      33.167 -13.014 -20.289  0.00  0.00    +0.017 C 
ATOM      9  C   UNL     1      31.521 -11.254 -19.940  0.00  0.00    +0.092 C 
ATOM     10  C   UNL     1      32.218 -12.374 -19.484  0.00  0.00    +0.016 C 
ENDROOT
BRANCH   6  11
ATOM     11  O   UNL     1      31.067  -9.635 -21.666  0.00  0.00    -0.453 OA
BRANCH  11  13
ATOM     12 CL   UNL     1      33.439  -5.852 -24.141  0.00  0.00    -0.082 Cl
ATOM     13  C   UNL     1      31.712  -8.416 -21.602  0.00  0.00    +0.147 C 
ATOM     14  C   UNL     1      31.883  -7.781 -20.372  0.00  0.00    +0.048 C 
ATOM     15  C   UNL     1      32.194  -7.819 -22.767  0.00  0.00    +0.049 C 
ATOM     16  C   UNL     1      32.535  -6.550 -20.307  0.00  0.00    +0.072 C 
ATOM     17  C   UNL     1      32.845  -6.587 -22.703  0.00  0.00    +0.061 C 
ATOM     18  C   UNL     1      33.016  -5.953 -21.473  0.00  0.00    +0.022 C 
BRANCH  16  20
ATOM     19  N   UNL     1      32.850  -5.371 -18.023  0.00  0.00    -0.191 NA
ATOM     20  C   UNL     1      32.708  -5.899 -19.046  0.00  0.00    +0.101 C 
ENDBRANCH  16  20
ENDBRANCH  11  13
ENDBRANCH   6  11
BRANCH   2  21
ATOM     21  C   UNL     1      35.142 -13.966 -22.569  0.00  0.00    +0.159 C 
BRANCH  21  25
ATOM     22  N   UNL     1      34.218 -14.810 -24.752  0.00  0.00    -0.230 N 
ATOM     23  N   UNL     1      33.925 -15.908 -25.480  0.00  0.00    -0.128 NA
ATOM     24  N   UNL     1      34.202 -18.256 -24.937  0.00  0.00    -0.192 NA
ATOM     25  C   UNL     1      34.752 -15.070 -23.520  0.00  0.00    +0.071 C 
ATOM     26  C   UNL     1      34.810 -16.435 -23.446  0.00  0.00    +0.058 C 
ATOM     27  C   UNL     1      34.287 -16.920 -24.683  0.00  0.00    +0.049 C 
ATOM     28  C   UNL     1      35.286 -17.173 -22.373  0.00  0.00    +0.065 C 
ATOM     29  C   UNL     1      35.189 -18.541 -22.654  0.00  0.00    +0.001 C 
ATOM     30  C   UNL     1      34.669 -19.004 -23.886  0.00  0.00    +0.105 C 
ATOM     31  H   UNL     1      34.059 -13.896 -25.080  0.00  0.00    +0.175 HD
ENDBRANCH  21  25
ENDBRANCH   2  21
TORSDOF 5
ENDMDL
MODEL 3
REMARK VINA RESULT:     -11.0      4.548      6.881
REMARK  Name = 24988948
REMARK  5 active torsions:
REMARK  status: ('A' for Active; 'I' for Inactive)
REMARK    1  A    between atoms: N_2  and  C_21
REMARK    2  A    between atoms: C_6  and  O_11
REMARK    3  A    between atoms: O_11  and  C_13
REMARK    4  A    between atoms: C_16  and  C_20
REMARK    5  A    between atoms: C_21  and  C_25
REMARK                            x       y       z     vdW  Elec       q    Type
REMARK                         _______ _______ _______ _____ _____    ______ ____
ROOT
ATOM      1 CL   UNL     1      30.249 -10.479 -18.968  0.00  0.00    -0.079 Cl
ATOM      2  N   UNL     1      34.192 -12.772 -22.588  0.00  0.00    -0.205 N 
ATOM      3  N   UNL     1      34.147 -11.975 -23.670  0.00  0.00    -0.176 NA
ATOM      4  C   UNL     1      33.327 -12.411 -21.590  0.00  0.00    +0.074 C 
ATOM      5  C   UNL     1      32.667 -11.284 -22.067  0.00  0.00    +0.071 C 
ATOM      6  C   UNL     1      31.698 -10.663 -21.262  0.00  0.00    +0.158 C 
ATOM      7  C   UNL     1      33.219 -11.071 -23.348  0.00  0.00    +0.122 C 
ATOM      8  C   UNL     1      33.074 -12.968 -20.335  0.00  0.00    +0.017 C 
ATOM      9  C   UNL     1      31.429 -11.205 -19.999  0.00  0.00    +0.092 C 
ATOM     10  C   UNL     1      32.106 -12.338 -19.545  0.00  0.00    +0.016 C 
ENDROOT
BRANCH   6  11
ATOM     11  O   UNL     1      31.033  -9.552 -21.707  0.00  0.00    -0.453 OA
BRANCH  11  13
ATOM     12 CL   UNL     1      33.187  -5.994 -18.747  0.00  0.00    -0.082 Cl
ATOM     13  C   UNL     1      31.690  -8.340 -21.620  0.00  0.00    +0.147 C 
ATOM     14  C   UNL     1      31.978  -7.618 -22.778  0.00  0.00    +0.048 C 
ATOM     15  C   UNL     1      32.063  -7.837 -20.374  0.00  0.00    +0.049 C 
ATOM     16  C   UNL     1      32.640  -6.394 -22.690  0.00  0.00    +0.072 C 
ATOM     17  C   UNL     1      32.726  -6.613 -20.285  0.00  0.00    +0.061 C 
ATOM     18  C   UNL     1      33.014  -5.891 -21.443  0.00  0.00    +0.022 C 
BRANCH  16  20
ATOM     19  N   UNL     1      33.178  -5.055 -24.839  0.00  0.00    -0.191 NA
ATOM     20  C   UNL     1      32.937  -5.655 -23.876  0.00  0.00    +0.101 C 
ENDBRANCH  16  20
ENDBRANCH  11  13
ENDBRANCH   6  11
BRANCH   2  21
ATOM     21  C   UNL     1      35.107 -13.890 -22.576  0.00  0.00    +0.159 C 
BRANCH  21  25
ATOM     22  N   UNL     1      34.076 -14.769 -24.696  0.00  0.00    -0.230 N 
ATOM     23  N   UNL     1      33.775 -15.878 -25.404  0.00  0.00    -0.128 NA
ATOM     24  N   UNL     1      34.164 -18.214 -24.880  0.00  0.00    -0.192 NA
ATOM     25  C   UNL     1      34.696 -15.009 -23.500  0.00  0.00    +0.071 C 
ATOM     26  C   UNL     1      34.803 -16.370 -23.430  0.00  0.00    +0.058 C 
ATOM     27  C   UNL     1      34.220 -16.875 -24.632  0.00  0.00    +0.049 C 
ATOM     28  C   UNL     1      35.370 -17.091 -22.389  0.00  0.00    +0.065 C 
ATOM     29  C   UNL     1      35.302 -18.461 -22.664  0.00  0.00    +0.001 C 
ATOM     30  C   UNL     1      34.721 -18.943 -23.860  0.00  0.00    +0.105 C 
ATOM     31  H   UNL     1      33.866 -13.861 -25.014  0.00  0.00    +0.175 HD
ENDBRANCH  21  25
ENDBRANCH   2  21
TORSDOF 5
ENDMDL
MODEL 4
REMARK VINA RESULT:     -10.9      1.987      3.213
REMARK  Name = 24988948
REMARK  5 active torsions:
REMARK  status: ('A' for Active; 'I' for Inactive)
REMARK    1  A    between atoms: N_2  and  C_21
REMARK    2  A    between atoms: C_6  and  O_11
REMARK    3  A    between atoms: O_11  and  C_13
REMARK    4  A    between atoms: C_16  and  C_20
REMARK    5  A    between atoms: C_21  and  C_25
REMARK                            x       y       z     vdW  Elec       q    Type
REMARK                         _______ _______ _______ _____ _____    ______ ____
ROOT
ATOM      1 CL   UNL     1      33.484 -11.231 -25.851  0.00  0.00    -0.079 Cl
ATOM      2  N   UNL     1      34.748 -15.862 -22.554  0.00  0.00    -0.205 N 
ATOM      3  N   UNL     1      35.222 -15.333 -21.412  0.00  0.00    -0.176 NA
ATOM      4  C   UNL     1      34.383 -14.934 -23.492  0.00  0.00    +0.074 C 
ATOM      5  C   UNL     1      34.642 -13.700 -22.907  0.00  0.00    +0.071 C 
ATOM      6  C   UNL     1      34.369 -12.526 -23.628  0.00  0.00    +0.158 C 
ATOM      7  C   UNL     1      35.155 -14.018 -21.631  0.00  0.00    +0.122 C 
ATOM      8  C   UNL     1      33.857 -15.073 -24.778  0.00  0.00    +0.017 C 
ATOM      9  C   UNL     1      33.841 -12.642 -24.921  0.00  0.00    +0.092 C 
ATOM     10  C   UNL     1      33.590 -13.894 -25.484  0.00  0.00    +0.016 C 
ENDROOT
BRANCH   6  11
ATOM     11  O   UNL     1      34.615 -11.298 -23.077  0.00  0.00    -0.453 OA
BRANCH  11  13
ATOM     12 CL   UNL     1      30.530 -10.924 -20.038  0.00  0.00    -0.082 Cl
ATOM     13  C   UNL     1      33.526 -10.557 -22.663  0.00  0.00    +0.147 C 
ATOM     14  C   UNL     1      33.274  -9.309 -23.233  0.00  0.00    +0.048 C 
ATOM     15  C   UNL     1      32.677 -11.056 -21.675  0.00  0.00    +0.049 C 
ATOM     16  C   UNL     1      32.174  -8.561 -22.816  0.00  0.00    +0.072 C 
ATOM     17  C   UNL     1      31.576 -10.308 -21.257  0.00  0.00    +0.061 C 
ATOM     18  C   UNL     1      31.324  -9.060 -21.828  0.00  0.00    +0.022 C 
BRANCH  16  20
ATOM     19  N   UNL     1      31.707  -6.244 -23.874  0.00  0.00    -0.191 NA
ATOM     20  C   UNL     1      31.916  -7.282 -23.400  0.00  0.00    +0.101 C 
ENDBRANCH  16  20
ENDBRANCH  11  13
ENDBRANCH   6  11
BRANCH   2  21
ATOM     21  C   UNL     1      34.671 -17.299 -22.683  0.00  0.00    +0.159 C 
BRANCH  21  25
ATOM     22  N   UNL     1      36.796 -17.837 -21.450  0.00  0.00    -0.230 N 
ATOM     23  N   UNL     1      37.349 -18.574 -20.464  0.00  0.00    -0.128 NA
ATOM     24  N   UNL     1      36.328 -20.187 -18.967  0.00  0.00    -0.192 NA
ATOM     25  C   UNL     1      35.455 -18.037 -21.627  0.00  0.00    +0.071 C 
ATOM     26  C   UNL     1      35.114 -18.970 -20.687  0.00  0.00    +0.058 C 
ATOM     27  C   UNL     1      36.318 -19.279 -19.983  0.00  0.00    +0.049 C 
ATOM     28  C   UNL     1      33.847 -19.493 -20.480  0.00  0.00    +0.065 C 
ATOM     29  C   UNL     1      33.879 -20.422 -19.434  0.00  0.00    +0.001 C 
ATOM     30  C   UNL     1      35.081 -20.716 -18.748  0.00  0.00    +0.105 C 
ATOM     31  H   UNL     1      37.318 -17.207 -21.999  0.00  0.00    +0.175 HD
ENDBRANCH  21  25
ENDBRANCH   2  21
TORSDOF 5
ENDMDL
MODEL 5
REMARK VINA RESULT:     -10.8      4.881     10.811
REMARK  Name = 24988948
REMARK  5 active torsions:
REMARK  status: ('A' for Active; 'I' for Inactive)
REMARK    1  A    between atoms: N_2  and  C_21
REMARK    2  A    between atoms: C_6  and  O_11
REMARK    3  A    between atoms: O_11  and  C_13
REMARK    4  A    between atoms: C_16  and  C_20
REMARK    5  A    between atoms: C_21  and  C_25
REMARK                            x       y       z     vdW  Elec       q    Type
REMARK                         _______ _______ _______ _____ _____    ______ ____
ROOT
ATOM      1 CL   UNL     1      33.851 -23.182 -14.252  0.00  0.00    -0.079 Cl
ATOM      2  N   UNL     1      35.893 -20.613 -19.063  0.00  0.00    -0.205 N 
ATOM      3  N   UNL     1      37.074 -20.096 -18.684  0.00  0.00    -0.176 NA
ATOM      4  C   UNL     1      35.225 -21.275 -18.068  0.00  0.00    +0.074 C 
ATOM      5  C   UNL     1      36.044 -21.178 -16.950  0.00  0.00    +0.071 C 
ATOM      6  C   UNL     1      35.634 -21.767 -15.742  0.00  0.00    +0.158 C 
ATOM      7  C   UNL     1      37.163 -20.442 -17.397  0.00  0.00    +0.122 C 
ATOM      8  C   UNL     1      33.995 -21.937 -18.057  0.00  0.00    +0.017 C 
ATOM      9  C   UNL     1      34.403 -22.437 -15.709  0.00  0.00    +0.092 C 
ATOM     10  C   UNL     1      33.600 -22.519 -16.848  0.00  0.00    +0.016 C 
ENDROOT
BRANCH   6  11
ATOM     11  O   UNL     1      36.421 -21.686 -14.626  0.00  0.00    -0.453 OA
BRANCH  11  13
ATOM     12 CL   UNL     1      38.222 -26.461 -14.472  0.00  0.00    -0.082 Cl
ATOM     13  C   UNL     1      36.613 -22.844 -13.898  0.00  0.00    +0.147 C 
ATOM     14  C   UNL     1      36.171 -22.918 -12.576  0.00  0.00    +0.048 C 
ATOM     15  C   UNL     1      37.246 -23.940 -14.483  0.00  0.00    +0.049 C 
ATOM     16  C   UNL     1      36.364 -24.088 -11.841  0.00  0.00    +0.072 C 
ATOM     17  C   UNL     1      37.440 -25.110 -13.749  0.00  0.00    +0.061 C 
ATOM     18  C   UNL     1      36.998 -25.184 -12.427  0.00  0.00    +0.022 C 
BRANCH  16  20
ATOM     19  N   UNL     1      35.547 -24.223  -9.389  0.00  0.00    -0.191 NA
ATOM     20  C   UNL     1      35.912 -24.163 -10.487  0.00  0.00    +0.101 C 
ENDBRANCH  16  20
ENDBRANCH  11  13
ENDBRANCH   6  11
BRANCH   2  21
ATOM     21  C   UNL     1      35.453 -20.431 -20.427  0.00  0.00    +0.159 C 
BRANCH  21  25
ATOM     22  N   UNL     1      35.782 -17.972 -20.014  0.00  0.00    -0.230 N 
ATOM     23  N   UNL     1      35.716 -16.738 -20.558  0.00  0.00    -0.128 NA
ATOM     24  N   UNL     1      35.083 -16.057 -22.798  0.00  0.00    -0.192 NA
ATOM     25  C   UNL     1      35.437 -18.987 -20.863  0.00  0.00    +0.071 C 
ATOM     26  C   UNL     1      35.125 -18.367 -22.041  0.00  0.00    +0.058 C 
ATOM     27  C   UNL     1      35.311 -16.969 -21.812  0.00  0.00    +0.049 C 
ATOM     28  C   UNL     1      34.714 -18.993 -23.208  0.00  0.00    +0.065 C 
ATOM     29  C   UNL     1      34.485 -18.039 -24.206  0.00  0.00    +0.001 C 
ATOM     30  C   UNL     1      34.675 -16.658 -23.962  0.00  0.00    +0.105 C 
ATOM     31  H   UNL     1      36.056 -18.128 -19.081  0.00  0.00    +0.175 HD
ENDBRANCH  21  25
ENDBRANCH   2  21
TORSDOF 5
ENDMDL
MODEL 6
REMARK VINA RESULT:     -10.7      1.510      2.170
REMARK  Name = 24988948
REMARK  5 active torsions:
REMARK  status: ('A' for Active; 'I' for Inactive)
REMARK    1  A    between atoms: N_2  and  C_21
REMARK    2  A    between atoms: C_6  and  O_11
REMARK    3  A    between atoms: O_11  and  C_13
REMARK    4  A    between atoms: C_16  and  C_20
REMARK    5  A    between atoms: C_21  and  C_25
REMARK                            x       y       z     vdW  Elec       q    Type
REMARK                         _______ _______ _______ _____ _____    ______ ____
ROOT
ATOM      1 CL   UNL     1      33.706 -12.973 -25.593  0.00  0.00    -0.079 Cl
ATOM      2  N   UNL     1      35.154 -17.448 -22.159  0.00  0.00    -0.205 N 
ATOM      3  N   UNL     1      35.637 -16.867 -21.048  0.00  0.00    -0.176 NA
ATOM      4  C   UNL     1      34.746 -16.565 -23.122  0.00  0.00    +0.074 C 
ATOM      5  C   UNL     1      34.986 -15.304 -22.588  0.00  0.00    +0.071 C 
ATOM      6  C   UNL     1      34.668 -14.164 -23.345  0.00  0.00    +0.158 C 
ATOM      7  C   UNL     1      35.533 -15.562 -21.313  0.00  0.00    +0.122 C 
ATOM      8  C   UNL     1      34.199 -16.763 -24.392  0.00  0.00    +0.017 C 
ATOM      9  C   UNL     1      34.118 -14.340 -24.621  0.00  0.00    +0.092 C 
ATOM     10  C   UNL     1      33.888 -15.618 -25.133  0.00  0.00    +0.016 C 
ENDROOT
BRANCH   6  11
ATOM     11  O   UNL     1      34.895 -12.911 -22.843  0.00  0.00    -0.453 OA
BRANCH  11  13
ATOM     12 CL   UNL     1      31.819 -13.252 -18.782  0.00  0.00    -0.082 Cl
ATOM     13  C   UNL     1      33.895 -12.342 -22.078  0.00  0.00    +0.147 C 
ATOM     14  C   UNL     1      33.361 -11.104 -22.437  0.00  0.00    +0.048 C 
ATOM     15  C   UNL     1      33.417 -13.006 -20.949  0.00  0.00    +0.049 C 
ATOM     16  C   UNL     1      32.351 -10.530 -21.666  0.00  0.00    +0.072 C 
ATOM     17  C   UNL     1      32.407 -12.432 -20.176  0.00  0.00    +0.061 C 
ATOM     18  C   UNL     1      31.874 -11.194 -20.535  0.00  0.00    +0.022 C 
BRANCH  16  20
ATOM     19  N   UNL     1      31.363  -8.232 -22.330  0.00  0.00    -0.191 NA
ATOM     20  C   UNL     1      31.806  -9.261 -22.033  0.00  0.00    +0.101 C 
ENDBRANCH  16  20
ENDBRANCH  11  13
ENDBRANCH   6  11
BRANCH   2  21
ATOM     21  C   UNL     1      35.111 -18.890 -22.236  0.00  0.00    +0.159 C 
BRANCH  21  25
ATOM     22  N   UNL     1      33.208 -19.619 -20.759  0.00  0.00    -0.230 N 
ATOM     23  N   UNL     1      32.874 -20.228 -19.602  0.00  0.00    -0.128 NA
ATOM     24  N   UNL     1      34.291 -21.195 -17.887  0.00  0.00    -0.192 NA
ATOM     25  C   UNL     1      34.553 -19.538 -20.992  0.00  0.00    +0.071 C 
ATOM     26  C   UNL     1      35.132 -20.138 -19.908  0.00  0.00    +0.058 C 
ATOM     27  C   UNL     1      34.056 -20.555 -19.067  0.00  0.00    +0.049 C 
ATOM     28  C   UNL     1      36.493 -20.298 -19.695  0.00  0.00    +0.065 C 
ATOM     29  C   UNL     1      36.712 -20.957 -18.480  0.00  0.00    +0.001 C 
ATOM     30  C   UNL     1      35.633 -21.362 -17.658  0.00  0.00    +0.105 C 
ATOM     31  H   UNL     1      32.537 -19.261 -21.385  0.00  0.00    +0.175 HD
ENDBRANCH  21  25
ENDBRANCH   2  21
TORSDOF 5
ENDMDL
MODEL 7
REMARK VINA RESULT:     -10.6      3.203      5.165
REMARK  Name = 24988948
REMARK  5 active torsions:
REMARK  status: ('A' for Active; 'I' for Inactive)
REMARK    1  A    between atoms: N_2  and  C_21
REMARK    2  A    between atoms: C_6  and  O_11
REMARK    3  A    between atoms: O_11  and  C_13
REMARK    4  A    between atoms: C_16  and  C_20
REMARK    5  A    between atoms: C_21  and  C_25
REMARK                            x       y       z     vdW  Elec       q    Type
REMARK                         _______ _______ _______ _____ _____    ______ ____
ROOT
ATOM      1 CL   UNL     1      37.938 -18.387 -21.046  0.00  0.00    -0.079 Cl
ATOM      2  N   UNL     1      34.148 -21.600 -18.007  0.00  0.00    -0.205 N 
ATOM      3  N   UNL     1      33.055 -21.644 -18.788  0.00  0.00    -0.176 NA
ATOM      4  C   UNL     1      35.186 -20.880 -18.536  0.00  0.00    +0.074 C 
ATOM      5  C   UNL     1      34.724 -20.420 -19.763  0.00  0.00    +0.071 C 
ATOM      6  C   UNL     1      35.570 -19.636 -20.567  0.00  0.00    +0.158 C 
ATOM      7  C   UNL     1      33.410 -20.925 -19.856  0.00  0.00    +0.122 C 
ATOM      8  C   UNL     1      36.465 -20.601 -18.049  0.00  0.00    +0.017 C 
ATOM      9  C   UNL     1      36.857 -19.345 -20.097  0.00  0.00    +0.092 C 
ATOM     10  C   UNL     1      37.295 -19.819 -18.860  0.00  0.00    +0.016 C 
ENDROOT
BRANCH   6  11
ATOM     11  O   UNL     1      35.140 -19.170 -21.780  0.00  0.00    -0.453 OA
BRANCH  11  13
ATOM     12 CL   UNL     1      35.112 -14.545 -19.618  0.00  0.00    -0.082 Cl
ATOM     13  C   UNL     1      35.057 -17.801 -21.941  0.00  0.00    +0.147 C 
ATOM     14  C   UNL     1      34.908 -17.257 -23.217  0.00  0.00    +0.048 C 
ATOM     15  C   UNL     1      35.119 -16.962 -20.829  0.00  0.00    +0.049 C 
ATOM     16  C   UNL     1      34.823 -15.875 -23.380  0.00  0.00    +0.072 C 
ATOM     17  C   UNL     1      35.034 -15.579 -20.991  0.00  0.00    +0.061 C 
ATOM     18  C   UNL     1      34.886 -15.035 -22.267  0.00  0.00    +0.022 C 
BRANCH  16  20
ATOM     19  N   UNL     1      34.549 -14.866 -25.749  0.00  0.00    -0.191 NA
ATOM     20  C   UNL     1      34.672 -15.318 -24.688  0.00  0.00    +0.101 C 
ENDBRANCH  16  20
ENDBRANCH  11  13
ENDBRANCH   6  11
BRANCH   2  21
ATOM     21  C   UNL     1      34.131 -22.284 -16.735  0.00  0.00    +0.159 C 
BRANCH  21  25
ATOM     22  N   UNL     1      31.636 -21.975 -16.807  0.00  0.00    -0.230 N 
ATOM     23  N   UNL     1      30.470 -22.224 -16.174  0.00  0.00    -0.128 NA
ATOM     24  N   UNL     1      30.046 -23.408 -14.100  0.00  0.00    -0.192 NA
ATOM     25  C   UNL     1      32.743 -22.468 -16.173  0.00  0.00    +0.071 C 
ATOM     26  C   UNL     1      32.259 -23.081 -15.051  0.00  0.00    +0.058 C 
ATOM     27  C   UNL     1      30.842 -22.909 -15.087  0.00  0.00    +0.049 C 
ATOM     28  C   UNL     1      33.015 -23.733 -14.088  0.00  0.00    +0.065 C 
ATOM     29  C   UNL     1      32.180 -24.237 -13.085  0.00  0.00    +0.001 C 
ATOM     30  C   UNL     1      30.777 -24.057 -13.137  0.00  0.00    +0.105 C 
ATOM     31  H   UNL     1      31.685 -21.477 -17.655  0.00  0.00    +0.175 HD
ENDBRANCH  21  25
ENDBRANCH   2  21
TORSDOF 5
ENDMDL
MODEL 8
REMARK VINA RESULT:     -10.4      3.605      6.341
REMARK  Name = 24988948
REMARK  5 active torsions:
REMARK  status: ('A' for Active; 'I' for Inactive)
REMARK    1  A    between atoms: N_2  and  C_21
REMARK    2  A    between atoms: C_6  and  O_11
REMARK    3  A    between atoms: O_11  and  C_13
REMARK    4  A    between atoms: C_16  and  C_20
REMARK    5  A    between atoms: C_21  and  C_25
REMARK                            x       y       z     vdW  Elec       q    Type
REMARK                         _______ _______ _______ _____ _____    ______ ____
ROOT
ATOM      1 CL   UNL     1      33.656  -7.029 -23.991  0.00  0.00    -0.079 Cl
ATOM      2  N   UNL     1      33.887 -12.725 -22.799  0.00  0.00    -0.205 N 
ATOM      3  N   UNL     1      32.835 -12.934 -21.989  0.00  0.00    -0.176 NA
ATOM      4  C   UNL     1      34.029 -11.426 -23.210  0.00  0.00    +0.074 C 
ATOM      5  C   UNL     1      32.979 -10.737 -22.615  0.00  0.00    +0.071 C 
ATOM      6  C   UNL     1      32.843  -9.358 -22.845  0.00  0.00    +0.158 C 
ATOM      7  C   UNL     1      32.285 -11.722 -21.879  0.00  0.00    +0.122 C 
ATOM      8  C   UNL     1      34.972 -10.813 -24.037  0.00  0.00    +0.017 C 
ATOM      9  C   UNL     1      33.778  -8.722 -23.672  0.00  0.00    +0.092 C 
ATOM     10  C   UNL     1      34.823  -9.439 -24.257  0.00  0.00    +0.016 C 
ENDROOT
BRANCH   6  11
ATOM     11  O   UNL     1      31.818  -8.655 -22.271  0.00  0.00    -0.453 OA
BRANCH  11  13
ATOM     12 CL   UNL     1      31.565 -10.454 -17.500  0.00  0.00    -0.082 Cl
ATOM     13  C   UNL     1      31.903  -8.401 -20.916  0.00  0.00    +0.147 C 
ATOM     14  C   UNL     1      32.176  -7.109 -20.464  0.00  0.00    +0.048 C 
ATOM     15  C   UNL     1      31.713  -9.434 -19.999  0.00  0.00    +0.049 C 
ATOM     16  C   UNL     1      32.261  -6.852 -19.096  0.00  0.00    +0.072 C 
ATOM     17  C   UNL     1      31.798  -9.178 -18.630  0.00  0.00    +0.061 C 
ATOM     18  C   UNL     1      32.071  -7.886 -18.179  0.00  0.00    +0.022 C 
BRANCH  16  20
ATOM     19  N   UNL     1      32.769  -4.456 -18.259  0.00  0.00    -0.191 NA
ATOM     20  C   UNL     1      32.542  -5.529 -18.634  0.00  0.00    +0.101 C 
ENDBRANCH  16  20
ENDBRANCH  11  13
ENDBRANCH   6  11
BRANCH   2  21
ATOM     21  C   UNL     1      34.737 -13.839 -23.148  0.00  0.00    +0.159 C 
BRANCH  21  25
ATOM     22  N   UNL     1      35.003 -14.367 -20.703  0.00  0.00    -0.230 N 
ATOM     23  N   UNL     1      35.225 -15.343 -19.797  0.00  0.00    -0.128 NA
ATOM     24  N   UNL     1      35.578 -17.720 -20.127  0.00  0.00    -0.192 NA
ATOM     25  C   UNL     1      34.974 -14.791 -22.002  0.00  0.00    +0.071 C 
ATOM     26  C   UNL     1      35.193 -16.140 -21.934  0.00  0.00    +0.058 C 
ATOM     27  C   UNL     1      35.344 -16.445 -20.547  0.00  0.00    +0.049 C 
ATOM     28  C   UNL     1      35.251 -17.012 -23.010  0.00  0.00    +0.065 C 
ATOM     29  C   UNL     1      35.492 -18.314 -22.558  0.00  0.00    +0.001 C 
ATOM     30  C   UNL     1      35.639 -18.598 -21.179  0.00  0.00    +0.105 C 
ATOM     31  H   UNL     1      34.873 -13.425 -20.447  0.00  0.00    +0.175 HD
ENDBRANCH  21  25
ENDBRANCH   2  21
TORSDOF 5
ENDMDL
MODEL 9
REMARK VINA RESULT:     -10.4      5.779     11.020
REMARK  Name = 24988948
REMARK  5 active torsions:
REMARK  status: ('A' for Active; 'I' for Inactive)
REMARK    1  A    between atoms: N_2  and  C_21
REMARK    2  A    between atoms: C_6  and  O_11
REMARK    3  A    between atoms: O_11  and  C_13
REMARK    4  A    between atoms: C_16  and  C_20
REMARK    5  A    between atoms: C_21  and  C_25
REMARK                            x       y       z     vdW  Elec       q    Type
REMARK                         _______ _______ _______ _____ _____    ______ ____
ROOT
ATOM      1 CL   UNL     1      31.023 -23.771 -12.879  0.00  0.00    -0.079 Cl
ATOM      2  N   UNL     1      34.342 -21.892 -17.280  0.00  0.00    -0.205 N 
ATOM      3  N   UNL     1      35.589 -21.902 -16.778  0.00  0.00    -0.176 NA
ATOM      4  C   UNL     1      33.380 -22.305 -16.398  0.00  0.00    +0.074 C 
ATOM      5  C   UNL     1      34.063 -22.608 -15.226  0.00  0.00    +0.071 C 
ATOM      6  C   UNL     1      33.344 -23.068 -14.110  0.00  0.00    +0.158 C 
ATOM      7  C   UNL     1      35.415 -22.338 -15.528  0.00  0.00    +0.122 C 
ATOM      8  C   UNL     1      31.995 -22.436 -16.529  0.00  0.00    +0.017 C 
ATOM      9  C   UNL     1      31.955 -23.207 -14.220  0.00  0.00    +0.092 C 
ATOM     10  C   UNL     1      31.294 -22.895 -15.409  0.00  0.00    +0.016 C 
ENDROOT
BRANCH   6  11
ATOM     11  O   UNL     1      33.992 -23.373 -12.943  0.00  0.00    -0.453 OA
BRANCH  11  13
ATOM     12 CL   UNL     1      37.330 -26.628 -15.023  0.00  0.00    -0.082 Cl
ATOM     13  C   UNL     1      35.298 -23.813 -13.038  0.00  0.00    +0.147 C 
ATOM     14  C   UNL     1      36.297 -23.195 -12.285  0.00  0.00    +0.048 C 
ATOM     15  C   UNL     1      35.618 -24.874 -13.883  0.00  0.00    +0.049 C 
ATOM     16  C   UNL     1      37.616 -23.639 -12.379  0.00  0.00    +0.072 C 
ATOM     17  C   UNL     1      36.937 -25.319 -13.978  0.00  0.00    +0.061 C 
ATOM     18  C   UNL     1      37.936 -24.701 -13.226  0.00  0.00    +0.022 C 
BRANCH  16  20
ATOM     19  N   UNL     1      39.471 -22.492 -10.985  0.00  0.00    -0.191 NA
ATOM     20  C   UNL     1      38.640 -23.005 -11.609  0.00  0.00    +0.101 C 
ENDBRANCH  16  20
ENDBRANCH  11  13
ENDBRANCH   6  11
BRANCH   2  21
ATOM     21  C   UNL     1      34.137 -21.465 -18.645  0.00  0.00    +0.159 C 
BRANCH  21  25
ATOM     22  N   UNL     1      36.386 -20.348 -18.498  0.00  0.00    -0.230 N 
ATOM     23  N   UNL     1      37.209 -19.435 -19.056  0.00  0.00    -0.128 NA
ATOM     24  N   UNL     1      36.874 -18.020 -20.998  0.00  0.00    -0.192 NA
ATOM     25  C   UNL     1      35.182 -20.490 -19.129  0.00  0.00    +0.071 C 
ATOM     26  C   UNL     1      35.227 -19.607 -20.172  0.00  0.00    +0.058 C 
ATOM     27  C   UNL     1      36.503 -18.970 -20.093  0.00  0.00    +0.049 C 
ATOM     28  C   UNL     1      34.223 -19.392 -21.104  0.00  0.00    +0.065 C 
ATOM     29  C   UNL     1      34.623 -18.415 -22.022  0.00  0.00    +0.001 C 
ATOM     30  C   UNL     1      35.892 -17.794 -21.929  0.00  0.00    +0.105 C 
ATOM     31  H   UNL     1      36.634 -20.868 -17.699  0.00  0.00    +0.175 HD
ENDBRANCH  21  25
ENDBRANCH   2  21
TORSDOF 5
ENDMDL
