MODEL 1
REMARK VINA RESULT:     -12.6      0.000      0.000
REMARK  Name = 11167118
REMARK  6 active torsions:
REMARK  status: ('A' for Active; 'I' for Inactive)
REMARK    1  A    between atoms: N_2  and  C_6
REMARK    2  A    between atoms: N_2  and  C_15
REMARK    3  A    between atoms: C_8  and  O_25
REMARK    4  A    between atoms: C_17  and  C_24
REMARK    5  A    between atoms: O_25  and  C_27
REMARK    6  A    between atoms: C_30  and  C_34
REMARK                            x       y       z     vdW  Elec       q    Type
REMARK                         _______ _______ _______ _____ _____    ______ ____
ROOT
ATOM      1  N   UNL     1      35.278 -21.767 -17.541  0.00  0.00    -0.302 N 
ATOM      2  N   UNL     1      33.068 -21.824 -17.775  0.00  0.00    -0.302 N 
ATOM      3  C   UNL     1      35.001 -20.947 -18.605  0.00  0.00    +0.063 C 
ATOM      4  C   UNL     1      33.615 -21.000 -18.731  0.00  0.00    +0.060 C 
ATOM      5  C   UNL     1      34.093 -22.267 -17.079  0.00  0.00    +0.225 C 
ATOM      6  C   UNL     1      35.818 -20.186 -19.444  0.00  0.00    +0.053 C 
ATOM      7  C   UNL     1      35.180 -19.453 -20.449  0.00  0.00    +0.147 C 
ATOM      8  C   UNL     1      32.991 -20.257 -19.747  0.00  0.00    +0.019 C 
ATOM      9  C   UNL     1      33.791 -19.487 -20.600  0.00  0.00    +0.039 C 
ATOM     10  H   UNL     1      36.171 -21.959 -17.176  0.00  0.00    +0.150 HD
ATOM     11  H   UNL     1      32.117 -22.038 -17.640  0.00  0.00    +0.150 HD
ENDROOT
BRANCH   5  12
ATOM     12  N   UNL     1      34.121 -23.108 -16.022  0.00  0.00    -0.303 N 
ATOM     13  H   UNL     1      33.315 -23.661 -15.912  0.00  0.00    +0.150 HD
BRANCH  12  15
ATOM     14 CL   UNL     1      38.322 -23.954 -11.930  0.00  0.00    -0.082 Cl
ATOM     15  C   UNL     1      35.132 -23.321 -15.042  0.00  0.00    +0.047 C 
ATOM     16  C   UNL     1      35.806 -24.533 -15.007  0.00  0.00    +0.019 C 
ATOM     17  C   UNL     1      36.797 -24.741 -14.047  0.00  0.00    +0.083 C 
ATOM     18  C   UNL     1      35.428 -22.311 -14.137  0.00  0.00    +0.015 C 
ATOM     19  C   UNL     1      37.103 -23.733 -13.131  0.00  0.00    +0.062 C 
ATOM     20  C   UNL     1      36.418 -22.519 -13.176  0.00  0.00    +0.013 C 
BRANCH  17  24
ATOM     21  F   UNL     1      38.849 -25.912 -14.149  0.00  0.00    -0.166 F 
ATOM     22  F   UNL     1      37.287 -26.748 -12.889  0.00  0.00    -0.166 F 
ATOM     23  F   UNL     1      37.098 -26.841 -15.058  0.00  0.00    -0.166 F 
ATOM     24  C   UNL     1      37.507 -26.056 -14.033  0.00  0.00    +0.419 C 
ENDBRANCH  17  24
ENDBRANCH  12  15
ENDBRANCH   5  12
BRANCH   7  25
ATOM     25  O   UNL     1      35.928 -18.693 -21.298  0.00  0.00    -0.453 OA
BRANCH  25  27
ATOM     26  N   UNL     1      34.797 -14.731 -21.840  0.00  0.00    -0.239 NA
ATOM     27  C   UNL     1      35.552 -17.374 -21.478  0.00  0.00    +0.149 C 
ATOM     28  C   UNL     1      35.278 -16.918 -22.750  0.00  0.00    +0.061 C 
ATOM     29  C   UNL     1      35.457 -16.543 -20.382  0.00  0.00    +0.058 C 
ATOM     30  C   UNL     1      34.906 -15.590 -22.878  0.00  0.00    +0.137 C 
ATOM     31  C   UNL     1      35.077 -15.231 -20.615  0.00  0.00    +0.102 C 
BRANCH  30  34
ATOM     32  O   UNL     1      34.904 -15.658 -25.222  0.00  0.00    -0.268 OA
ATOM     33  N   UNL     1      33.943 -13.802 -24.219  0.00  0.00    -0.298 N 
ATOM     34  C   UNL     1      34.602 -15.037 -24.187  0.00  0.00    +0.264 C 
ATOM     35  C   UNL     1      33.553 -13.135 -25.441  0.00  0.00    +0.111 C 
ATOM     36  H   UNL     1      33.733 -13.364 -23.363  0.00  0.00    +0.150 HD
ENDBRANCH  30  34
ENDBRANCH  25  27
ENDBRANCH   7  25
TORSDOF 6
ENDMDL
MODEL 2
REMARK VINA RESULT:     -12.6      3.755      4.508
REMARK  Name = 11167118
REMARK  6 active torsions:
REMARK  status: ('A' for Active; 'I' for Inactive)
REMARK    1  A    between atoms: N_2  and  C_6
REMARK    2  A    between atoms: N_2  and  C_15
REMARK    3  A    between atoms: C_8  and  O_25
REMARK    4  A    between atoms: C_17  and  C_24
REMARK    5  A    between atoms: O_25  and  C_27
REMARK    6  A    between atoms: C_30  and  C_34
REMARK                            x       y       z     vdW  Elec       q    Type
REMARK                         _______ _______ _______ _____ _____    ______ ____
ROOT
ATOM      1  N   UNL     1      33.648 -20.882 -19.493  0.00  0.00    -0.302 N 
ATOM      2  N   UNL     1      35.481 -21.342 -18.322  0.00  0.00    -0.302 N 
ATOM      3  C   UNL     1      34.605 -20.017 -19.956  0.00  0.00    +0.063 C 
ATOM      4  C   UNL     1      35.740 -20.323 -19.209  0.00  0.00    +0.060 C 
ATOM      5  C   UNL     1      34.218 -21.653 -18.518  0.00  0.00    +0.225 C 
ATOM      6  C   UNL     1      34.578 -19.021 -20.934  0.00  0.00    +0.053 C 
ATOM      7  C   UNL     1      35.767 -18.317 -21.149  0.00  0.00    +0.147 C 
ATOM      8  C   UNL     1      36.926 -19.606 -19.439  0.00  0.00    +0.019 C 
ATOM      9  C   UNL     1      36.921 -18.602 -20.416  0.00  0.00    +0.039 C 
ATOM     10  H   UNL     1      32.717 -20.938 -19.806  0.00  0.00    +0.150 HD
ATOM     11  H   UNL     1      36.104 -21.751 -17.679  0.00  0.00    +0.150 HD
ENDROOT
BRANCH   5  12
ATOM     12  N   UNL     1      33.454 -22.588 -17.913  0.00  0.00    -0.303 N 
ATOM     13  H   UNL     1      33.248 -23.376 -18.466  0.00  0.00    +0.150 HD
BRANCH  12  15
ATOM     14 CL   UNL     1      31.184 -22.711 -12.440  0.00  0.00    -0.082 Cl
ATOM     15  C   UNL     1      32.899 -22.616 -16.602  0.00  0.00    +0.047 C 
ATOM     16  C   UNL     1      31.530 -22.468 -16.435  0.00  0.00    +0.019 C 
ATOM     17  C   UNL     1      30.987 -22.495 -15.150  0.00  0.00    +0.083 C 
ATOM     18  C   UNL     1      33.738 -22.790 -15.509  0.00  0.00    +0.015 C 
ATOM     19  C   UNL     1      31.820 -22.670 -14.044  0.00  0.00    +0.062 C 
ATOM     20  C   UNL     1      33.195 -22.817 -14.224  0.00  0.00    +0.013 C 
BRANCH  17  24
ATOM     21  F   UNL     1      28.925 -23.442 -14.483  0.00  0.00    -0.166 F 
ATOM     22  F   UNL     1      29.182 -21.304 -14.184  0.00  0.00    -0.166 F 
ATOM     23  F   UNL     1      28.921 -22.095 -16.198  0.00  0.00    -0.166 F 
ATOM     24  C   UNL     1      29.508 -22.335 -15.001  0.00  0.00    +0.419 C 
ENDBRANCH  17  24
ENDBRANCH  12  15
ENDBRANCH   5  12
BRANCH   7  25
ATOM     25  O   UNL     1      35.798 -17.333 -22.093  0.00  0.00    -0.453 OA
BRANCH  25  27
ATOM     26  N   UNL     1      34.393 -13.576 -21.007  0.00  0.00    -0.239 NA
ATOM     27  C   UNL     1      35.330 -16.082 -21.731  0.00  0.00    +0.149 C 
ATOM     28  C   UNL     1      35.008 -15.172 -22.715  0.00  0.00    +0.061 C 
ATOM     29  C   UNL     1      35.195 -15.772 -20.395  0.00  0.00    +0.058 C 
ATOM     30  C   UNL     1      34.544 -13.933 -22.302  0.00  0.00    +0.137 C 
ATOM     31  C   UNL     1      34.723 -14.507 -20.084  0.00  0.00    +0.102 C 
BRANCH  30  34
ATOM     32  O   UNL     1      33.549 -13.230 -24.305  0.00  0.00    -0.268 OA
ATOM     33  N   UNL     1      34.562 -11.603 -23.001  0.00  0.00    -0.298 N 
ATOM     34  C   UNL     1      34.184 -12.922 -23.281  0.00  0.00    +0.264 C 
ATOM     35  C   UNL     1      34.258 -10.484 -23.865  0.00  0.00    +0.111 C 
ATOM     36  H   UNL     1      35.064 -11.428 -22.172  0.00  0.00    +0.150 HD
ENDBRANCH  30  34
ENDBRANCH  25  27
ENDBRANCH   7  25
TORSDOF 6
ENDMDL
MODEL 3
REMARK VINA RESULT:     -12.4      6.343     11.124
REMARK  Name = 11167118
REMARK  6 active torsions:
REMARK  status: ('A' for Active; 'I' for Inactive)
REMARK    1  A    between atoms: N_2  and  C_6
REMARK    2  A    between atoms: N_2  and  C_15
REMARK    3  A    between atoms: C_8  and  O_25
REMARK    4  A    between atoms: C_17  and  C_24
REMARK    5  A    between atoms: O_25  and  C_27
REMARK    6  A    between atoms: C_30  and  C_34
REMARK                            x       y       z     vdW  Elec       q    Type
REMARK                         _______ _______ _______ _____ _____    ______ ____
ROOT
ATOM      1  N   UNL     1      34.718 -18.822 -20.790  0.00  0.00    -0.302 N 
ATOM      2  N   UNL     1      36.752 -19.134 -19.951  0.00  0.00    -0.302 N 
ATOM      3  C   UNL     1      34.577 -19.803 -19.843  0.00  0.00    +0.063 C 
ATOM      4  C   UNL     1      35.861 -19.980 -19.334  0.00  0.00    +0.060 C 
ATOM      5  C   UNL     1      36.035 -18.454 -20.818  0.00  0.00    +0.225 C 
ATOM      6  C   UNL     1      33.470 -20.530 -19.401  0.00  0.00    +0.053 C 
ATOM      7  C   UNL     1      33.698 -21.474 -18.395  0.00  0.00    +0.147 C 
ATOM      8  C   UNL     1      36.072 -20.933 -18.324  0.00  0.00    +0.019 C 
ATOM      9  C   UNL     1      34.975 -21.674 -17.864  0.00  0.00    +0.039 C 
ATOM     10  H   UNL     1      33.999 -18.449 -21.350  0.00  0.00    +0.150 HD
ATOM     11  H   UNL     1      37.719 -19.054 -19.782  0.00  0.00    +0.150 HD
ENDROOT
BRANCH   5  12
ATOM     12  N   UNL     1      36.412 -17.490 -21.686  0.00  0.00    -0.303 N 
ATOM     13  H   UNL     1      37.381 -17.439 -21.852  0.00  0.00    +0.150 HD
BRANCH  12  15
ATOM     14 CL   UNL     1      33.164 -13.548 -24.690  0.00  0.00    -0.082 Cl
ATOM     15  C   UNL     1      35.631 -16.537 -22.400  0.00  0.00    +0.047 C 
ATOM     16  C   UNL     1      35.278 -15.344 -21.785  0.00  0.00    +0.019 C 
ATOM     17  C   UNL     1      34.514 -14.410 -22.485  0.00  0.00    +0.083 C 
ATOM     18  C   UNL     1      35.235 -16.815 -23.701  0.00  0.00    +0.015 C 
ATOM     19  C   UNL     1      34.110 -14.679 -23.793  0.00  0.00    +0.062 C 
ATOM     20  C   UNL     1      34.470 -15.882 -24.401  0.00  0.00    +0.013 C 
BRANCH  17  24
ATOM     21  F   UNL     1      34.616 -12.047 -22.459  0.00  0.00    -0.166 F 
ATOM     22  F   UNL     1      32.808 -12.974 -21.685  0.00  0.00    -0.166 F 
ATOM     23  F   UNL     1      34.662 -13.091 -20.545  0.00  0.00    -0.166 F 
ATOM     24  C   UNL     1      34.149 -13.134 -21.798  0.00  0.00    +0.419 C 
ENDBRANCH  17  24
ENDBRANCH  12  15
ENDBRANCH   5  12
BRANCH   7  25
ATOM     25  O   UNL     1      32.654 -22.214 -17.924  0.00  0.00    -0.453 OA
BRANCH  25  27
ATOM     26  N   UNL     1      32.399 -22.792 -13.817  0.00  0.00    -0.239 NA
ATOM     27  C   UNL     1      32.569 -22.406 -16.557  0.00  0.00    +0.149 C 
ATOM     28  C   UNL     1      33.684 -22.830 -15.865  0.00  0.00    +0.061 C 
ATOM     29  C   UNL     1      31.372 -22.169 -15.915  0.00  0.00    +0.058 C 
ATOM     30  C   UNL     1      33.547 -23.008 -14.497  0.00  0.00    +0.137 C 
ATOM     31  C   UNL     1      31.338 -22.377 -14.545  0.00  0.00    +0.102 C 
BRANCH  30  34
ATOM     32  O   UNL     1      35.618 -24.074 -14.227  0.00  0.00    -0.268 OA
ATOM     33  N   UNL     1      34.663 -23.129 -12.338  0.00  0.00    -0.298 N 
ATOM     34  C   UNL     1      34.678 -23.453 -13.700  0.00  0.00    +0.264 C 
ATOM     35  C   UNL     1      35.723 -23.482 -11.420  0.00  0.00    +0.111 C 
ATOM     36  H   UNL     1      33.887 -22.636 -11.985  0.00  0.00    +0.150 HD
ENDBRANCH  30  34
ENDBRANCH  25  27
ENDBRANCH   7  25
TORSDOF 6
ENDMDL
MODEL 4
REMARK VINA RESULT:     -12.3      6.095     10.414
REMARK  Name = 11167118
REMARK  6 active torsions:
REMARK  status: ('A' for Active; 'I' for Inactive)
REMARK    1  A    between atoms: N_2  and  C_6
REMARK    2  A    between atoms: N_2  and  C_15
REMARK    3  A    between atoms: C_8  and  O_25
REMARK    4  A    between atoms: C_17  and  C_24
REMARK    5  A    between atoms: O_25  and  C_27
REMARK    6  A    between atoms: C_30  and  C_34
REMARK                            x       y       z     vdW  Elec       q    Type
REMARK                         _______ _______ _______ _____ _____    ______ ____
ROOT
ATOM      1  N   UNL     1      34.179 -22.362 -16.596  0.00  0.00    -0.302 N 
ATOM      2  N   UNL     1      31.975 -22.096 -16.693  0.00  0.00    -0.302 N 
ATOM      3  C   UNL     1      33.712 -22.727 -15.360  0.00  0.00    +0.063 C 
ATOM      4  C   UNL     1      32.333 -22.553 -15.446  0.00  0.00    +0.060 C 
ATOM      5  C   UNL     1      33.106 -21.993 -17.357  0.00  0.00    +0.225 C 
ATOM      6  C   UNL     1      34.356 -23.182 -14.208  0.00  0.00    +0.053 C 
ATOM      7  C   UNL     1      33.545 -23.467 -13.105  0.00  0.00    +0.147 C 
ATOM      8  C   UNL     1      31.534 -22.844 -14.328  0.00  0.00    +0.019 C 
ATOM      9  C   UNL     1      32.159 -23.302 -13.161  0.00  0.00    +0.039 C 
ATOM     10  H   UNL     1      35.121 -22.365 -16.883  0.00  0.00    +0.150 HD
ATOM     11  H   UNL     1      31.069 -21.891 -17.020  0.00  0.00    +0.150 HD
ENDROOT
BRANCH   5  12
ATOM     12  N   UNL     1      33.329 -21.591 -18.627  0.00  0.00    -0.303 N 
ATOM     13  H   UNL     1      32.651 -21.882 -19.279  0.00  0.00    +0.150 HD
BRANCH  12  15
ATOM     14 CL   UNL     1      37.767 -18.369 -20.871  0.00  0.00    -0.082 Cl
ATOM     15  C   UNL     1      34.389 -20.813 -19.174  0.00  0.00    +0.047 C 
ATOM     16  C   UNL     1      34.145 -19.998 -20.270  0.00  0.00    +0.019 C 
ATOM     17  C   UNL     1      35.184 -19.236 -20.805  0.00  0.00    +0.083 C 
ATOM     18  C   UNL     1      35.652 -20.882 -18.601  0.00  0.00    +0.015 C 
ATOM     19  C   UNL     1      36.458 -19.297 -20.237  0.00  0.00    +0.062 C 
ATOM     20  C   UNL     1      36.691 -20.120 -19.136  0.00  0.00    +0.013 C 
BRANCH  17  24
ATOM     21  F   UNL     1      34.983 -17.049 -21.682  0.00  0.00    -0.166 F 
ATOM     22  F   UNL     1      35.746 -18.589 -23.013  0.00  0.00    -0.166 F 
ATOM     23  F   UNL     1      33.640 -18.585 -22.452  0.00  0.00    -0.166 F 
ATOM     24  C   UNL     1      34.892 -18.367 -21.985  0.00  0.00    +0.419 C 
ENDBRANCH  17  24
ENDBRANCH  12  15
ENDBRANCH   5  12
BRANCH   7  25
ATOM     25  O   UNL     1      34.120 -23.914 -11.952  0.00  0.00    -0.453 OA
BRANCH  25  27
ATOM     26  N   UNL     1      38.248 -23.587 -11.604  0.00  0.00    -0.239 NA
ATOM     27  C   UNL     1      35.494 -23.805 -11.836  0.00  0.00    +0.149 C 
ATOM     28  C   UNL     1      36.302 -24.669 -12.546  0.00  0.00    +0.061 C 
ATOM     29  C   UNL     1      36.028 -22.835 -11.015  0.00  0.00    +0.058 C 
ATOM     30  C   UNL     1      37.671 -24.519 -12.396  0.00  0.00    +0.137 C 
ATOM     31  C   UNL     1      37.409 -22.766 -10.932  0.00  0.00    +0.102 C 
BRANCH  30  34
ATOM     32  O   UNL     1      38.237 -26.539 -13.442  0.00  0.00    -0.268 OA
ATOM     33  N   UNL     1      39.848 -24.873 -13.423  0.00  0.00    -0.298 N 
ATOM     34  C   UNL     1      38.586 -25.392 -13.111  0.00  0.00    +0.264 C 
ATOM     35  C   UNL     1      40.859 -25.609 -14.149  0.00  0.00    +0.111 C 
ATOM     36  H   UNL     1      40.060 -23.957 -13.130  0.00  0.00    +0.150 HD
ENDBRANCH  30  34
ENDBRANCH  25  27
ENDBRANCH   7  25
TORSDOF 6
ENDMDL
MODEL 5
REMARK VINA RESULT:     -12.2      2.250      3.168
REMARK  Name = 11167118
REMARK  6 active torsions:
REMARK  status: ('A' for Active; 'I' for Inactive)
REMARK    1  A    between atoms: N_2  and  C_6
REMARK    2  A    between atoms: N_2  and  C_15
REMARK    3  A    between atoms: C_8  and  O_25
REMARK    4  A    between atoms: C_17  and  C_24
REMARK    5  A    between atoms: O_25  and  C_27
REMARK    6  A    between atoms: C_30  and  C_34
REMARK                            x       y       z     vdW  Elec       q    Type
REMARK                         _______ _______ _______ _____ _____    ______ ____
ROOT
ATOM      1  N   UNL     1      33.398 -20.153 -19.783  0.00  0.00    -0.302 N 
ATOM      2  N   UNL     1      35.216 -20.913 -18.756  0.00  0.00    -0.302 N 
ATOM      3  C   UNL     1      34.437 -19.411 -20.282  0.00  0.00    +0.063 C 
ATOM      4  C   UNL     1      35.561 -19.905 -19.625  0.00  0.00    +0.060 C 
ATOM      5  C   UNL     1      33.912 -21.036 -18.876  0.00  0.00    +0.225 C 
ATOM      6  C   UNL     1      34.491 -18.381 -21.223  0.00  0.00    +0.053 C 
ATOM      7  C   UNL     1      35.752 -17.843 -21.496  0.00  0.00    +0.147 C 
ATOM      8  C   UNL     1      36.820 -19.352 -19.911  0.00  0.00    +0.019 C 
ATOM      9  C   UNL     1      36.897 -18.317 -20.853  0.00  0.00    +0.039 C 
ATOM     10  H   UNL     1      32.450 -20.064 -20.034  0.00  0.00    +0.150 HD
ATOM     11  H   UNL     1      35.813 -21.432 -18.170  0.00  0.00    +0.150 HD
ENDROOT
BRANCH   5  12
ATOM     12  N   UNL     1      33.062 -21.879 -18.250  0.00  0.00    -0.303 N 
ATOM     13  H   UNL     1      32.341 -22.236 -18.817  0.00  0.00    +0.150 HD
BRANCH  12  15
ATOM     14 CL   UNL     1      32.937 -23.765 -12.633  0.00  0.00    -0.082 Cl
ATOM     15  C   UNL     1      33.042 -22.334 -16.901  0.00  0.00    +0.047 C 
ATOM     16  C   UNL     1      34.235 -22.662 -16.272  0.00  0.00    +0.019 C 
ATOM     17  C   UNL     1      34.215 -23.106 -14.950  0.00  0.00    +0.083 C 
ATOM     18  C   UNL     1      31.829 -22.442 -16.234  0.00  0.00    +0.015 C 
ATOM     19  C   UNL     1      33.001 -23.219 -14.270  0.00  0.00    +0.062 C 
ATOM     20  C   UNL     1      31.809 -22.887 -14.912  0.00  0.00    +0.013 C 
BRANCH  17  24
ATOM     21  F   UNL     1      35.581 -24.761 -13.955  0.00  0.00    -0.166 F 
ATOM     22  F   UNL     1      36.577 -23.205 -15.102  0.00  0.00    -0.166 F 
ATOM     23  F   UNL     1      35.697 -22.732 -13.164  0.00  0.00    -0.166 F 
ATOM     24  C   UNL     1      35.514 -23.452 -14.297  0.00  0.00    +0.419 C 
ENDBRANCH  17  24
ENDBRANCH  12  15
ENDBRANCH   5  12
BRANCH   7  25
ATOM     25  O   UNL     1      35.864 -16.834 -22.406  0.00  0.00    -0.453 OA
BRANCH  25  27
ATOM     26  N   UNL     1      34.318 -13.119 -21.368  0.00  0.00    -0.239 NA
ATOM     27  C   UNL     1      35.350 -15.597 -22.060  0.00  0.00    +0.149 C 
ATOM     28  C   UNL     1      35.046 -14.691 -23.054  0.00  0.00    +0.061 C 
ATOM     29  C   UNL     1      35.150 -15.297 -20.730  0.00  0.00    +0.058 C 
ATOM     30  C   UNL     1      34.533 -13.466 -22.657  0.00  0.00    +0.137 C 
ATOM     31  C   UNL     1      34.634 -14.045 -20.435  0.00  0.00    +0.102 C 
BRANCH  30  34
ATOM     32  O   UNL     1      33.578 -12.775 -24.683  0.00  0.00    -0.268 OA
ATOM     33  N   UNL     1      34.555 -11.139 -23.364  0.00  0.00    -0.298 N 
ATOM     34  C   UNL     1      34.189 -12.460 -23.646  0.00  0.00    +0.264 C 
ATOM     35  C   UNL     1      34.264 -10.023 -24.237  0.00  0.00    +0.111 C 
ATOM     36  H   UNL     1      35.038 -10.958 -22.525  0.00  0.00    +0.150 HD
ENDBRANCH  30  34
ENDBRANCH  25  27
ENDBRANCH   7  25
TORSDOF 6
ENDMDL
MODEL 6
REMARK VINA RESULT:     -12.1      3.380      4.459
REMARK  Name = 11167118
REMARK  6 active torsions:
REMARK  status: ('A' for Active; 'I' for Inactive)
REMARK    1  A    between atoms: N_2  and  C_6
REMARK    2  A    between atoms: N_2  and  C_15
REMARK    3  A    between atoms: C_8  and  O_25
REMARK    4  A    between atoms: C_17  and  C_24
REMARK    5  A    between atoms: O_25  and  C_27
REMARK    6  A    between atoms: C_30  and  C_34
REMARK                            x       y       z     vdW  Elec       q    Type
REMARK                         _______ _______ _______ _____ _____    ______ ____
ROOT
ATOM      1  N   UNL     1      33.351 -20.075 -20.257  0.00  0.00    -0.302 N 
ATOM      2  N   UNL     1      34.992 -20.383 -18.790  0.00  0.00    -0.302 N 
ATOM      3  C   UNL     1      34.414 -19.359 -20.742  0.00  0.00    +0.063 C 
ATOM      4  C   UNL     1      35.426 -19.567 -19.808  0.00  0.00    +0.060 C 
ATOM      5  C   UNL     1      33.744 -20.669 -19.090  0.00  0.00    +0.225 C 
ATOM      6  C   UNL     1      34.575 -18.570 -21.883  0.00  0.00    +0.053 C 
ATOM      7  C   UNL     1      35.827 -17.975 -22.065  0.00  0.00    +0.147 C 
ATOM      8  C   UNL     1      36.678 -18.961 -20.008  0.00  0.00    +0.019 C 
ATOM      9  C   UNL     1      36.861 -18.165 -21.146  0.00  0.00    +0.039 C 
ATOM     10  H   UNL     1      32.462 -20.148 -20.675  0.00  0.00    +0.150 HD
ATOM     11  H   UNL     1      35.503 -20.688 -18.005  0.00  0.00    +0.150 HD
ENDROOT
BRANCH   5  12
ATOM     12  N   UNL     1      32.849 -21.434 -18.428  0.00  0.00    -0.303 N 
ATOM     13  H   UNL     1      32.012 -21.609 -18.916  0.00  0.00    +0.150 HD
BRANCH  12  15
ATOM     14 CL   UNL     1      33.199 -23.913 -13.056  0.00  0.00    -0.082 Cl
ATOM     15  C   UNL     1      32.923 -22.028 -17.136  0.00  0.00    +0.047 C 
ATOM     16  C   UNL     1      31.763 -22.200 -16.394  0.00  0.00    +0.019 C 
ATOM     17  C   UNL     1      31.835 -22.783 -15.129  0.00  0.00    +0.083 C 
ATOM     18  C   UNL     1      34.155 -22.428 -16.637  0.00  0.00    +0.015 C 
ATOM     19  C   UNL     1      33.069 -23.188 -14.617  0.00  0.00    +0.062 C 
ATOM     20  C   UNL     1      34.229 -23.010 -15.371  0.00  0.00    +0.013 C 
BRANCH  17  24
ATOM     21  F   UNL     1      30.228 -24.260 -14.219  0.00  0.00    -0.166 F 
ATOM     22  F   UNL     1      30.659 -22.446 -13.101  0.00  0.00    -0.166 F 
ATOM     23  F   UNL     1      29.535 -22.332 -14.965  0.00  0.00    -0.166 F 
ATOM     24  C   UNL     1      30.570 -22.956 -14.353  0.00  0.00    +0.419 C 
ENDBRANCH  17  24
ENDBRANCH  12  15
ENDBRANCH   5  12
BRANCH   7  25
ATOM     25  O   UNL     1      36.040 -17.193 -23.162  0.00  0.00    -0.453 OA
BRANCH  25  27
ATOM     26  N   UNL     1      33.536 -13.923 -23.714  0.00  0.00    -0.239 NA
ATOM     27  C   UNL     1      35.207 -16.105 -23.346  0.00  0.00    +0.149 C 
ATOM     28  C   UNL     1      34.965 -15.254 -22.288  0.00  0.00    +0.061 C 
ATOM     29  C   UNL     1      34.636 -15.893 -24.583  0.00  0.00    +0.058 C 
ATOM     30  C   UNL     1      34.123 -14.179 -22.523  0.00  0.00    +0.137 C 
ATOM     31  C   UNL     1      33.808 -14.789 -24.716  0.00  0.00    +0.102 C 
BRANCH  30  34
ATOM     32  O   UNL     1      34.659 -12.995 -20.571  0.00  0.00    -0.268 OA
ATOM     33  N   UNL     1      32.567 -12.616 -21.494  0.00  0.00    -0.298 N 
ATOM     34  C   UNL     1      33.820 -13.239 -21.457  0.00  0.00    +0.264 C 
ATOM     35  C   UNL     1      32.127 -11.643 -20.520  0.00  0.00    +0.111 C 
ATOM     36  H   UNL     1      31.950 -12.856 -22.223  0.00  0.00    +0.150 HD
ENDBRANCH  30  34
ENDBRANCH  25  27
ENDBRANCH   7  25
TORSDOF 6
ENDMDL
MODEL 7
REMARK VINA RESULT:     -12.1      6.594     11.249
REMARK  Name = 11167118
REMARK  6 active torsions:
REMARK  status: ('A' for Active; 'I' for Inactive)
REMARK    1  A    between atoms: N_2  and  C_6
REMARK    2  A    between atoms: N_2  and  C_15
REMARK    3  A    between atoms: C_8  and  O_25
REMARK    4  A    between atoms: C_17  and  C_24
REMARK    5  A    between atoms: O_25  and  C_27
REMARK    6  A    between atoms: C_30  and  C_34
REMARK                            x       y       z     vdW  Elec       q    Type
REMARK                         _______ _______ _______ _____ _____    ______ ____
ROOT
ATOM      1  N   UNL     1      34.557 -18.613 -20.738  0.00  0.00    -0.302 N 
ATOM      2  N   UNL     1      36.664 -18.780 -20.051  0.00  0.00    -0.302 N 
ATOM      3  C   UNL     1      34.577 -19.677 -19.873  0.00  0.00    +0.063 C 
ATOM      4  C   UNL     1      35.904 -19.760 -19.458  0.00  0.00    +0.060 C 
ATOM      5  C   UNL     1      35.826 -18.110 -20.811  0.00  0.00    +0.225 C 
ATOM      6  C   UNL     1      33.580 -20.549 -19.431  0.00  0.00    +0.053 C 
ATOM      7  C   UNL     1      33.968 -21.542 -18.526  0.00  0.00    +0.147 C 
ATOM      8  C   UNL     1      36.276 -20.765 -18.549  0.00  0.00    +0.019 C 
ATOM      9  C   UNL     1      35.291 -21.650 -18.092  0.00  0.00    +0.039 C 
ATOM     10  H   UNL     1      33.768 -18.273 -21.219  0.00  0.00    +0.150 HD
ATOM     11  H   UNL     1      37.627 -18.613 -19.933  0.00  0.00    +0.150 HD
ENDROOT
BRANCH   5  12
ATOM     12  N   UNL     1      36.047 -17.045 -21.612  0.00  0.00    -0.303 N 
ATOM     13  H   UNL     1      36.823 -17.132 -22.212  0.00  0.00    +0.150 HD
BRANCH  12  15
ATOM     14 CL   UNL     1      33.088 -11.930 -22.052  0.00  0.00    -0.082 Cl
ATOM     15  C   UNL     1      35.336 -15.817 -21.728  0.00  0.00    +0.047 C 
ATOM     16  C   UNL     1      34.953 -15.363 -22.983  0.00  0.00    +0.019 C 
ATOM     17  C   UNL     1      34.256 -14.160 -23.096  0.00  0.00    +0.083 C 
ATOM     18  C   UNL     1      35.035 -15.091 -20.584  0.00  0.00    +0.015 C 
ATOM     19  C   UNL     1      33.949 -13.422 -21.952  0.00  0.00    +0.062 C 
ATOM     20  C   UNL     1      34.339 -13.887 -20.696  0.00  0.00    +0.013 C 
BRANCH  17  24
ATOM     21  F   UNL     1      34.223 -12.413 -24.689  0.00  0.00    -0.166 F 
ATOM     22  F   UNL     1      34.415 -14.443 -25.442  0.00  0.00    -0.166 F 
ATOM     23  F   UNL     1      32.513 -13.765 -24.622  0.00  0.00    -0.166 F 
ATOM     24  C   UNL     1      33.856 -13.697 -24.459  0.00  0.00    +0.419 C 
ENDBRANCH  17  24
ENDBRANCH  12  15
ENDBRANCH   5  12
BRANCH   7  25
ATOM     25  O   UNL     1      33.035 -22.422 -18.061  0.00  0.00    -0.453 OA
BRANCH  25  27
ATOM     26  N   UNL     1      32.579 -22.746 -13.943  0.00  0.00    -0.239 NA
ATOM     27  C   UNL     1      32.883 -22.530 -16.690  0.00  0.00    +0.149 C 
ATOM     28  C   UNL     1      33.955 -22.933 -15.923  0.00  0.00    +0.061 C 
ATOM     29  C   UNL     1      31.664 -22.231 -16.121  0.00  0.00    +0.058 C 
ATOM     30  C   UNL     1      33.753 -23.026 -14.555  0.00  0.00    +0.137 C 
ATOM     31  C   UNL     1      31.563 -22.355 -14.744  0.00  0.00    +0.102 C 
BRANCH  30  34
ATOM     32  O   UNL     1      35.803 -24.081 -14.133  0.00  0.00    -0.268 OA
ATOM     33  N   UNL     1      34.742 -23.079 -12.333  0.00  0.00    -0.298 N 
ATOM     34  C   UNL     1      34.835 -23.445 -13.681  0.00  0.00    +0.264 C 
ATOM     35  C   UNL     1      35.747 -23.401 -11.345  0.00  0.00    +0.111 C 
ATOM     36  H   UNL     1      33.947 -22.575 -12.041  0.00  0.00    +0.150 HD
ENDBRANCH  30  34
ENDBRANCH  25  27
ENDBRANCH   7  25
TORSDOF 6
ENDMDL
MODEL 8
REMARK VINA RESULT:     -12.0      6.558     10.912
REMARK  Name = 11167118
REMARK  6 active torsions:
REMARK  status: ('A' for Active; 'I' for Inactive)
REMARK    1  A    between atoms: N_2  and  C_6
REMARK    2  A    between atoms: N_2  and  C_15
REMARK    3  A    between atoms: C_8  and  O_25
REMARK    4  A    between atoms: C_17  and  C_24
REMARK    5  A    between atoms: O_25  and  C_27
REMARK    6  A    between atoms: C_30  and  C_34
REMARK                            x       y       z     vdW  Elec       q    Type
REMARK                         _______ _______ _______ _____ _____    ______ ____
ROOT
ATOM      1  N   UNL     1      36.234 -19.288 -20.263  0.00  0.00    -0.302 N 
ATOM      2  N   UNL     1      34.134 -18.901 -20.880  0.00  0.00    -0.302 N 
ATOM      3  C   UNL     1      35.465 -20.104 -19.474  0.00  0.00    +0.063 C 
ATOM      4  C   UNL     1      34.158 -19.844 -19.878  0.00  0.00    +0.060 C 
ATOM      5  C   UNL     1      35.395 -18.589 -21.086  0.00  0.00    +0.225 C 
ATOM      6  C   UNL     1      35.789 -21.020 -18.472  0.00  0.00    +0.053 C 
ATOM      7  C   UNL     1      34.724 -21.692 -17.865  0.00  0.00    +0.147 C 
ATOM      8  C   UNL     1      33.100 -20.528 -19.257  0.00  0.00    +0.019 C 
ATOM      9  C   UNL     1      33.402 -21.453 -18.249  0.00  0.00    +0.039 C 
ATOM     10  H   UNL     1      37.216 -19.218 -20.240  0.00  0.00    +0.150 HD
ATOM     11  H   UNL     1      33.345 -18.537 -21.343  0.00  0.00    +0.150 HD
ENDROOT
BRANCH   5  12
ATOM     12  N   UNL     1      35.938 -17.714 -21.960  0.00  0.00    -0.303 N 
ATOM     13  H   UNL     1      36.903 -17.830 -22.116  0.00  0.00    +0.150 HD
BRANCH  12  15
ATOM     14 CL   UNL     1      33.433 -13.316 -25.042  0.00  0.00    -0.082 Cl
ATOM     15  C   UNL     1      35.336 -16.652 -22.692  0.00  0.00    +0.047 C 
ATOM     16  C   UNL     1      35.122 -15.429 -22.072  0.00  0.00    +0.019 C 
ATOM     17  C   UNL     1      34.533 -14.387 -22.790  0.00  0.00    +0.083 C 
ATOM     18  C   UNL     1      34.973 -16.854 -24.016  0.00  0.00    +0.015 C 
ATOM     19  C   UNL     1      34.163 -14.580 -24.122  0.00  0.00    +0.062 C 
ATOM     20  C   UNL     1      34.383 -15.814 -24.735  0.00  0.00    +0.013 C 
BRANCH  17  24
ATOM     21  F   UNL     1      34.920 -13.040 -20.885  0.00  0.00    -0.166 F 
ATOM     22  F   UNL     1      34.798 -12.034 -22.808  0.00  0.00    -0.166 F 
ATOM     23  F   UNL     1      32.996 -12.852 -21.894  0.00  0.00    -0.166 F 
ATOM     24  C   UNL     1      34.316 -13.081 -22.097  0.00  0.00    +0.419 C 
ENDBRANCH  17  24
ENDBRANCH  12  15
ENDBRANCH   5  12
BRANCH   7  25
ATOM     25  O   UNL     1      34.981 -22.598 -16.879  0.00  0.00    -0.453 OA
BRANCH  25  27
ATOM     26  N   UNL     1      32.179 -22.979 -13.834  0.00  0.00    -0.239 NA
ATOM     27  C   UNL     1      34.049 -22.725 -15.865  0.00  0.00    +0.149 C 
ATOM     28  C   UNL     1      32.722 -22.916 -16.189  0.00  0.00    +0.061 C 
ATOM     29  C   UNL     1      34.464 -22.658 -14.553  0.00  0.00    +0.058 C 
ATOM     30  C   UNL     1      31.827 -23.037 -15.138  0.00  0.00    +0.137 C 
ATOM     31  C   UNL     1      33.493 -22.790 -13.574  0.00  0.00    +0.102 C 
BRANCH  30  34
ATOM     32  O   UNL     1      29.815 -24.221 -14.920  0.00  0.00    -0.268 OA
ATOM     33  N   UNL     1      29.766 -22.279 -16.185  0.00  0.00    -0.298 N 
ATOM     34  C   UNL     1      30.412 -23.241 -15.400  0.00  0.00    +0.264 C 
ATOM     35  C   UNL     1      28.359 -22.329 -16.515  0.00  0.00    +0.111 C 
ATOM     36  H   UNL     1      30.299 -21.528 -16.534  0.00  0.00    +0.150 HD
ENDBRANCH  30  34
ENDBRANCH  25  27
ENDBRANCH   7  25
TORSDOF 6
ENDMDL
MODEL 9
REMARK VINA RESULT:     -12.0      6.289     11.177
REMARK  Name = 11167118
REMARK  6 active torsions:
REMARK  status: ('A' for Active; 'I' for Inactive)
REMARK    1  A    between atoms: N_2  and  C_6
REMARK    2  A    between atoms: N_2  and  C_15
REMARK    3  A    between atoms: C_8  and  O_25
REMARK    4  A    between atoms: C_17  and  C_24
REMARK    5  A    between atoms: O_25  and  C_27
REMARK    6  A    between atoms: C_30  and  C_34
REMARK                            x       y       z     vdW  Elec       q    Type
REMARK                         _______ _______ _______ _____ _____    ______ ____
ROOT
ATOM      1  N   UNL     1      34.538 -20.732 -19.438  0.00  0.00    -0.302 N 
ATOM      2  N   UNL     1      36.621 -20.031 -19.108  0.00  0.00    -0.302 N 
ATOM      3  C   UNL     1      34.907 -21.242 -18.220  0.00  0.00    +0.063 C 
ATOM      4  C   UNL     1      36.212 -20.790 -18.037  0.00  0.00    +0.060 C 
ATOM      5  C   UNL     1      35.593 -20.016 -19.929  0.00  0.00    +0.225 C 
ATOM      6  C   UNL     1      34.234 -22.037 -17.290  0.00  0.00    +0.053 C 
ATOM      7  C   UNL     1      34.934 -22.375 -16.128  0.00  0.00    +0.147 C 
ATOM      8  C   UNL     1      36.900 -21.141 -16.864  0.00  0.00    +0.019 C 
ATOM      9  C   UNL     1      36.244 -21.937 -15.916  0.00  0.00    +0.039 C 
ATOM     10  H   UNL     1      33.667 -20.860 -19.879  0.00  0.00    +0.150 HD
ATOM     11  H   UNL     1      37.493 -19.592 -19.235  0.00  0.00    +0.150 HD
ENDROOT
BRANCH   5  12
ATOM     12  N   UNL     1      35.456 -19.416 -21.131  0.00  0.00    -0.303 N 
ATOM     13  H   UNL     1      35.454 -20.029 -21.902  0.00  0.00    +0.150 HD
BRANCH  12  15
ATOM     14 CL   UNL     1      34.866 -13.672 -22.465  0.00  0.00    -0.082 Cl
ATOM     15  C   UNL     1      35.313 -18.039 -21.462  0.00  0.00    +0.047 C 
ATOM     16  C   UNL     1      35.025 -17.675 -22.770  0.00  0.00    +0.019 C 
ATOM     17  C   UNL     1      34.884 -16.325 -23.093  0.00  0.00    +0.083 C 
ATOM     18  C   UNL     1      35.463 -17.079 -20.470  0.00  0.00    +0.015 C 
ATOM     19  C   UNL     1      35.033 -15.351 -22.104  0.00  0.00    +0.062 C 
ATOM     20  C   UNL     1      35.323 -15.729 -20.793  0.00  0.00    +0.013 C 
BRANCH  17  24
ATOM     21  F   UNL     1      35.587 -15.280 -25.095  0.00  0.00    -0.166 F 
ATOM     22  F   UNL     1      34.340 -17.051 -25.281  0.00  0.00    -0.166 F 
ATOM     23  F   UNL     1      33.471 -15.179 -24.581  0.00  0.00    -0.166 F 
ATOM     24  C   UNL     1      34.574 -15.962 -24.509  0.00  0.00    +0.419 C 
ENDBRANCH  17  24
ENDBRANCH  12  15
ENDBRANCH   5  12
BRANCH   7  25
ATOM     25  O   UNL     1      34.327 -23.150 -15.184  0.00  0.00    -0.453 OA
BRANCH  25  27
ATOM     26  N   UNL     1      36.642 -24.476 -11.998  0.00  0.00    -0.239 NA
ATOM     27  C   UNL     1      35.097 -23.591 -14.123  0.00  0.00    +0.149 C 
ATOM     28  C   UNL     1      36.337 -24.140 -14.373  0.00  0.00    +0.061 C 
ATOM     29  C   UNL     1      34.610 -23.473 -12.840  0.00  0.00    +0.058 C 
ATOM     30  C   UNL     1      37.070 -24.568 -13.278  0.00  0.00    +0.137 C 
ATOM     31  C   UNL     1      35.419 -23.930 -11.812  0.00  0.00    +0.102 C 
BRANCH  30  34
ATOM     32  O   UNL     1      38.716 -26.176 -12.828  0.00  0.00    -0.268 OA
ATOM     33  N   UNL     1      39.235 -24.542 -14.388  0.00  0.00    -0.298 N 
ATOM     34  C   UNL     1      38.386 -25.157 -13.461  0.00  0.00    +0.264 C 
ATOM     35  C   UNL     1      40.563 -25.022 -14.698  0.00  0.00    +0.111 C 
ATOM     36  H   UNL     1      38.911 -23.738 -14.855  0.00  0.00    +0.150 HD
ENDBRANCH  30  34
ENDBRANCH  25  27
ENDBRANCH   7  25
TORSDOF 6
ENDMDL
