MODEL 1
REMARK VINA RESULT:     -11.3      0.000      0.000
REMARK  Name = 446345
REMARK  6 active torsions:
REMARK  status: ('A' for Active; 'I' for Inactive)
REMARK    1  A    between atoms: N_2  and  C_20
REMARK    2  A    between atoms: N_3  and  S_8
REMARK    3  A    between atoms: S_8  and  C_11
REMARK    4  A    between atoms: C_12  and  C_14
REMARK    5  A    between atoms: C_20  and  C_22
REMARK    6  A    between atoms: N_21  and  C_28
REMARK                            x       y       z     vdW  Elec       q    Type
REMARK                         _______ _______ _______ _____ _____    ______ ____
ROOT
ATOM      1  O   UNL     1      37.808 -19.006 -20.213  0.00  0.00    -0.273 OA
ATOM      2  N   UNL     1      35.683 -18.282 -20.793  0.00  0.00    -0.277 N 
ATOM      3  N   UNL     1      34.585 -20.314 -19.212  0.00  0.00    -0.144 NA
ATOM      4  C   UNL     1      34.239 -18.382 -20.603  0.00  0.00    +0.113 C 
ATOM      5  C   UNL     1      33.784 -19.803 -20.346  0.00  0.00    +0.118 C 
ATOM      6  C   UNL     1      36.583 -19.159 -20.193  0.00  0.00    +0.244 C 
ATOM      7  C   UNL     1      36.017 -20.404 -19.558  0.00  0.00    +0.181 C 
ENDROOT
BRANCH   3   8
ATOM      8  S   UNL     1      33.935 -21.667 -18.390  0.00  0.00    +0.065 S 
ATOM      9  O   UNL     1      34.150 -22.837 -19.224  0.00  0.00    -0.153 OA
ATOM     10  O   UNL     1      32.592 -21.324 -17.957  0.00  0.00    -0.153 OA
BRANCH   8  11
ATOM     11  C   UNL     1      34.929 -21.825 -16.979  0.00  0.00    +0.141 C 
ATOM     12  C   UNL     1      34.456 -22.582 -15.981  0.00  0.00    +0.021 C 
BRANCH  12  14
ATOM     13 CL   UNL     1      37.319 -23.618 -10.851  0.00  0.00    -0.082 Cl
ATOM     14  C   UNL     1      35.163 -22.837 -14.714  0.00  0.00    +0.001 C 
ATOM     15  C   UNL     1      36.520 -22.571 -14.628  0.00  0.00    +0.001 C 
ATOM     16  C   UNL     1      34.458 -23.340 -13.632  0.00  0.00    +0.001 C 
ATOM     17  C   UNL     1      37.190 -22.813 -13.429  0.00  0.00    +0.011 C 
ATOM     18  C   UNL     1      35.127 -23.582 -12.433  0.00  0.00    +0.011 C 
ATOM     19  C   UNL     1      36.494 -23.318 -12.332  0.00  0.00    +0.058 C 
ENDBRANCH  12  14
ENDBRANCH   8  11
ENDBRANCH   3   8
BRANCH   2  20
ATOM     20  C   UNL     1      36.163 -17.077 -21.454  0.00  0.00    +0.094 C 
BRANCH  20  22
ATOM     21  N   UNL     1      34.100 -13.325 -21.924  0.00  0.00    -0.307 N 
ATOM     22  C   UNL     1      35.054 -16.040 -21.605  0.00  0.00    +0.023 C 
ATOM     23  C   UNL     1      35.183 -15.292 -22.936  0.00  0.00    +0.023 C 
ATOM     24  C   UNL     1      35.084 -15.035 -20.449  0.00  0.00    +0.023 C 
ATOM     25  C   UNL     1      34.101 -14.225 -23.086  0.00  0.00    +0.091 C 
ATOM     26  C   UNL     1      34.005 -13.963 -20.607  0.00  0.00    +0.091 C 
BRANCH  21  28
ATOM     27  N   UNL     1      32.531  -9.446 -22.473  0.00  0.00    -0.242 NA
ATOM     28  C   UNL     1      33.579 -12.038 -22.106  0.00  0.00    +0.051 C 
ATOM     29  C   UNL     1      32.561 -11.546 -21.276  0.00  0.00    +0.035 C 
ATOM     30  C   UNL     1      34.059 -11.201 -23.125  0.00  0.00    +0.035 C 
ATOM     31  C   UNL     1      32.080 -10.265 -21.496  0.00  0.00    +0.100 C 
ATOM     32  C   UNL     1      33.511  -9.937 -23.265  0.00  0.00    +0.100 C 
ENDBRANCH  21  28
ENDBRANCH  20  22
ENDBRANCH   2  20
TORSDOF 6
ENDMDL
MODEL 2
REMARK VINA RESULT:     -10.9      1.200      2.019
REMARK  Name = 446345
REMARK  6 active torsions:
REMARK  status: ('A' for Active; 'I' for Inactive)
REMARK    1  A    between atoms: N_2  and  C_20
REMARK    2  A    between atoms: N_3  and  S_8
REMARK    3  A    between atoms: S_8  and  C_11
REMARK    4  A    between atoms: C_12  and  C_14
REMARK    5  A    between atoms: C_20  and  C_22
REMARK    6  A    between atoms: N_21  and  C_28
REMARK                            x       y       z     vdW  Elec       q    Type
REMARK                         _______ _______ _______ _____ _____    ______ ____
ROOT
ATOM      1  O   UNL     1      33.768 -18.658 -22.187  0.00  0.00    -0.273 OA
ATOM      2  N   UNL     1      35.743 -18.766 -20.977  0.00  0.00    -0.277 N 
ATOM      3  N   UNL     1      34.661 -20.837 -19.437  0.00  0.00    -0.144 NA
ATOM      4  C   UNL     1      36.551 -19.447 -19.971  0.00  0.00    +0.113 C 
ATOM      5  C   UNL     1      35.718 -19.996 -18.832  0.00  0.00    +0.118 C 
ATOM      6  C   UNL     1      34.422 -19.113 -21.243  0.00  0.00    +0.244 C 
ATOM      7  C   UNL     1      33.738 -20.034 -20.263  0.00  0.00    +0.181 C 
ENDROOT
BRANCH   3   8
ATOM      8  S   UNL     1      33.921 -21.972 -18.392  0.00  0.00    +0.065 S 
ATOM      9  O   UNL     1      33.997 -23.276 -19.029  0.00  0.00    -0.153 OA
ATOM     10  O   UNL     1      32.631 -21.437 -17.993  0.00  0.00    -0.153 OA
BRANCH   8  11
ATOM     11  C   UNL     1      34.946 -21.996 -16.996  0.00  0.00    +0.141 C 
ATOM     12  C   UNL     1      34.569 -22.775 -15.974  0.00  0.00    +0.021 C 
BRANCH  12  14
ATOM     13 CL   UNL     1      37.597 -23.393 -10.872  0.00  0.00    -0.082 Cl
ATOM     14  C   UNL     1      35.317 -22.928 -14.715  0.00  0.00    +0.001 C 
ATOM     15  C   UNL     1      34.637 -23.283 -13.560  0.00  0.00    +0.001 C 
ATOM     16  C   UNL     1      36.686 -22.713 -14.707  0.00  0.00    +0.001 C 
ATOM     17  C   UNL     1      35.345 -23.428 -12.367  0.00  0.00    +0.011 C 
ATOM     18  C   UNL     1      37.394 -22.858 -13.514  0.00  0.00    +0.011 C 
ATOM     19  C   UNL     1      36.723 -23.216 -12.344  0.00  0.00    +0.058 C 
ENDBRANCH  12  14
ENDBRANCH   8  11
ENDBRANCH   3   8
BRANCH   2  20
ATOM     20  C   UNL     1      36.454 -17.854 -21.864  0.00  0.00    +0.094 C 
BRANCH  20  22
ATOM     21  N   UNL     1      34.212 -14.237 -21.194  0.00  0.00    -0.307 N 
ATOM     22  C   UNL     1      36.101 -16.399 -21.570  0.00  0.00    +0.023 C 
ATOM     23  C   UNL     1      35.245 -16.289 -20.304  0.00  0.00    +0.023 C 
ATOM     24  C   UNL     1      35.353 -15.768 -22.749  0.00  0.00    +0.023 C 
ATOM     25  C   UNL     1      34.853 -14.840 -20.018  0.00  0.00    +0.091 C 
ATOM     26  C   UNL     1      34.956 -14.322 -22.456  0.00  0.00    +0.091 C 
BRANCH  21  28
ATOM     27  N   UNL     1      31.606 -10.983 -20.534  0.00  0.00    -0.242 NA
ATOM     28  C   UNL     1      33.347 -13.158 -20.975  0.00  0.00    +0.051 C 
ATOM     29  C   UNL     1      32.519 -13.112 -19.843  0.00  0.00    +0.035 C 
ATOM     30  C   UNL     1      33.282 -12.088 -21.881  0.00  0.00    +0.035 C 
ATOM     31  C   UNL     1      31.682 -12.022 -19.671  0.00  0.00    +0.100 C 
ATOM     32  C   UNL     1      32.410 -11.044 -21.620  0.00  0.00    +0.100 C 
ENDBRANCH  21  28
ENDBRANCH  20  22
ENDBRANCH   2  20
TORSDOF 6
ENDMDL
MODEL 3
REMARK VINA RESULT:     -10.9      4.074     11.409
REMARK  Name = 446345
REMARK  6 active torsions:
REMARK  status: ('A' for Active; 'I' for Inactive)
REMARK    1  A    between atoms: N_2  and  C_20
REMARK    2  A    between atoms: N_3  and  S_8
REMARK    3  A    between atoms: S_8  and  C_11
REMARK    4  A    between atoms: C_12  and  C_14
REMARK    5  A    between atoms: C_20  and  C_22
REMARK    6  A    between atoms: N_21  and  C_28
REMARK                            x       y       z     vdW  Elec       q    Type
REMARK                         _______ _______ _______ _____ _____    ______ ____
ROOT
ATOM      1  O   UNL     1      32.370 -20.238 -19.015  0.00  0.00    -0.273 OA
ATOM      2  N   UNL     1      34.396 -21.316 -18.689  0.00  0.00    -0.277 N 
ATOM      3  N   UNL     1      35.684 -19.276 -20.107  0.00  0.00    -0.144 NA
ATOM      4  C   UNL     1      35.850 -21.298 -18.815  0.00  0.00    +0.113 C 
ATOM      5  C   UNL     1      36.314 -20.614 -20.083  0.00  0.00    +0.118 C 
ATOM      6  C   UNL     1      33.581 -20.328 -19.235  0.00  0.00    +0.244 C 
ATOM      7  C   UNL     1      34.215 -19.372 -20.215  0.00  0.00    +0.181 C 
ENDROOT
BRANCH   3   8
ATOM      8  S   UNL     1      36.426 -18.120 -21.128  0.00  0.00    +0.065 S 
ATOM      9  O   UNL     1      36.139 -18.494 -22.502  0.00  0.00    -0.153 OA
ATOM     10  O   UNL     1      37.803 -17.960 -20.694  0.00  0.00    -0.153 OA
BRANCH   8  11
ATOM     11  C   UNL     1      35.582 -16.647 -20.786  0.00  0.00    +0.141 C 
ATOM     12  C   UNL     1      35.326 -15.835 -21.819  0.00  0.00    +0.021 C 
BRANCH  12  14
ATOM     13 CL   UNL     1      32.437 -10.631 -21.422  0.00  0.00    -0.082 Cl
ATOM     14  C   UNL     1      34.614 -14.549 -21.721  0.00  0.00    +0.001 C 
ATOM     15  C   UNL     1      34.045 -14.178 -20.512  0.00  0.00    +0.001 C 
ATOM     16  C   UNL     1      34.523 -13.735 -22.839  0.00  0.00    +0.001 C 
ATOM     17  C   UNL     1      33.370 -12.962 -20.419  0.00  0.00    +0.011 C 
ATOM     18  C   UNL     1      33.848 -12.519 -22.746  0.00  0.00    +0.011 C 
ATOM     19  C   UNL     1      33.271 -12.132 -21.535  0.00  0.00    +0.058 C 
ENDBRANCH  12  14
ENDBRANCH   8  11
ENDBRANCH   3   8
BRANCH   2  20
ATOM     20  C   UNL     1      33.843 -22.294 -17.762  0.00  0.00    +0.094 C 
BRANCH  20  22
ATOM     21  N   UNL     1      35.636 -22.890 -13.892  0.00  0.00    -0.307 N 
ATOM     22  C   UNL     1      34.331 -22.053 -16.336  0.00  0.00    +0.023 C 
ATOM     23  C   UNL     1      35.853 -22.205 -16.248  0.00  0.00    +0.023 C 
ATOM     24  C   UNL     1      33.663 -23.024 -15.358  0.00  0.00    +0.023 C 
ATOM     25  C   UNL     1      36.353 -22.004 -14.818  0.00  0.00    +0.091 C 
ATOM     26  C   UNL     1      34.172 -22.825 -13.930  0.00  0.00    +0.091 C 
BRANCH  21  28
ATOM     27  N   UNL     1      37.575 -23.906 -10.282  0.00  0.00    -0.242 NA
ATOM     28  C   UNL     1      36.280 -23.227 -12.694  0.00  0.00    +0.051 C 
ATOM     29  C   UNL     1      37.643 -23.558 -12.674  0.00  0.00    +0.035 C 
ATOM     30  C   UNL     1      35.580 -23.246 -11.478  0.00  0.00    +0.035 C 
ATOM     31  C   UNL     1      38.234 -23.883 -11.463  0.00  0.00    +0.100 C 
ATOM     32  C   UNL     1      36.261 -23.586 -10.321  0.00  0.00    +0.100 C 
ENDBRANCH  21  28
ENDBRANCH  20  22
ENDBRANCH   2  20
TORSDOF 6
ENDMDL
MODEL 4
REMARK VINA RESULT:     -10.0      3.644      5.139
REMARK  Name = 446345
REMARK  6 active torsions:
REMARK  status: ('A' for Active; 'I' for Inactive)
REMARK    1  A    between atoms: N_2  and  C_20
REMARK    2  A    between atoms: N_3  and  S_8
REMARK    3  A    between atoms: S_8  and  C_11
REMARK    4  A    between atoms: C_12  and  C_14
REMARK    5  A    between atoms: C_20  and  C_22
REMARK    6  A    between atoms: N_21  and  C_28
REMARK                            x       y       z     vdW  Elec       q    Type
REMARK                         _______ _______ _______ _____ _____    ______ ____
ROOT
ATOM      1  O   UNL     1      34.078 -21.478 -19.540  0.00  0.00    -0.273 OA
ATOM      2  N   UNL     1      36.129 -20.902 -18.627  0.00  0.00    -0.277 N 
ATOM      3  N   UNL     1      35.470 -22.325 -16.308  0.00  0.00    -0.144 NA
ATOM      4  C   UNL     1      37.097 -21.055 -17.545  0.00  0.00    +0.113 C 
ATOM      5  C   UNL     1      36.435 -21.210 -16.192  0.00  0.00    +0.118 C 
ATOM      6  C   UNL     1      34.856 -21.463 -18.582  0.00  0.00    +0.244 C 
ATOM      7  C   UNL     1      34.384 -22.004 -17.255  0.00  0.00    +0.181 C 
ENDROOT
BRANCH   3   8
ATOM      8  S   UNL     1      34.979 -23.043 -14.835  0.00  0.00    +0.065 S 
ATOM      9  O   UNL     1      35.801 -22.485 -13.774  0.00  0.00    -0.153 OA
ATOM     10  O   UNL     1      34.933 -24.481 -15.033  0.00  0.00    -0.153 OA
BRANCH   8  11
ATOM     11  C   UNL     1      33.356 -22.481 -14.608  0.00  0.00    +0.141 C 
ATOM     12  C   UNL     1      32.404 -23.046 -15.360  0.00  0.00    +0.021 C 
BRANCH  12  14
ATOM     13 CL   UNL     1      26.608 -21.655 -15.113  0.00  0.00    -0.082 Cl
ATOM     14  C   UNL     1      30.973 -22.703 -15.299  0.00  0.00    +0.001 C 
ATOM     15  C   UNL     1      30.138 -23.079 -16.340  0.00  0.00    +0.001 C 
ATOM     16  C   UNL     1      30.486 -22.009 -14.202  0.00  0.00    +0.001 C 
ATOM     17  C   UNL     1      28.783 -22.755 -16.282  0.00  0.00    +0.011 C 
ATOM     18  C   UNL     1      29.131 -21.684 -14.144  0.00  0.00    +0.011 C 
ATOM     19  C   UNL     1      28.280 -22.057 -15.185  0.00  0.00    +0.058 C 
ENDBRANCH  12  14
ENDBRANCH   8  11
ENDBRANCH   3   8
BRANCH   2  20
ATOM     20  C   UNL     1      36.635 -20.331 -19.867  0.00  0.00    +0.094 C 
BRANCH  20  22
ATOM     21  N   UNL     1      35.148 -16.973 -22.117  0.00  0.00    -0.307 N 
ATOM     22  C   UNL     1      35.730 -19.215 -20.380  0.00  0.00    +0.023 C 
ATOM     23  C   UNL     1      35.413 -19.409 -21.867  0.00  0.00    +0.023 C 
ATOM     24  C   UNL     1      36.381 -17.844 -20.171  0.00  0.00    +0.023 C 
ATOM     25  C   UNL     1      34.538 -18.278 -22.404  0.00  0.00    +0.091 C 
ATOM     26  C   UNL     1      35.506 -16.715 -20.718  0.00  0.00    +0.091 C 
BRANCH  21  28
ATOM     27  N   UNL     1      34.091 -13.742 -24.619  0.00  0.00    -0.242 NA
ATOM     28  C   UNL     1      34.797 -15.900 -22.947  0.00  0.00    +0.051 C 
ATOM     29  C   UNL     1      34.700 -14.595 -22.441  0.00  0.00    +0.035 C 
ATOM     30  C   UNL     1      34.531 -16.099 -24.310  0.00  0.00    +0.035 C 
ATOM     31  C   UNL     1      34.350 -13.569 -23.303  0.00  0.00    +0.100 C 
ATOM     32  C   UNL     1      34.188 -15.007 -25.090  0.00  0.00    +0.100 C 
ENDBRANCH  21  28
ENDBRANCH  20  22
ENDBRANCH   2  20
TORSDOF 6
ENDMDL
MODEL 5
REMARK VINA RESULT:      -9.6      6.619     12.629
REMARK  Name = 446345
REMARK  6 active torsions:
REMARK  status: ('A' for Active; 'I' for Inactive)
REMARK    1  A    between atoms: N_2  and  C_20
REMARK    2  A    between atoms: N_3  and  S_8
REMARK    3  A    between atoms: S_8  and  C_11
REMARK    4  A    between atoms: C_12  and  C_14
REMARK    5  A    between atoms: C_20  and  C_22
REMARK    6  A    between atoms: N_21  and  C_28
REMARK                            x       y       z     vdW  Elec       q    Type
REMARK                         _______ _______ _______ _____ _____    ______ ____
ROOT
ATOM      1  O   UNL     1      34.552 -11.498 -24.143  0.00  0.00    -0.273 OA
ATOM      2  N   UNL     1      33.967 -13.222 -22.707  0.00  0.00    -0.277 N 
ATOM      3  N   UNL     1      32.455 -11.418 -21.193  0.00  0.00    -0.144 NA
ATOM      4  C   UNL     1      33.166 -13.684 -21.578  0.00  0.00    +0.113 C 
ATOM      5  C   UNL     1      32.992 -12.619 -20.516  0.00  0.00    +0.118 C 
ATOM      6  C   UNL     1      34.008 -11.889 -23.106  0.00  0.00    +0.244 C 
ATOM      7  C   UNL     1      33.422 -10.867 -22.163  0.00  0.00    +0.181 C 
ENDROOT
BRANCH   3   8
ATOM      8  S   UNL     1      31.688 -10.272 -20.181  0.00  0.00    +0.065 S 
ATOM      9  O   UNL     1      32.555 -10.037 -19.039  0.00  0.00    -0.153 OA
ATOM     10  O   UNL     1      30.318 -10.708 -19.971  0.00  0.00    -0.153 OA
BRANCH   8  11
ATOM     11  C   UNL     1      31.649  -8.824 -21.131  0.00  0.00    +0.141 C 
ATOM     12  C   UNL     1      32.086  -7.700 -20.550  0.00  0.00    +0.021 C 
BRANCH  12  14
ATOM     13 CL   UNL     1      32.291  -2.359 -23.198  0.00  0.00    -0.082 Cl
ATOM     14  C   UNL     1      32.136  -6.381 -21.203  0.00  0.00    +0.001 C 
ATOM     15  C   UNL     1      32.125  -6.308 -22.588  0.00  0.00    +0.001 C 
ATOM     16  C   UNL     1      32.194  -5.237 -20.423  0.00  0.00    +0.001 C 
ATOM     17  C   UNL     1      32.173  -5.059 -23.207  0.00  0.00    +0.011 C 
ATOM     18  C   UNL     1      32.242  -3.989 -21.042  0.00  0.00    +0.011 C 
ATOM     19  C   UNL     1      32.231  -3.900 -22.435  0.00  0.00    +0.058 C 
ENDBRANCH  12  14
ENDBRANCH   8  11
ENDBRANCH   3   8
BRANCH   2  20
ATOM     20  C   UNL     1      34.544 -14.258 -23.553  0.00  0.00    +0.094 C 
BRANCH  20  22
ATOM     21  N   UNL     1      35.310 -17.695 -21.073  0.00  0.00    -0.307 N 
ATOM     22  C   UNL     1      35.265 -15.319 -22.727  0.00  0.00    +0.023 C 
ATOM     23  C   UNL     1      35.039 -16.716 -23.317  0.00  0.00    +0.023 C 
ATOM     24  C   UNL     1      34.788 -15.297 -21.271  0.00  0.00    +0.023 C 
ATOM     25  C   UNL     1      35.724 -17.794 -22.479  0.00  0.00    +0.091 C 
ATOM     26  C   UNL     1      35.469 -16.383 -20.438  0.00  0.00    +0.091 C 
BRANCH  21  28
ATOM     27  N   UNL     1      35.578 -21.188 -18.718  0.00  0.00    -0.242 NA
ATOM     28  C   UNL     1      35.399 -18.854 -20.291  0.00  0.00    +0.051 C 
ATOM     29  C   UNL     1      36.634 -19.296 -19.792  0.00  0.00    +0.035 C 
ATOM     30  C   UNL     1      34.257 -19.609 -19.985  0.00  0.00    +0.035 C 
ATOM     31  C   UNL     1      36.669 -20.449 -19.023  0.00  0.00    +0.100 C 
ATOM     32  C   UNL     1      34.397 -20.748 -19.209  0.00  0.00    +0.100 C 
ENDBRANCH  21  28
ENDBRANCH  20  22
ENDBRANCH   2  20
TORSDOF 6
ENDMDL
MODEL 6
REMARK VINA RESULT:      -9.6      6.271     10.101
REMARK  Name = 446345
REMARK  6 active torsions:
REMARK  status: ('A' for Active; 'I' for Inactive)
REMARK    1  A    between atoms: N_2  and  C_20
REMARK    2  A    between atoms: N_3  and  S_8
REMARK    3  A    between atoms: S_8  and  C_11
REMARK    4  A    between atoms: C_12  and  C_14
REMARK    5  A    between atoms: C_20  and  C_22
REMARK    6  A    between atoms: N_21  and  C_28
REMARK                            x       y       z     vdW  Elec       q    Type
REMARK                         _______ _______ _______ _____ _____    ______ ____
ROOT
ATOM      1  O   UNL     1      34.682 -23.917 -11.399  0.00  0.00    -0.273 OA
ATOM      2  N   UNL     1      33.769 -23.715 -13.521  0.00  0.00    -0.277 N 
ATOM      3  N   UNL     1      36.233 -22.784 -14.467  0.00  0.00    -0.144 NA
ATOM      4  C   UNL     1      33.969 -23.445 -14.941  0.00  0.00    +0.113 C 
ATOM      5  C   UNL     1      35.008 -22.372 -15.187  0.00  0.00    +0.118 C 
ATOM      6  C   UNL     1      34.778 -23.553 -12.575  0.00  0.00    +0.244 C 
ATOM      7  C   UNL     1      36.019 -22.812 -13.007  0.00  0.00    +0.181 C 
ENDROOT
BRANCH   3   8
ATOM      8  S   UNL     1      37.688 -22.048 -14.987  0.00  0.00    +0.065 S 
ATOM      9  O   UNL     1      38.495 -23.069 -15.632  0.00  0.00    -0.153 OA
ATOM     10  O   UNL     1      38.232 -21.296 -13.870  0.00  0.00    -0.153 OA
BRANCH   8  11
ATOM     11  C   UNL     1      37.183 -20.918 -16.199  0.00  0.00    +0.141 C 
ATOM     12  C   UNL     1      36.792 -21.420 -17.377  0.00  0.00    +0.021 C 
BRANCH  12  14
ATOM     13 CL   UNL     1      34.894 -18.163 -22.001  0.00  0.00    -0.082 Cl
ATOM     14  C   UNL     1      36.323 -20.615 -18.518  0.00  0.00    +0.001 C 
ATOM     15  C   UNL     1      34.988 -20.668 -18.884  0.00  0.00    +0.001 C 
ATOM     16  C   UNL     1      37.227 -19.821 -19.206  0.00  0.00    +0.001 C 
ATOM     17  C   UNL     1      34.544 -19.907 -19.964  0.00  0.00    +0.011 C 
ATOM     18  C   UNL     1      36.783 -19.060 -20.287  0.00  0.00    +0.011 C 
ATOM     19  C   UNL     1      35.441 -19.103 -20.666  0.00  0.00    +0.058 C 
ENDBRANCH  12  14
ENDBRANCH   8  11
ENDBRANCH   3   8
BRANCH   2  20
ATOM     20  C   UNL     1      32.531 -24.391 -13.162  0.00  0.00    +0.094 C 
BRANCH  20  22
ATOM     21  N   UNL     1      29.029 -22.821 -15.119  0.00  0.00    -0.307 N 
ATOM     22  C   UNL     1      31.435 -24.139 -14.195  0.00  0.00    +0.023 C 
ATOM     23  C   UNL     1      31.444 -22.677 -14.654  0.00  0.00    +0.023 C 
ATOM     24  C   UNL     1      30.056 -24.488 -13.626  0.00  0.00    +0.023 C 
ATOM     25  C   UNL     1      30.329 -22.401 -15.661  0.00  0.00    +0.091 C 
ATOM     26  C   UNL     1      28.942 -24.202 -14.633  0.00  0.00    +0.091 C 
BRANCH  21  28
ATOM     27  N   UNL     1      25.581 -20.943 -16.668  0.00  0.00    -0.242 NA
ATOM     28  C   UNL     1      27.885 -22.198 -15.633  0.00  0.00    +0.051 C 
ATOM     29  C   UNL     1      26.882 -21.710 -14.781  0.00  0.00    +0.035 C 
ATOM     30  C   UNL     1      27.705 -22.043 -17.016  0.00  0.00    +0.035 C 
ATOM     31  C   UNL     1      25.770 -21.101 -15.338  0.00  0.00    +0.100 C 
ATOM     32  C   UNL     1      26.556 -21.420 -17.474  0.00  0.00    +0.100 C 
ENDBRANCH  21  28
ENDBRANCH  20  22
ENDBRANCH   2  20
TORSDOF 6
ENDMDL
MODEL 7
REMARK VINA RESULT:      -9.2      2.927      3.642
REMARK  Name = 446345
REMARK  6 active torsions:
REMARK  status: ('A' for Active; 'I' for Inactive)
REMARK    1  A    between atoms: N_2  and  C_20
REMARK    2  A    between atoms: N_3  and  S_8
REMARK    3  A    between atoms: S_8  and  C_11
REMARK    4  A    between atoms: C_12  and  C_14
REMARK    5  A    between atoms: C_20  and  C_22
REMARK    6  A    between atoms: N_21  and  C_28
REMARK                            x       y       z     vdW  Elec       q    Type
REMARK                         _______ _______ _______ _____ _____    ______ ____
ROOT
ATOM      1  O   UNL     1      38.103 -18.710 -20.457  0.00  0.00    -0.273 OA
ATOM      2  N   UNL     1      35.867 -18.134 -20.671  0.00  0.00    -0.277 N 
ATOM      3  N   UNL     1      35.172 -20.330 -19.081  0.00  0.00    -0.144 NA
ATOM      4  C   UNL     1      34.480 -18.362 -20.278  0.00  0.00    +0.113 C 
ATOM      5  C   UNL     1      34.175 -19.827 -20.050  0.00  0.00    +0.118 C 
ATOM      6  C   UNL     1      36.910 -18.964 -20.267  0.00  0.00    +0.244 C 
ATOM      7  C   UNL     1      36.539 -20.284 -19.638  0.00  0.00    +0.181 C 
ENDROOT
BRANCH   3   8
ATOM      8  S   UNL     1      34.756 -21.774 -18.263  0.00  0.00    +0.065 S 
ATOM      9  O   UNL     1      35.643 -21.907 -17.120  0.00  0.00    -0.153 OA
ATOM     10  O   UNL     1      34.681 -22.839 -19.247  0.00  0.00    -0.153 OA
BRANCH   8  11
ATOM     11  C   UNL     1      33.156 -21.479 -17.668  0.00  0.00    +0.141 C 
ATOM     12  C   UNL     1      32.691 -22.311 -16.728  0.00  0.00    +0.021 C 
BRANCH  12  14
ATOM     13 CL   UNL     1      27.308 -21.907 -14.188  0.00  0.00    -0.082 Cl
ATOM     14  C   UNL     1      31.362 -22.211 -16.101  0.00  0.00    +0.001 C 
ATOM     15  C   UNL     1      31.264 -22.176 -14.719  0.00  0.00    +0.001 C 
ATOM     16  C   UNL     1      30.234 -22.155 -16.904  0.00  0.00    +0.001 C 
ATOM     17  C   UNL     1      30.006 -22.081 -14.125  0.00  0.00    +0.011 C 
ATOM     18  C   UNL     1      28.975 -22.060 -16.310  0.00  0.00    +0.011 C 
ATOM     19  C   UNL     1      28.862 -22.023 -14.920  0.00  0.00    +0.058 C 
ENDBRANCH  12  14
ENDBRANCH   8  11
ENDBRANCH   3   8
BRANCH   2  20
ATOM     20  C   UNL     1      36.153 -16.860 -21.316  0.00  0.00    +0.094 C 
BRANCH  20  22
ATOM     21  N   UNL     1      33.700 -13.322 -21.170  0.00  0.00    -0.307 N 
ATOM     22  C   UNL     1      34.939 -15.936 -21.294  0.00  0.00    +0.023 C 
ATOM     23  C   UNL     1      34.962 -14.976 -22.489  0.00  0.00    +0.023 C 
ATOM     24  C   UNL     1      34.886 -15.130 -19.992  0.00  0.00    +0.023 C 
ATOM     25  C   UNL     1      33.771 -14.019 -22.461  0.00  0.00    +0.091 C 
ATOM     26  C   UNL     1      33.698 -14.168 -19.972  0.00  0.00    +0.091 C 
BRANCH  21  28
ATOM     27  N   UNL     1      31.721  -9.595 -21.081  0.00  0.00    -0.242 NA
ATOM     28  C   UNL     1      33.043 -12.085 -21.141  0.00  0.00    +0.051 C 
ATOM     29  C   UNL     1      33.172 -11.173 -22.199  0.00  0.00    +0.035 C 
ATOM     30  C   UNL     1      32.238 -11.720 -20.051  0.00  0.00    +0.035 C 
ATOM     31  C   UNL     1      32.501  -9.963 -22.123  0.00  0.00    +0.100 C 
ATOM     32  C   UNL     1      31.610 -10.485 -20.070  0.00  0.00    +0.100 C 
ENDBRANCH  21  28
ENDBRANCH  20  22
ENDBRANCH   2  20
TORSDOF 6
ENDMDL
MODEL 8
REMARK VINA RESULT:      -9.1      5.244      8.269
REMARK  Name = 446345
REMARK  6 active torsions:
REMARK  status: ('A' for Active; 'I' for Inactive)
REMARK    1  A    between atoms: N_2  and  C_20
REMARK    2  A    between atoms: N_3  and  S_8
REMARK    3  A    between atoms: S_8  and  C_11
REMARK    4  A    between atoms: C_12  and  C_14
REMARK    5  A    between atoms: C_20  and  C_22
REMARK    6  A    between atoms: N_21  and  C_28
REMARK                            x       y       z     vdW  Elec       q    Type
REMARK                         _______ _______ _______ _____ _____    ______ ____
ROOT
ATOM      1  O   UNL     1      33.963 -10.425 -25.126  0.00  0.00    -0.273 OA
ATOM      2  N   UNL     1      33.859 -11.344 -23.000  0.00  0.00    -0.277 N 
ATOM      3  N   UNL     1      34.236 -13.887 -24.106  0.00  0.00    -0.144 NA
ATOM      4  C   UNL     1      34.000 -12.517 -22.143  0.00  0.00    +0.113 C 
ATOM      5  C   UNL     1      33.522 -13.787 -22.815  0.00  0.00    +0.118 C 
ATOM      6  C   UNL     1      33.926 -11.414 -24.389  0.00  0.00    +0.244 C 
ATOM      7  C   UNL     1      33.865 -12.785 -25.016  0.00  0.00    +0.181 C 
ENDROOT
BRANCH   3   8
ATOM      8  S   UNL     1      34.284 -15.445 -24.813  0.00  0.00    +0.065 S 
ATOM      9  O   UNL     1      35.552 -15.574 -25.513  0.00  0.00    -0.153 OA
ATOM     10  O   UNL     1      33.039 -15.648 -25.532  0.00  0.00    -0.153 OA
BRANCH   8  11
ATOM     11  C   UNL     1      34.306 -16.526 -23.460  0.00  0.00    +0.141 C 
ATOM     12  C   UNL     1      35.497 -16.999 -23.075  0.00  0.00    +0.021 C 
BRANCH  12  14
ATOM     13 CL   UNL     1      36.359 -20.724 -18.496  0.00  0.00    -0.082 Cl
ATOM     14  C   UNL     1      35.710 -17.918 -21.944  0.00  0.00    +0.001 C 
ATOM     15  C   UNL     1      36.941 -17.939 -21.308  0.00  0.00    +0.001 C 
ATOM     16  C   UNL     1      34.675 -18.747 -21.538  0.00  0.00    +0.001 C 
ATOM     17  C   UNL     1      37.142 -18.810 -20.237  0.00  0.00    +0.011 C 
ATOM     18  C   UNL     1      34.877 -19.617 -20.468  0.00  0.00    +0.011 C 
ATOM     19  C   UNL     1      36.111 -19.649 -19.817  0.00  0.00    +0.058 C 
ENDBRANCH  12  14
ENDBRANCH   8  11
ENDBRANCH   3   8
BRANCH   2  20
ATOM     20  C   UNL     1      33.879 -10.051 -22.330  0.00  0.00    +0.094 C 
BRANCH  20  22
ATOM     21  N   UNL     1      32.836  -6.161 -23.858  0.00  0.00    -0.307 N 
ATOM     22  C   UNL     1      33.487  -8.922 -23.279  0.00  0.00    +0.023 C 
ATOM     23  C   UNL     1      34.561  -7.829 -23.302  0.00  0.00    +0.023 C 
ATOM     24  C   UNL     1      32.143  -8.309 -22.873  0.00  0.00    +0.023 C 
ATOM     25  C   UNL     1      34.164  -6.674 -24.219  0.00  0.00    +0.091 C 
ATOM     26  C   UNL     1      31.754  -7.148 -23.789  0.00  0.00    +0.091 C 
BRANCH  21  28
ATOM     27  N   UNL     1      31.945  -2.170 -24.902  0.00  0.00    -0.242 NA
ATOM     28  C   UNL     1      32.541  -4.837 -24.205  0.00  0.00    +0.051 C 
ATOM     29  C   UNL     1      32.612  -4.405 -25.538  0.00  0.00    +0.035 C 
ATOM     30  C   UNL     1      32.164  -3.900 -23.229  0.00  0.00    +0.035 C 
ATOM     31  C   UNL     1      32.310  -3.085 -25.829  0.00  0.00    +0.100 C 
ATOM     32  C   UNL     1      31.882  -2.603 -23.623  0.00  0.00    +0.100 C 
ENDBRANCH  21  28
ENDBRANCH  20  22
ENDBRANCH   2  20
TORSDOF 6
ENDMDL
MODEL 9
REMARK VINA RESULT:      -8.9      2.382      3.130
REMARK  Name = 446345
REMARK  6 active torsions:
REMARK  status: ('A' for Active; 'I' for Inactive)
REMARK    1  A    between atoms: N_2  and  C_20
REMARK    2  A    between atoms: N_3  and  S_8
REMARK    3  A    between atoms: S_8  and  C_11
REMARK    4  A    between atoms: C_12  and  C_14
REMARK    5  A    between atoms: C_20  and  C_22
REMARK    6  A    between atoms: N_21  and  C_28
REMARK                            x       y       z     vdW  Elec       q    Type
REMARK                         _______ _______ _______ _____ _____    ______ ____
ROOT
ATOM      1  O   UNL     1      38.261 -17.884 -21.410  0.00  0.00    -0.273 OA
ATOM      2  N   UNL     1      36.007 -18.428 -21.376  0.00  0.00    -0.277 N 
ATOM      3  N   UNL     1      36.407 -19.835 -18.990  0.00  0.00    -0.144 NA
ATOM      4  C   UNL     1      34.881 -19.021 -20.662  0.00  0.00    +0.113 C 
ATOM      5  C   UNL     1      35.281 -20.241 -19.859  0.00  0.00    +0.118 C 
ATOM      6  C   UNL     1      37.317 -18.503 -20.910  0.00  0.00    +0.244 C 
ATOM      7  C   UNL     1      37.596 -19.466 -19.783  0.00  0.00    +0.181 C 
ENDROOT
BRANCH   3   8
ATOM      8  S   UNL     1      36.703 -20.838 -17.636  0.00  0.00    +0.065 S 
ATOM      9  O   UNL     1      37.135 -19.987 -16.540  0.00  0.00    -0.153 OA
ATOM     10  O   UNL     1      37.545 -21.939 -18.071  0.00  0.00    -0.153 OA
BRANCH   8  11
ATOM     11  C   UNL     1      35.146 -21.481 -17.233  0.00  0.00    +0.141 C 
ATOM     12  C   UNL     1      35.020 -22.078 -16.042  0.00  0.00    +0.021 C 
BRANCH  12  14
ATOM     13 CL   UNL     1      29.976 -24.487 -13.959  0.00  0.00    -0.082 Cl
ATOM     14  C   UNL     1      33.775 -22.672 -15.527  0.00  0.00    +0.001 C 
ATOM     15  C   UNL     1      33.807 -23.408 -14.353  0.00  0.00    +0.001 C 
ATOM     16  C   UNL     1      32.593 -22.486 -16.227  0.00  0.00    +0.001 C 
ATOM     17  C   UNL     1      32.628 -23.971 -13.866  0.00  0.00    +0.011 C 
ATOM     18  C   UNL     1      31.414 -23.049 -15.740  0.00  0.00    +0.011 C 
ATOM     19  C   UNL     1      31.432 -23.792 -14.559  0.00  0.00    +0.058 C 
ENDBRANCH  12  14
ENDBRANCH   8  11
ENDBRANCH   3   8
BRANCH   2  20
ATOM     20  C   UNL     1      35.673 -17.544 -22.484  0.00  0.00    +0.094 C 
BRANCH  20  22
ATOM     21  N   UNL     1      33.854 -13.821 -21.307  0.00  0.00    -0.307 N 
ATOM     22  C   UNL     1      35.489 -16.103 -22.016  0.00  0.00    +0.023 C 
ATOM     23  C   UNL     1      34.703 -16.053 -20.701  0.00  0.00    +0.023 C 
ATOM     24  C   UNL     1      34.761 -15.272 -23.078  0.00  0.00    +0.023 C 
ATOM     25  C   UNL     1      34.478 -14.614 -20.239  0.00  0.00    +0.091 C 
ATOM     26  C   UNL     1      34.530 -13.836 -22.608  0.00  0.00    +0.091 C 
BRANCH  21  28
ATOM     27  N   UNL     1      31.634 -10.421 -20.155  0.00  0.00    -0.242 NA
ATOM     28  C   UNL     1      33.118 -12.693 -20.925  0.00  0.00    +0.051 C 
ATOM     29  C   UNL     1      33.013 -11.577 -21.770  0.00  0.00    +0.035 C 
ATOM     30  C   UNL     1      32.462 -12.643 -19.685  0.00  0.00    +0.035 C 
ATOM     31  C   UNL     1      32.272 -10.486 -21.346  0.00  0.00    +0.100 C 
ATOM     32  C   UNL     1      31.747 -11.504 -19.354  0.00  0.00    +0.100 C 
ENDBRANCH  21  28
ENDBRANCH  20  22
ENDBRANCH   2  20
TORSDOF 6
ENDMDL
