MODEL 1
REMARK VINA RESULT:     -12.4      0.000      0.000
REMARK  Name = 208951
REMARK  4 active torsions:
REMARK  status: ('A' for Active; 'I' for Inactive)
REMARK    1  A    between atoms: N_1  and  C_19
REMARK    2  A    between atoms: N_2  and  C_11
REMARK    3  A    between atoms: C_19  and  C_20
REMARK    4  A    between atoms: C_23  and  C_26
REMARK                            x       y       z     vdW  Elec       q    Type
REMARK                         _______ _______ _______ _____ _____    ______ ____
ROOT
ATOM      1  N   UNL     1      34.831 -15.804 -23.604  0.00  0.00    +0.392 N 
ATOM      2  N   UNL     1      34.043 -13.078 -23.278  0.00  0.00    -0.309 N 
ATOM      3  C   UNL     1      34.702 -15.223 -22.262  0.00  0.00    -0.055 C 
ATOM      4  C   UNL     1      33.839 -15.206 -24.505  0.00  0.00    -0.055 C 
ATOM      5  C   UNL     1      34.927 -13.709 -22.294  0.00  0.00    +0.068 C 
ATOM      6  C   UNL     1      34.036 -13.691 -24.612  0.00  0.00    +0.068 C 
ATOM      7  H   UNL     1      35.765 -15.601 -23.962  0.00  0.00    -0.079 HD
ENDROOT
BRANCH   2  11
ATOM      8  O   UNL     1      32.234 -11.926 -21.260  0.00  0.00    -0.406 OA
ATOM      9  O   UNL     1      30.787 -11.194 -19.610  0.00  0.00    -0.223 OA
ATOM     10  N   UNL     1      31.763  -9.682 -21.091  0.00  0.00    -0.287 N 
ATOM     11  C   UNL     1      33.761 -11.710 -23.183  0.00  0.00    +0.084 C 
ATOM     12  C   UNL     1      32.904 -11.188 -22.222  0.00  0.00    +0.179 A 
ATOM     13  C   UNL     1      34.338 -10.773 -24.064  0.00  0.00    +0.018 C 
ATOM     14  C   UNL     1      32.635  -9.839 -22.137  0.00  0.00    +0.098 A 
ATOM     15  C   UNL     1      34.055  -9.395 -23.968  0.00  0.00    +0.003 C 
ATOM     16  C   UNL     1      33.188  -8.910 -22.988  0.00  0.00    +0.020 C 
ATOM     17  C   UNL     1      31.518 -10.937 -20.559  0.00  0.00    +0.419 A 
ATOM     18  H   UNL     1      31.382  -8.832 -20.776  0.00  0.00    +0.172 HD
ENDBRANCH   2  11
BRANCH   1  19
ATOM     19  C   UNL     1      34.667 -17.256 -23.552  0.00  0.00    -0.050 C 
BRANCH  19  20
ATOM     20  C   UNL     1      35.431 -17.846 -22.398  0.00  0.00    -0.043 C 
ATOM     21  C   UNL     1      34.781 -18.693 -21.509  0.00  0.00    -0.006 C 
ATOM     22  C   UNL     1      36.775 -17.539 -22.237  0.00  0.00    -0.006 C 
ATOM     23  C   UNL     1      35.490 -19.241 -20.440  0.00  0.00    -0.000 C 
ATOM     24  C   UNL     1      37.483 -18.086 -21.168  0.00  0.00    -0.000 C 
ATOM     25  C   UNL     1      36.841 -18.937 -20.269  0.00  0.00    -0.000 C 
BRANCH  23  26
ATOM     26  C   UNL     1      34.824 -20.125 -19.508  0.00  0.00    -0.000 C 
ATOM     27  C   UNL     1      35.576 -20.930 -18.651  0.00  0.00    -0.000 C 
ATOM     28  C   UNL     1      33.430 -20.173 -19.465  0.00  0.00    -0.000 C 
ATOM     29  C   UNL     1      34.934 -21.782 -17.752  0.00  0.00    -0.000 C 
ATOM     30  C   UNL     1      32.789 -21.026 -18.567  0.00  0.00    -0.000 C 
ATOM     31  C   UNL     1      33.541 -21.830 -17.710  0.00  0.00    +0.000 C 
ENDBRANCH  23  26
ENDBRANCH  19  20
ENDBRANCH   1  19
TORSDOF 4
ENDMDL
MODEL 2
REMARK VINA RESULT:     -12.2      6.493     11.808
REMARK  Name = 208951
REMARK  4 active torsions:
REMARK  status: ('A' for Active; 'I' for Inactive)
REMARK    1  A    between atoms: N_1  and  C_19
REMARK    2  A    between atoms: N_2  and  C_11
REMARK    3  A    between atoms: C_19  and  C_20
REMARK    4  A    between atoms: C_23  and  C_26
REMARK                            x       y       z     vdW  Elec       q    Type
REMARK                         _______ _______ _______ _____ _____    ______ ____
ROOT
ATOM      1  N   UNL     1      35.225 -21.257 -17.452  0.00  0.00    +0.392 N 
ATOM      2  N   UNL     1      36.457 -22.481 -15.183  0.00  0.00    -0.309 N 
ATOM      3  C   UNL     1      36.685 -21.400 -17.385  0.00  0.00    -0.055 C 
ATOM      4  C   UNL     1      34.581 -22.392 -16.780  0.00  0.00    -0.055 C 
ATOM      5  C   UNL     1      37.168 -21.441 -15.934  0.00  0.00    +0.068 C 
ATOM      6  C   UNL     1      34.993 -22.465 -15.307  0.00  0.00    +0.068 C 
ATOM      7  H   UNL     1      34.957 -20.396 -16.974  0.00  0.00    -0.079 HD
ENDROOT
BRANCH   2  11
ATOM      8  O   UNL     1      38.936 -24.067 -15.097  0.00  0.00    -0.406 OA
ATOM      9  O   UNL     1      40.894 -25.294 -15.214  0.00  0.00    -0.223 OA
ATOM     10  N   UNL     1      39.857 -24.903 -13.164  0.00  0.00    -0.287 N 
ATOM     11  C   UNL     1      37.010 -22.987 -14.001  0.00  0.00    +0.084 C 
ATOM     12  C   UNL     1      38.182 -23.733 -13.984  0.00  0.00    +0.179 A 
ATOM     13  C   UNL     1      36.405 -22.765 -12.748  0.00  0.00    +0.018 C 
ATOM     14  C   UNL     1      38.718 -24.225 -12.814  0.00  0.00    +0.098 A 
ATOM     15  C   UNL     1      36.963 -23.274 -11.557  0.00  0.00    +0.003 C 
ATOM     16  C   UNL     1      38.143 -24.020 -11.581  0.00  0.00    +0.020 C 
ATOM     17  C   UNL     1      39.993 -24.810 -14.539  0.00  0.00    +0.419 A 
ATOM     18  H   UNL     1      40.467 -25.370 -12.550  0.00  0.00    +0.172 HD
ENDBRANCH   2  11
BRANCH   1  19
ATOM     19  C   UNL     1      34.782 -21.165 -18.842  0.00  0.00    -0.050 C 
BRANCH  19  20
ATOM     20  C   UNL     1      35.562 -20.119 -19.592  0.00  0.00    -0.043 C 
ATOM     21  C   UNL     1      34.996 -19.510 -20.704  0.00  0.00    -0.006 C 
ATOM     22  C   UNL     1      36.837 -19.776 -19.161  0.00  0.00    -0.006 C 
ATOM     23  C   UNL     1      35.720 -18.540 -21.398  0.00  0.00    -0.000 C 
ATOM     24  C   UNL     1      37.559 -18.807 -19.855  0.00  0.00    -0.000 C 
ATOM     25  C   UNL     1      37.001 -18.189 -20.974  0.00  0.00    -0.000 C 
BRANCH  23  26
ATOM     26  C   UNL     1      35.140 -17.897 -22.558  0.00  0.00    -0.000 C 
ATOM     27  C   UNL     1      35.292 -16.523 -22.742  0.00  0.00    -0.000 C 
ATOM     28  C   UNL     1      34.430 -18.652 -23.492  0.00  0.00    -0.000 C 
ATOM     29  C   UNL     1      34.734 -15.903 -23.860  0.00  0.00    -0.000 C 
ATOM     30  C   UNL     1      33.872 -18.032 -24.610  0.00  0.00    -0.000 C 
ATOM     31  C   UNL     1      34.024 -16.658 -24.794  0.00  0.00    +0.000 C 
ENDBRANCH  23  26
ENDBRANCH  19  20
ENDBRANCH   1  19
TORSDOF 4
ENDMDL
MODEL 3
REMARK VINA RESULT:     -12.0      1.575      2.444
REMARK  Name = 208951
REMARK  4 active torsions:
REMARK  status: ('A' for Active; 'I' for Inactive)
REMARK    1  A    between atoms: N_1  and  C_19
REMARK    2  A    between atoms: N_2  and  C_11
REMARK    3  A    between atoms: C_19  and  C_20
REMARK    4  A    between atoms: C_23  and  C_26
REMARK                            x       y       z     vdW  Elec       q    Type
REMARK                         _______ _______ _______ _____ _____    ______ ____
ROOT
ATOM      1  N   UNL     1      34.906 -15.868 -23.452  0.00  0.00    +0.392 N 
ATOM      2  N   UNL     1      33.771 -13.338 -22.766  0.00  0.00    -0.309 N 
ATOM      3  C   UNL     1      34.808 -15.454 -22.047  0.00  0.00    -0.055 C 
ATOM      4  C   UNL     1      33.768 -15.336 -24.210  0.00  0.00    -0.055 C 
ATOM      5  C   UNL     1      34.815 -13.928 -21.922  0.00  0.00    +0.068 C 
ATOM      6  C   UNL     1      33.740 -13.806 -24.158  0.00  0.00    +0.068 C 
ATOM      7  H   UNL     1      35.769 -15.493 -23.846  0.00  0.00    -0.079 HD
ENDROOT
BRANCH   2  11
ATOM      8  O   UNL     1      34.760 -10.936 -24.153  0.00  0.00    -0.406 OA
ATOM      9  O   UNL     1      35.649  -9.160 -25.340  0.00  0.00    -0.223 OA
ATOM     10  N   UNL     1      34.009  -8.807 -23.723  0.00  0.00    -0.287 N 
ATOM     11  C   UNL     1      33.309 -12.045 -22.497  0.00  0.00    +0.084 C 
ATOM     12  C   UNL     1      33.789 -10.925 -23.164  0.00  0.00    +0.179 A 
ATOM     13  C   UNL     1      32.317 -11.801 -21.526  0.00  0.00    +0.018 C 
ATOM     14  C   UNL     1      33.325  -9.656 -22.892  0.00  0.00    +0.098 A 
ATOM     15  C   UNL     1      31.851 -10.499 -21.255  0.00  0.00    +0.003 C 
ATOM     16  C   UNL     1      32.359  -9.398 -21.948  0.00  0.00    +0.020 C 
ATOM     17  C   UNL     1      34.875  -9.573 -24.485  0.00  0.00    +0.419 A 
ATOM     18  H   UNL     1      33.903  -7.830 -23.770  0.00  0.00    +0.172 HD
ENDBRANCH   2  11
BRANCH   1  19
ATOM     19  C   UNL     1      34.953 -17.326 -23.554  0.00  0.00    -0.050 C 
BRANCH  19  20
ATOM     20  C   UNL     1      35.631 -17.932 -22.355  0.00  0.00    -0.043 C 
ATOM     21  C   UNL     1      34.903 -18.746 -21.497  0.00  0.00    -0.006 C 
ATOM     22  C   UNL     1      36.974 -17.670 -22.122  0.00  0.00    -0.006 C 
ATOM     23  C   UNL     1      35.532 -19.309 -20.386  0.00  0.00    -0.000 C 
ATOM     24  C   UNL     1      37.602 -18.232 -21.012  0.00  0.00    -0.000 C 
ATOM     25  C   UNL     1      36.881 -19.051 -20.143  0.00  0.00    -0.000 C 
BRANCH  23  26
ATOM     26  C   UNL     1      34.785 -20.160 -19.485  0.00  0.00    -0.000 C 
ATOM     27  C   UNL     1      33.392 -20.104 -19.467  0.00  0.00    -0.000 C 
ATOM     28  C   UNL     1      35.459 -21.039 -18.635  0.00  0.00    -0.000 C 
ATOM     29  C   UNL     1      32.672 -20.926 -18.599  0.00  0.00    -0.000 C 
ATOM     30  C   UNL     1      34.739 -21.859 -17.768  0.00  0.00    -0.000 C 
ATOM     31  C   UNL     1      33.345 -21.803 -17.750  0.00  0.00    +0.000 C 
ENDBRANCH  23  26
ENDBRANCH  19  20
ENDBRANCH   1  19
TORSDOF 4
ENDMDL
MODEL 4
REMARK VINA RESULT:     -11.7      1.948      3.328
REMARK  Name = 208951
REMARK  4 active torsions:
REMARK  status: ('A' for Active; 'I' for Inactive)
REMARK    1  A    between atoms: N_1  and  C_19
REMARK    2  A    between atoms: N_2  and  C_11
REMARK    3  A    between atoms: C_19  and  C_20
REMARK    4  A    between atoms: C_23  and  C_26
REMARK                            x       y       z     vdW  Elec       q    Type
REMARK                         _______ _______ _______ _____ _____    ______ ____
ROOT
ATOM      1  N   UNL     1      36.031 -16.768 -21.388  0.00  0.00    +0.392 N 
ATOM      2  N   UNL     1      34.290 -14.514 -21.174  0.00  0.00    -0.309 N 
ATOM      3  C   UNL     1      35.255 -16.542 -20.163  0.00  0.00    -0.055 C 
ATOM      4  C   UNL     1      35.270 -16.305 -22.554  0.00  0.00    -0.055 C 
ATOM      5  C   UNL     1      34.940 -15.055 -19.977  0.00  0.00    +0.068 C 
ATOM      6  C   UNL     1      34.956 -14.811 -22.449  0.00  0.00    +0.068 C 
ATOM      7  H   UNL     1      36.900 -16.235 -21.330  0.00  0.00    -0.079 HD
ENDROOT
BRANCH   2  11
ATOM      8  O   UNL     1      34.533 -12.280 -23.077  0.00  0.00    -0.406 OA
ATOM      9  O   UNL     1      34.854 -10.625 -24.662  0.00  0.00    -0.223 OA
ATOM     10  N   UNL     1      33.306 -10.341 -22.943  0.00  0.00    -0.287 N 
ATOM     11  C   UNL     1      33.539 -13.336 -21.084  0.00  0.00    +0.084 C 
ATOM     12  C   UNL     1      33.670 -12.294 -21.994  0.00  0.00    +0.179 A 
ATOM     13  C   UNL     1      32.595 -13.137 -20.056  0.00  0.00    +0.018 C 
ATOM     14  C   UNL     1      32.924 -11.139 -21.896  0.00  0.00    +0.098 A 
ATOM     15  C   UNL     1      31.838 -11.951 -19.966  0.00  0.00    +0.003 C 
ATOM     16  C   UNL     1      31.999 -10.927 -20.900  0.00  0.00    +0.020 C 
ATOM     17  C   UNL     1      34.276 -11.024 -23.658  0.00  0.00    +0.419 A 
ATOM     18  H   UNL     1      32.954  -9.446 -23.149  0.00  0.00    +0.172 HD
ENDBRANCH   2  11
BRANCH   1  19
ATOM     19  C   UNL     1      36.372 -18.183 -21.525  0.00  0.00    -0.050 C 
BRANCH  19  20
ATOM     20  C   UNL     1      35.466 -19.042 -20.686  0.00  0.00    -0.043 C 
ATOM     21  C   UNL     1      35.978 -19.688 -19.569  0.00  0.00    -0.006 C 
ATOM     22  C   UNL     1      34.130 -19.178 -21.040  0.00  0.00    -0.006 C 
ATOM     23  C   UNL     1      35.137 -20.485 -18.790  0.00  0.00    -0.000 C 
ATOM     24  C   UNL     1      33.290 -19.974 -20.262  0.00  0.00    -0.000 C 
ATOM     25  C   UNL     1      33.793 -20.628 -19.138  0.00  0.00    -0.000 C 
BRANCH  23  26
ATOM     26  C   UNL     1      35.658 -21.161 -17.622  0.00  0.00    -0.000 C 
ATOM     27  C   UNL     1      36.979 -20.954 -17.227  0.00  0.00    -0.000 C 
ATOM     28  C   UNL     1      34.837 -22.021 -16.891  0.00  0.00    -0.000 C 
ATOM     29  C   UNL     1      37.481 -21.606 -16.101  0.00  0.00    -0.000 C 
ATOM     30  C   UNL     1      35.340 -22.674 -15.765  0.00  0.00    -0.000 C 
ATOM     31  C   UNL     1      36.662 -22.466 -15.370  0.00  0.00    +0.000 C 
ENDBRANCH  23  26
ENDBRANCH  19  20
ENDBRANCH   1  19
TORSDOF 4
ENDMDL
MODEL 5
REMARK VINA RESULT:     -11.6      4.520     10.085
REMARK  Name = 208951
REMARK  4 active torsions:
REMARK  status: ('A' for Active; 'I' for Inactive)
REMARK    1  A    between atoms: N_1  and  C_19
REMARK    2  A    between atoms: N_2  and  C_11
REMARK    3  A    between atoms: C_19  and  C_20
REMARK    4  A    between atoms: C_23  and  C_26
REMARK                            x       y       z     vdW  Elec       q    Type
REMARK                         _______ _______ _______ _____ _____    ______ ____
ROOT
ATOM      1  N   UNL     1      35.982 -19.351 -20.743  0.00  0.00    +0.392 N 
ATOM      2  N   UNL     1      34.960 -20.786 -18.494  0.00  0.00    -0.309 N 
ATOM      3  C   UNL     1      34.686 -18.988 -20.156  0.00  0.00    -0.055 C 
ATOM      4  C   UNL     1      36.889 -19.829 -19.693  0.00  0.00    -0.055 C 
ATOM      5  C   UNL     1      34.038 -20.192 -19.467  0.00  0.00    +0.068 C 
ATOM      6  C   UNL     1      36.315 -21.061 -18.989  0.00  0.00    +0.068 C 
ATOM      7  H   UNL     1      35.838 -20.100 -21.420  0.00  0.00    -0.079 HD
ENDROOT
BRANCH   2  11
ATOM      8  O   UNL     1      36.621 -21.848 -16.306  0.00  0.00    -0.406 OA
ATOM      9  O   UNL     1      38.070 -22.595 -14.665  0.00  0.00    -0.223 OA
ATOM     10  N   UNL     1      35.812 -23.173 -14.610  0.00  0.00    -0.287 N 
ATOM     11  C   UNL     1      34.460 -21.593 -17.466  0.00  0.00    +0.084 C 
ATOM     12  C   UNL     1      35.262 -22.083 -16.442  0.00  0.00    +0.179 A 
ATOM     13  C   UNL     1      33.099 -21.957 -17.407  0.00  0.00    +0.018 C 
ATOM     14  C   UNL     1      34.758 -22.876 -15.434  0.00  0.00    +0.098 A 
ATOM     15  C   UNL     1      32.595 -22.770 -16.371  0.00  0.00    +0.003 C 
ATOM     16  C   UNL     1      33.434 -23.243 -15.360  0.00  0.00    +0.020 C 
ATOM     17  C   UNL     1      36.938 -22.555 -15.132  0.00  0.00    +0.419 A 
ATOM     18  H   UNL     1      35.776 -23.724 -13.797  0.00  0.00    +0.172 HD
ENDBRANCH   2  11
BRANCH   1  19
ATOM     19  C   UNL     1      36.565 -18.208 -21.444  0.00  0.00    -0.050 C 
BRANCH  19  20
ATOM     20  C   UNL     1      35.653 -17.719 -22.536  0.00  0.00    -0.043 C 
ATOM     21  C   UNL     1      35.419 -16.357 -22.674  0.00  0.00    -0.006 C 
ATOM     22  C   UNL     1      35.059 -18.636 -23.393  0.00  0.00    -0.006 C 
ATOM     23  C   UNL     1      34.575 -15.905 -23.688  0.00  0.00    -0.000 C 
ATOM     24  C   UNL     1      34.215 -18.183 -24.406  0.00  0.00    -0.000 C 
ATOM     25  C   UNL     1      33.972 -16.818 -24.554  0.00  0.00    -0.000 C 
BRANCH  23  26
ATOM     26  C   UNL     1      34.325 -14.488 -23.843  0.00  0.00    -0.000 C 
ATOM     27  C   UNL     1      34.573 -13.616 -22.784  0.00  0.00    -0.000 C 
ATOM     28  C   UNL     1      33.835 -13.994 -25.054  0.00  0.00    -0.000 C 
ATOM     29  C   UNL     1      34.332 -12.250 -22.934  0.00  0.00    -0.000 C 
ATOM     30  C   UNL     1      33.594 -12.629 -25.202  0.00  0.00    -0.000 C 
ATOM     31  C   UNL     1      33.843 -11.757 -24.143  0.00  0.00    +0.000 C 
ENDBRANCH  23  26
ENDBRANCH  19  20
ENDBRANCH   1  19
TORSDOF 4
ENDMDL
MODEL 6
REMARK VINA RESULT:     -11.5      6.690     12.040
REMARK  Name = 208951
REMARK  4 active torsions:
REMARK  status: ('A' for Active; 'I' for Inactive)
REMARK    1  A    between atoms: N_1  and  C_19
REMARK    2  A    between atoms: N_2  and  C_11
REMARK    3  A    between atoms: C_19  and  C_20
REMARK    4  A    between atoms: C_23  and  C_26
REMARK                            x       y       z     vdW  Elec       q    Type
REMARK                         _______ _______ _______ _____ _____    ______ ____
ROOT
ATOM      1  N   UNL     1      36.545 -20.904 -17.429  0.00  0.00    +0.392 N 
ATOM      2  N   UNL     1      36.528 -22.472 -15.042  0.00  0.00    -0.309 N 
ATOM      3  C   UNL     1      37.796 -21.189 -16.718  0.00  0.00    -0.055 C 
ATOM      4  C   UNL     1      35.624 -22.039 -17.293  0.00  0.00    -0.055 C 
ATOM      5  C   UNL     1      37.541 -21.429 -15.228  0.00  0.00    +0.068 C 
ATOM      6  C   UNL     1      35.295 -22.307 -15.823  0.00  0.00    +0.068 C 
ATOM      7  H   UNL     1      36.112 -20.078 -17.016  0.00  0.00    -0.079 HD
ENDROOT
BRANCH   2  11
ATOM      8  O   UNL     1      38.365 -24.635 -14.256  0.00  0.00    -0.406 OA
ATOM      9  O   UNL     1      39.895 -26.310 -13.801  0.00  0.00    -0.223 OA
ATOM     10  N   UNL     1      38.243 -25.757 -12.253  0.00  0.00    -0.287 N 
ATOM     11  C   UNL     1      36.446 -23.151 -13.820  0.00  0.00    +0.084 C 
ATOM     12  C   UNL     1      37.324 -24.169 -13.469  0.00  0.00    +0.179 A 
ATOM     13  C   UNL     1      35.458 -22.837 -12.865  0.00  0.00    +0.018 C 
ATOM     14  C   UNL     1      37.234 -24.829 -12.263  0.00  0.00    +0.098 A 
ATOM     15  C   UNL     1      35.375 -23.520 -11.634  0.00  0.00    +0.003 C 
ATOM     16  C   UNL     1      36.277 -24.537 -11.319  0.00  0.00    +0.020 C 
ATOM     17  C   UNL     1      38.928 -25.644 -13.452  0.00  0.00    +0.419 A 
ATOM     18  H   UNL     1      38.444 -26.388 -11.526  0.00  0.00    +0.172 HD
ENDBRANCH   2  11
BRANCH   1  19
ATOM     19  C   UNL     1      36.808 -20.624 -18.839  0.00  0.00    -0.050 C 
BRANCH  19  20
ATOM     20  C   UNL     1      35.569 -20.129 -19.535  0.00  0.00    -0.043 C 
ATOM     21  C   UNL     1      35.688 -19.242 -20.597  0.00  0.00    -0.006 C 
ATOM     22  C   UNL     1      34.323 -20.567 -19.107  0.00  0.00    -0.006 C 
ATOM     23  C   UNL     1      34.538 -18.785 -21.242  0.00  0.00    -0.000 C 
ATOM     24  C   UNL     1      33.174 -20.110 -19.751  0.00  0.00    -0.000 C 
ATOM     25  C   UNL     1      33.282 -19.218 -20.818  0.00  0.00    -0.000 C 
BRANCH  23  26
ATOM     26  C   UNL     1      34.649 -17.861 -22.350  0.00  0.00    -0.000 C 
ATOM     27  C   UNL     1      35.222 -16.605 -22.157  0.00  0.00    -0.000 C 
ATOM     28  C   UNL     1      34.183 -18.229 -23.614  0.00  0.00    -0.000 C 
ATOM     29  C   UNL     1      35.329 -15.715 -23.226  0.00  0.00    -0.000 C 
ATOM     30  C   UNL     1      34.290 -17.339 -24.681  0.00  0.00    -0.000 C 
ATOM     31  C   UNL     1      34.864 -16.082 -24.488  0.00  0.00    +0.000 C 
ENDBRANCH  23  26
ENDBRANCH  19  20
ENDBRANCH   1  19
TORSDOF 4
ENDMDL
MODEL 7
REMARK VINA RESULT:     -11.4      1.885      3.353
REMARK  Name = 208951
REMARK  4 active torsions:
REMARK  status: ('A' for Active; 'I' for Inactive)
REMARK    1  A    between atoms: N_1  and  C_19
REMARK    2  A    between atoms: N_2  and  C_11
REMARK    3  A    between atoms: C_19  and  C_20
REMARK    4  A    between atoms: C_23  and  C_26
REMARK                            x       y       z     vdW  Elec       q    Type
REMARK                         _______ _______ _______ _____ _____    ______ ____
ROOT
ATOM      1  N   UNL     1      34.261 -14.100 -22.553  0.00  0.00    +0.392 N 
ATOM      2  N   UNL     1      33.160 -11.975 -20.993  0.00  0.00    -0.309 N 
ATOM      3  C   UNL     1      34.109 -12.757 -23.127  0.00  0.00    -0.055 C 
ATOM      4  C   UNL     1      34.562 -13.998 -21.120  0.00  0.00    -0.055 C 
ATOM      5  C   UNL     1      32.971 -11.993 -22.447  0.00  0.00    +0.068 C 
ATOM      6  C   UNL     1      33.437 -13.276 -20.372  0.00  0.00    +0.068 C 
ATOM      7  H   UNL     1      33.385 -14.609 -22.670  0.00  0.00    -0.079 HD
ENDROOT
BRANCH   2  11
ATOM      8  O   UNL     1      33.098  -9.115 -21.695  0.00  0.00    -0.406 OA
ATOM      9  O   UNL     1      33.150  -6.912 -22.397  0.00  0.00    -0.223 OA
ATOM     10  N   UNL     1      32.040  -7.509 -20.436  0.00  0.00    -0.287 N 
ATOM     11  C   UNL     1      32.514 -11.003 -20.221  0.00  0.00    +0.084 C 
ATOM     12  C   UNL     1      32.497  -9.658 -20.570  0.00  0.00    +0.179 A 
ATOM     13  C   UNL     1      31.834 -11.336 -19.031  0.00  0.00    +0.018 C 
ATOM     14  C   UNL     1      31.857  -8.710 -19.802  0.00  0.00    +0.098 A 
ATOM     15  C   UNL     1      31.183 -10.357 -18.253  0.00  0.00    +0.003 C 
ATOM     16  C   UNL     1      31.189  -9.015 -18.639  0.00  0.00    +0.020 C 
ATOM     17  C   UNL     1      32.788  -7.748 -21.578  0.00  0.00    +0.419 A 
ATOM     18  H   UNL     1      31.702  -6.636 -20.135  0.00  0.00    +0.172 HD
ENDBRANCH   2  11
BRANCH   1  19
ATOM     19  C   UNL     1      35.315 -14.838 -23.247  0.00  0.00    -0.050 C 
BRANCH  19  20
ATOM     20  C   UNL     1      35.019 -16.313 -23.268  0.00  0.00    -0.043 C 
ATOM     21  C   UNL     1      35.221 -17.068 -22.120  0.00  0.00    -0.006 C 
ATOM     22  C   UNL     1      34.547 -16.900 -24.434  0.00  0.00    -0.006 C 
ATOM     23  C   UNL     1      34.946 -18.436 -22.140  0.00  0.00    -0.000 C 
ATOM     24  C   UNL     1      34.273 -18.266 -24.454  0.00  0.00    -0.000 C 
ATOM     25  C   UNL     1      34.472 -19.035 -23.308  0.00  0.00    -0.000 C 
BRANCH  23  26
ATOM     26  C   UNL     1      35.151 -19.233 -20.950  0.00  0.00    -0.000 C 
ATOM     27  C   UNL     1      36.441 -19.435 -20.459  0.00  0.00    -0.000 C 
ATOM     28  C   UNL     1      34.058 -19.800 -20.293  0.00  0.00    -0.000 C 
ATOM     29  C   UNL     1      36.638 -20.203 -19.312  0.00  0.00    -0.000 C 
ATOM     30  C   UNL     1      34.256 -20.568 -19.146  0.00  0.00    -0.000 C 
ATOM     31  C   UNL     1      35.546 -20.769 -18.655  0.00  0.00    +0.000 C 
ENDBRANCH  23  26
ENDBRANCH  19  20
ENDBRANCH   1  19
TORSDOF 4
ENDMDL
MODEL 8
REMARK VINA RESULT:     -11.3      3.574     11.205
REMARK  Name = 208951
REMARK  4 active torsions:
REMARK  status: ('A' for Active; 'I' for Inactive)
REMARK    1  A    between atoms: N_1  and  C_19
REMARK    2  A    between atoms: N_2  and  C_11
REMARK    3  A    between atoms: C_19  and  C_20
REMARK    4  A    between atoms: C_23  and  C_26
REMARK                            x       y       z     vdW  Elec       q    Type
REMARK                         _______ _______ _______ _____ _____    ______ ____
ROOT
ATOM      1  N   UNL     1      32.461 -10.341 -21.406  0.00  0.00    +0.392 N 
ATOM      2  N   UNL     1      33.648 -12.939 -21.405  0.00  0.00    -0.309 N 
ATOM      3  C   UNL     1      33.184 -10.828 -22.587  0.00  0.00    -0.055 C 
ATOM      4  C   UNL     1      31.794 -11.461 -20.731  0.00  0.00    -0.055 C 
ATOM      5  C   UNL     1      34.246 -11.858 -22.196  0.00  0.00    +0.068 C 
ATOM      6  C   UNL     1      32.810 -12.512 -20.277  0.00  0.00    +0.068 C 
ATOM      7  H   UNL     1      33.129  -9.919 -20.761  0.00  0.00    -0.079 HD
ENDROOT
BRANCH   2  11
ATOM      8  O   UNL     1      34.371 -14.585 -23.737  0.00  0.00    -0.406 OA
ATOM      9  O   UNL     1      34.864 -15.746 -25.676  0.00  0.00    -0.223 OA
ATOM     10  N   UNL     1      35.446 -16.612 -23.592  0.00  0.00    -0.287 N 
ATOM     11  C   UNL     1      34.302 -14.172 -21.308  0.00  0.00    +0.084 C 
ATOM     12  C   UNL     1      34.634 -14.933 -22.422  0.00  0.00    +0.179 A 
ATOM     13  C   UNL     1      34.667 -14.719 -20.061  0.00  0.00    +0.018 C 
ATOM     14  C   UNL     1      35.279 -16.146 -22.314  0.00  0.00    +0.098 A 
ATOM     15  C   UNL     1      35.326 -15.962 -19.962  0.00  0.00    +0.003 C 
ATOM     16  C   UNL     1      35.643 -16.696 -21.106  0.00  0.00    +0.020 C 
ATOM     17  C   UNL     1      34.900 -15.674 -24.454  0.00  0.00    +0.419 A 
ATOM     18  H   UNL     1      35.876 -17.458 -23.850  0.00  0.00    +0.172 HD
ENDBRANCH   2  11
BRANCH   1  19
ATOM     19  C   UNL     1      31.487  -9.318 -21.786  0.00  0.00    -0.050 C 
BRANCH  19  20
ATOM     20  C   UNL     1      31.886  -7.967 -21.260  0.00  0.00    -0.043 C 
ATOM     21  C   UNL     1      31.809  -6.858 -22.092  0.00  0.00    -0.006 C 
ATOM     22  C   UNL     1      32.325  -7.845 -19.948  0.00  0.00    -0.006 C 
ATOM     23  C   UNL     1      32.179  -5.605 -21.603  0.00  0.00    -0.000 C 
ATOM     24  C   UNL     1      32.694  -6.593 -19.460  0.00  0.00    -0.000 C 
ATOM     25  C   UNL     1      32.622  -5.473 -20.287  0.00  0.00    -0.000 C 
BRANCH  23  26
ATOM     26  C   UNL     1      32.101  -4.442 -22.460  0.00  0.00    -0.000 C 
ATOM     27  C   UNL     1      32.251  -3.165 -21.919  0.00  0.00    -0.000 C 
ATOM     28  C   UNL     1      31.878  -4.597 -23.829  0.00  0.00    -0.000 C 
ATOM     29  C   UNL     1      32.177  -2.044 -22.746  0.00  0.00    -0.000 C 
ATOM     30  C   UNL     1      31.804  -3.476 -24.655  0.00  0.00    -0.000 C 
ATOM     31  C   UNL     1      31.954  -2.199 -24.113  0.00  0.00    +0.000 C 
ENDBRANCH  23  26
ENDBRANCH  19  20
ENDBRANCH   1  19
TORSDOF 4
ENDMDL
MODEL 9
REMARK VINA RESULT:     -11.0      3.675      7.177
REMARK  Name = 208951
REMARK  4 active torsions:
REMARK  status: ('A' for Active; 'I' for Inactive)
REMARK    1  A    between atoms: N_1  and  C_19
REMARK    2  A    between atoms: N_2  and  C_11
REMARK    3  A    between atoms: C_19  and  C_20
REMARK    4  A    between atoms: C_23  and  C_26
REMARK                            x       y       z     vdW  Elec       q    Type
REMARK                         _______ _______ _______ _____ _____    ______ ____
ROOT
ATOM      1  N   UNL     1      34.561 -21.290 -18.482  0.00  0.00    +0.392 N 
ATOM      2  N   UNL     1      34.737 -19.457 -20.666  0.00  0.00    -0.309 N 
ATOM      3  C   UNL     1      33.434 -21.125 -19.407  0.00  0.00    -0.055 C 
ATOM      4  C   UNL     1      35.828 -21.113 -19.203  0.00  0.00    -0.055 C 
ATOM      5  C   UNL     1      33.440 -19.732 -20.041  0.00  0.00    +0.068 C 
ATOM      6  C   UNL     1      35.915 -19.719 -19.829  0.00  0.00    +0.068 C 
ATOM      7  H   UNL     1      34.496 -20.579 -17.753  0.00  0.00    -0.079 HD
ENDROOT
BRANCH   2  11
ATOM      8  O   UNL     1      35.031 -16.589 -20.065  0.00  0.00    -0.406 OA
ATOM      9  O   UNL     1      35.258 -14.381 -19.411  0.00  0.00    -0.223 OA
ATOM     10  N   UNL     1      35.199 -14.953 -21.670  0.00  0.00    -0.287 N 
ATOM     11  C   UNL     1      34.838 -18.467 -21.650  0.00  0.00    +0.084 C 
ATOM     12  C   UNL     1      34.976 -17.119 -21.344  0.00  0.00    +0.179 A 
ATOM     13  C   UNL     1      34.807 -18.784 -23.024  0.00  0.00    +0.018 C 
ATOM     14  C   UNL     1      35.077 -16.153 -22.322  0.00  0.00    +0.098 A 
ATOM     15  C   UNL     1      34.909 -17.787 -24.015  0.00  0.00    +0.003 C 
ATOM     16  C   UNL     1      35.048 -16.442 -23.666  0.00  0.00    +0.020 C 
ATOM     17  C   UNL     1      35.172 -15.211 -20.309  0.00  0.00    +0.419 A 
ATOM     18  H   UNL     1      35.291 -14.069 -22.093  0.00  0.00    +0.172 HD
ENDBRANCH   2  11
BRANCH   1  19
ATOM     19  C   UNL     1      34.513 -22.604 -17.844  0.00  0.00    -0.050 C 
BRANCH  19  20
ATOM     20  C   UNL     1      33.720 -22.557 -16.566  0.00  0.00    -0.043 C 
ATOM     21  C   UNL     1      32.337 -22.447 -16.623  0.00  0.00    -0.006 C 
ATOM     22  C   UNL     1      34.381 -22.625 -15.347  0.00  0.00    -0.006 C 
ATOM     23  C   UNL     1      31.602 -22.404 -15.437  0.00  0.00    -0.000 C 
ATOM     24  C   UNL     1      33.647 -22.583 -14.163  0.00  0.00    -0.000 C 
ATOM     25  C   UNL     1      32.258 -22.472 -14.208  0.00  0.00    -0.000 C 
BRANCH  23  26
ATOM     26  C   UNL     1      30.160 -22.291 -15.483  0.00  0.00    -0.000 C 
ATOM     27  C   UNL     1      29.474 -21.688 -14.430  0.00  0.00    -0.000 C 
ATOM     28  C   UNL     1      29.456 -22.785 -16.583  0.00  0.00    -0.000 C 
ATOM     29  C   UNL     1      28.084 -21.578 -14.474  0.00  0.00    -0.000 C 
ATOM     30  C   UNL     1      28.067 -22.676 -16.626  0.00  0.00    -0.000 C 
ATOM     31  C   UNL     1      27.381 -22.072 -15.573  0.00  0.00    +0.000 C 
ENDBRANCH  23  26
ENDBRANCH  19  20
ENDBRANCH   1  19
TORSDOF 4
ENDMDL
