MODEL 1
REMARK VINA RESULT:     -12.4      0.000      0.000
REMARK  Name = 24883488
REMARK  8 active torsions:
REMARK  status: ('A' for Active; 'I' for Inactive)
REMARK    1  A    between atoms: N_2  and  C_11
REMARK    2  A    between atoms: C_3  and  C_19
REMARK    3  A    between atoms: C_19  and  C_20
REMARK    4  A    between atoms: C_20  and  C_23
REMARK    5  A    between atoms: N_22  and  C_25
REMARK    6  A    between atoms: C_27  and  O_31
REMARK    7  A    between atoms: O_31  and  C_32
REMARK    8  A    between atoms: C_32  and  C_34
REMARK                            x       y       z     vdW  Elec       q    Type
REMARK                         _______ _______ _______ _____ _____    ______ ____
ROOT
ATOM      1  O   UNL     1      33.783 -23.445 -17.161  0.00  0.00    -0.275 OA
ATOM      2  N   UNL     1      35.224 -21.673 -16.590  0.00  0.00    -0.284 N 
ATOM      3  C   UNL     1      34.207 -22.304 -17.317  0.00  0.00    +0.227 C 
ATOM      4  H   UNL     1      35.450 -20.758 -16.874  0.00  0.00    +0.155 HD
ENDROOT
BRANCH   2  11
ATOM      5  O   UNL     1      34.132 -23.561 -11.970  0.00  0.00    -0.282 OA
ATOM      6  O   UNL     1      39.454 -23.774 -12.307  0.00  0.00    -0.270 OA
ATOM      7  O   UNL     1      35.552 -24.515  -9.943  0.00  0.00    -0.266 OA
ATOM      8  N   UNL     1      37.516 -24.144 -11.124  0.00  0.00    -0.246 N 
ATOM      9  C   UNL     1      36.042 -23.125 -13.295  0.00  0.00    +0.049 C 
ATOM     10  C   UNL     1      37.434 -23.188 -13.366  0.00  0.00    +0.057 C 
ATOM     11  C   UNL     1      35.959 -22.176 -15.516  0.00  0.00    +0.050 C 
ATOM     12  C   UNL     1      35.301 -22.619 -14.368  0.00  0.00    +0.018 C 
ATOM     13  C   UNL     1      38.088 -22.742 -14.520  0.00  0.00    +0.006 C 
ATOM     14  C   UNL     1      37.349 -22.238 -15.593  0.00  0.00    +0.015 C 
ATOM     15  C   UNL     1      35.347 -23.591 -12.088  0.00  0.00    +0.249 C 
ATOM     16  C   UNL     1      38.229 -23.719 -12.240  0.00  0.00    +0.252 C 
ATOM     17  C   UNL     1      36.146 -24.131 -10.940  0.00  0.00    +0.291 C 
ATOM     18  H   UNL     1      38.051 -24.497 -10.377  0.00  0.00    +0.158 HD
ENDBRANCH   2  11
BRANCH   3  19
ATOM     19  C   UNL     1      33.650 -21.419 -18.420  0.00  0.00    +0.095 C 
BRANCH  19  20
ATOM     20  C   UNL     1      34.766 -20.677 -19.151  0.00  0.00    +0.095 C 
BRANCH  20  23
ATOM     21  O   UNL     1      33.006 -19.414 -20.161  0.00  0.00    -0.275 OA
ATOM     22  N   UNL     1      35.203 -19.131 -20.946  0.00  0.00    -0.284 N 
ATOM     23  C   UNL     1      34.205 -19.676 -20.148  0.00  0.00    +0.227 C 
ATOM     24  H   UNL     1      36.119 -19.449 -20.774  0.00  0.00    +0.155 HD
BRANCH  22  25
ATOM     25  C   UNL     1      35.060 -18.174 -21.977  0.00  0.00    +0.053 C 
ATOM     26  C   UNL     1      35.415 -16.844 -21.748  0.00  0.00    +0.052 C 
ATOM     27  C   UNL     1      35.273 -15.900 -22.765  0.00  0.00    +0.140 C 
ATOM     28  C   UNL     1      34.563 -18.559 -23.222  0.00  0.00    +0.015 C 
ATOM     29  C   UNL     1      34.776 -16.286 -24.011  0.00  0.00    +0.037 C 
ATOM     30  C   UNL     1      34.422 -17.615 -24.239  0.00  0.00    +0.004 C 
BRANCH  27  31
ATOM     31  O   UNL     1      35.619 -14.602 -22.543  0.00  0.00    -0.472 OA
BRANCH  31  32
ATOM     32  C   UNL     1      34.572 -13.634 -22.592  0.00  0.00    +0.243 C 
BRANCH  32  34
ATOM     33  F   UNL     1      35.038 -13.811 -20.309  0.00  0.00    -0.230 F 
ATOM     34  C   UNL     1      34.095 -13.360 -21.183  0.00  0.00    +0.240 C 
ENDBRANCH  32  34
ENDBRANCH  31  32
ENDBRANCH  27  31
ENDBRANCH  22  25
ENDBRANCH  20  23
ENDBRANCH  19  20
ENDBRANCH   3  19
TORSDOF 8
ENDMDL
MODEL 2
REMARK VINA RESULT:     -12.0      1.269      1.967
REMARK  Name = 24883488
REMARK  8 active torsions:
REMARK  status: ('A' for Active; 'I' for Inactive)
REMARK    1  A    between atoms: N_2  and  C_11
REMARK    2  A    between atoms: C_3  and  C_19
REMARK    3  A    between atoms: C_19  and  C_20
REMARK    4  A    between atoms: C_20  and  C_23
REMARK    5  A    between atoms: N_22  and  C_25
REMARK    6  A    between atoms: C_27  and  O_31
REMARK    7  A    between atoms: O_31  and  C_32
REMARK    8  A    between atoms: C_32  and  C_34
REMARK                            x       y       z     vdW  Elec       q    Type
REMARK                         _______ _______ _______ _____ _____    ______ ____
ROOT
ATOM      1  O   UNL     1      34.143 -23.173 -17.535  0.00  0.00    -0.275 OA
ATOM      2  N   UNL     1      35.525 -21.447 -16.726  0.00  0.00    -0.284 N 
ATOM      3  C   UNL     1      34.563 -22.021 -17.567  0.00  0.00    +0.227 C 
ATOM      4  H   UNL     1      35.758 -20.510 -16.917  0.00  0.00    +0.155 HD
ENDROOT
BRANCH   2  11
ATOM      5  O   UNL     1      34.194 -23.375 -12.186  0.00  0.00    -0.282 OA
ATOM      6  O   UNL     1      39.490 -23.983 -12.426  0.00  0.00    -0.270 OA
ATOM      7  O   UNL     1      35.493 -24.491 -10.161  0.00  0.00    -0.266 OA
ATOM      8  N   UNL     1      37.505 -24.237 -11.292  0.00  0.00    -0.246 N 
ATOM      9  C   UNL     1      36.159 -23.049 -13.460  0.00  0.00    +0.049 C 
ATOM     10  C   UNL     1      37.544 -23.216 -13.506  0.00  0.00    +0.057 C 
ATOM     11  C   UNL     1      36.196 -22.034 -15.653  0.00  0.00    +0.050 C 
ATOM     12  C   UNL     1      35.482 -22.458 -14.532  0.00  0.00    +0.018 C 
ATOM     13  C   UNL     1      38.255 -22.788 -14.633  0.00  0.00    +0.006 C 
ATOM     14  C   UNL     1      37.579 -22.199 -15.705  0.00  0.00    +0.015 C 
ATOM     15  C   UNL     1      35.405 -23.494 -12.281  0.00  0.00    +0.249 C 
ATOM     16  C   UNL     1      38.272 -23.837 -12.380  0.00  0.00    +0.252 C 
ATOM     17  C   UNL     1      36.136 -24.125 -11.134  0.00  0.00    +0.291 C 
ATOM     18  H   UNL     1      37.995 -24.651 -10.545  0.00  0.00    +0.158 HD
ENDBRANCH   2  11
BRANCH   3  19
ATOM     19  C   UNL     1      34.067 -21.049 -18.625  0.00  0.00    +0.095 C 
BRANCH  19  20
ATOM     20  C   UNL     1      35.229 -20.327 -19.302  0.00  0.00    +0.095 C 
BRANCH  20  23
ATOM     21  O   UNL     1      33.758 -19.362 -20.920  0.00  0.00    -0.275 OA
ATOM     22  N   UNL     1      35.496 -18.048 -20.038  0.00  0.00    -0.284 N 
ATOM     23  C   UNL     1      34.736 -19.201 -20.196  0.00  0.00    +0.227 C 
ATOM     24  H   UNL     1      36.235 -18.102 -19.388  0.00  0.00    +0.155 HD
BRANCH  22  25
ATOM     25  C   UNL     1      35.335 -16.809 -20.697  0.00  0.00    +0.053 C 
ATOM     26  C   UNL     1      35.488 -16.730 -22.081  0.00  0.00    +0.052 C 
ATOM     27  C   UNL     1      35.330 -15.506 -22.732  0.00  0.00    +0.140 C 
ATOM     28  C   UNL     1      35.023 -15.664 -19.964  0.00  0.00    +0.015 C 
ATOM     29  C   UNL     1      35.017 -14.361 -21.998  0.00  0.00    +0.037 C 
ATOM     30  C   UNL     1      34.864 -14.440 -20.614  0.00  0.00    +0.004 C 
BRANCH  27  31
ATOM     31  O   UNL     1      35.479 -15.428 -24.083  0.00  0.00    -0.472 OA
BRANCH  31  32
ATOM     32  C   UNL     1      34.485 -16.065 -24.883  0.00  0.00    +0.243 C 
BRANCH  32  34
ATOM     33  F   UNL     1      33.969 -13.822 -25.281  0.00  0.00    -0.230 F 
ATOM     34  C   UNL     1      33.404 -15.060 -25.211  0.00  0.00    +0.240 C 
ENDBRANCH  32  34
ENDBRANCH  31  32
ENDBRANCH  27  31
ENDBRANCH  22  25
ENDBRANCH  20  23
ENDBRANCH  19  20
ENDBRANCH   3  19
TORSDOF 8
ENDMDL
MODEL 3
REMARK VINA RESULT:     -11.9      4.455      7.494
REMARK  Name = 24883488
REMARK  8 active torsions:
REMARK  status: ('A' for Active; 'I' for Inactive)
REMARK    1  A    between atoms: N_2  and  C_11
REMARK    2  A    between atoms: C_3  and  C_19
REMARK    3  A    between atoms: C_19  and  C_20
REMARK    4  A    between atoms: C_20  and  C_23
REMARK    5  A    between atoms: N_22  and  C_25
REMARK    6  A    between atoms: C_27  and  O_31
REMARK    7  A    between atoms: O_31  and  C_32
REMARK    8  A    between atoms: C_32  and  C_34
REMARK                            x       y       z     vdW  Elec       q    Type
REMARK                         _______ _______ _______ _____ _____    ______ ____
ROOT
ATOM      1  O   UNL     1      34.350 -17.665 -24.047  0.00  0.00    -0.275 OA
ATOM      2  N   UNL     1      35.706 -16.737 -22.361  0.00  0.00    -0.284 N 
ATOM      3  C   UNL     1      35.002 -16.741 -23.571  0.00  0.00    +0.227 C 
ATOM      4  H   UNL     1      36.197 -15.909 -22.152  0.00  0.00    +0.155 HD
ENDROOT
BRANCH   2  11
ATOM      5  O   UNL     1      32.431 -19.881 -20.019  0.00  0.00    -0.282 OA
ATOM      6  O   UNL     1      37.218 -21.194 -18.060  0.00  0.00    -0.270 OA
ATOM      7  O   UNL     1      32.641 -21.818 -18.219  0.00  0.00    -0.266 OA
ATOM      8  N   UNL     1      34.941 -21.509 -18.133  0.00  0.00    -0.246 N 
ATOM      9  C   UNL     1      34.755 -19.448 -20.041  0.00  0.00    +0.049 C 
ATOM     10  C   UNL     1      35.999 -19.804 -19.519  0.00  0.00    +0.057 C 
ATOM     11  C   UNL     1      35.803 -17.757 -21.414  0.00  0.00    +0.050 C 
ATOM     12  C   UNL     1      34.654 -18.424 -20.989  0.00  0.00    +0.018 C 
ATOM     13  C   UNL     1      37.148 -19.131 -19.949  0.00  0.00    +0.006 C 
ATOM     14  C   UNL     1      37.048 -18.110 -20.896  0.00  0.00    +0.015 C 
ATOM     15  C   UNL     1      33.544 -20.149 -19.595  0.00  0.00    +0.249 C 
ATOM     16  C   UNL     1      36.121 -20.883 -18.516  0.00  0.00    +0.252 C 
ATOM     17  C   UNL     1      33.659 -21.244 -18.578  0.00  0.00    +0.291 C 
ATOM     18  H   UNL     1      35.028 -22.226 -17.465  0.00  0.00    +0.158 HD
ENDBRANCH   2  11
BRANCH   3  19
ATOM     19  C   UNL     1      35.146 -15.430 -24.328  0.00  0.00    +0.095 C 
BRANCH  19  20
ATOM     20  C   UNL     1      33.911 -14.550 -24.153  0.00  0.00    +0.095 C 
BRANCH  20  23
ATOM     21  O   UNL     1      35.042 -13.664 -22.242  0.00  0.00    -0.275 OA
ATOM     22  N   UNL     1      32.790 -13.092 -22.597  0.00  0.00    -0.284 N 
ATOM     23  C   UNL     1      33.993 -13.729 -22.877  0.00  0.00    +0.227 C 
ATOM     24  H   UNL     1      32.058 -13.246 -23.238  0.00  0.00    +0.155 HD
BRANCH  22  25
ATOM     25  C   UNL     1      32.492 -12.250 -21.502  0.00  0.00    +0.053 C 
ATOM     26  C   UNL     1      32.388 -10.871 -21.690  0.00  0.00    +0.052 C 
ATOM     27  C   UNL     1      32.094 -10.040 -20.609  0.00  0.00    +0.140 C 
ATOM     28  C   UNL     1      32.301 -12.796 -20.233  0.00  0.00    +0.015 C 
ATOM     29  C   UNL     1      31.903 -10.587 -19.340  0.00  0.00    +0.037 C 
ATOM     30  C   UNL     1      32.007 -11.966 -19.152  0.00  0.00    +0.004 C 
BRANCH  27  31
ATOM     31  O   UNL     1      31.993  -8.695 -20.792  0.00  0.00    -0.472 OA
BRANCH  31  32
ATOM     32  C   UNL     1      32.502  -8.166 -22.015  0.00  0.00    +0.243 C 
BRANCH  32  34
ATOM     33  F   UNL     1      33.739  -7.089 -20.352  0.00  0.00    -0.230 F 
ATOM     34  C   UNL     1      33.653  -7.237 -21.704  0.00  0.00    +0.240 C 
ENDBRANCH  32  34
ENDBRANCH  31  32
ENDBRANCH  27  31
ENDBRANCH  22  25
ENDBRANCH  20  23
ENDBRANCH  19  20
ENDBRANCH   3  19
TORSDOF 8
ENDMDL
MODEL 4
REMARK VINA RESULT:     -11.8      3.197     11.292
REMARK  Name = 24883488
REMARK  8 active torsions:
REMARK  status: ('A' for Active; 'I' for Inactive)
REMARK    1  A    between atoms: N_2  and  C_11
REMARK    2  A    between atoms: C_3  and  C_19
REMARK    3  A    between atoms: C_19  and  C_20
REMARK    4  A    between atoms: C_20  and  C_23
REMARK    5  A    between atoms: N_22  and  C_25
REMARK    6  A    between atoms: C_27  and  O_31
REMARK    7  A    between atoms: O_31  and  C_32
REMARK    8  A    between atoms: C_32  and  C_34
REMARK                            x       y       z     vdW  Elec       q    Type
REMARK                         _______ _______ _______ _____ _____    ______ ____
ROOT
ATOM      1  O   UNL     1      33.267 -20.436 -19.644  0.00  0.00    -0.275 OA
ATOM      2  N   UNL     1      35.426 -19.536 -19.908  0.00  0.00    -0.284 N 
ATOM      3  C   UNL     1      34.458 -20.384 -19.355  0.00  0.00    +0.227 C 
ATOM      4  H   UNL     1      36.332 -19.617 -19.532  0.00  0.00    +0.155 HD
ENDROOT
BRANCH   2  11
ATOM      5  O   UNL     1      35.026 -14.449 -20.146  0.00  0.00    -0.282 OA
ATOM      6  O   UNL     1      34.731 -16.079 -25.219  0.00  0.00    -0.270 OA
ATOM      7  O   UNL     1      34.731 -12.673 -22.095  0.00  0.00    -0.266 OA
ATOM      8  N   UNL     1      34.728 -14.379 -23.670  0.00  0.00    -0.246 N 
ATOM      9  C   UNL     1      35.040 -16.291 -21.628  0.00  0.00    +0.049 C 
ATOM     10  C   UNL     1      34.962 -16.700 -22.960  0.00  0.00    +0.057 C 
ATOM     11  C   UNL     1      35.270 -18.592 -20.923  0.00  0.00    +0.050 C 
ATOM     12  C   UNL     1      35.194 -17.235 -20.607  0.00  0.00    +0.018 C 
ATOM     13  C   UNL     1      35.038 -18.062 -23.271  0.00  0.00    +0.006 C 
ATOM     14  C   UNL     1      35.193 -19.005 -22.252  0.00  0.00    +0.015 C 
ATOM     15  C   UNL     1      34.961 -14.864 -21.293  0.00  0.00    +0.249 C 
ATOM     16  C   UNL     1      34.798 -15.714 -24.049  0.00  0.00    +0.252 C 
ATOM     17  C   UNL     1      34.795 -13.857 -22.391  0.00  0.00    +0.291 C 
ATOM     18  H   UNL     1      34.620 -13.726 -24.399  0.00  0.00    +0.158 HD
ENDBRANCH   2  11
BRANCH   3  19
ATOM     19  C   UNL     1      35.026 -21.274 -18.262  0.00  0.00    +0.095 C 
BRANCH  19  20
ATOM     20  C   UNL     1      36.474 -20.909 -17.947  0.00  0.00    +0.095 C 
BRANCH  20  23
ATOM     21  O   UNL     1      37.791 -20.789 -15.956  0.00  0.00    -0.275 OA
ATOM     22  N   UNL     1      36.021 -22.331 -16.057  0.00  0.00    -0.284 N 
ATOM     23  C   UNL     1      36.858 -21.333 -16.539  0.00  0.00    +0.227 C 
ATOM     24  H   UNL     1      35.306 -22.630 -16.665  0.00  0.00    +0.155 HD
BRANCH  22  25
ATOM     25  C   UNL     1      36.072 -22.968 -14.796  0.00  0.00    +0.053 C 
ATOM     26  C   UNL     1      37.180 -23.742 -14.450  0.00  0.00    +0.052 C 
ATOM     27  C   UNL     1      37.230 -24.372 -13.206  0.00  0.00    +0.140 C 
ATOM     28  C   UNL     1      35.014 -22.824 -13.899  0.00  0.00    +0.015 C 
ATOM     29  C   UNL     1      36.171 -24.227 -12.308  0.00  0.00    +0.037 C 
ATOM     30  C   UNL     1      35.063 -23.453 -12.654  0.00  0.00    +0.004 C 
BRANCH  27  31
ATOM     31  O   UNL     1      38.310 -25.126 -12.867  0.00  0.00    -0.472 OA
BRANCH  31  32
ATOM     32  C   UNL     1      39.026 -25.750 -13.932  0.00  0.00    +0.243 C 
BRANCH  32  34
ATOM     33  F   UNL     1      40.609 -24.274 -13.054  0.00  0.00    -0.230 F 
ATOM     34  C   UNL     1      40.492 -25.407 -13.801  0.00  0.00    +0.240 C 
ENDBRANCH  32  34
ENDBRANCH  31  32
ENDBRANCH  27  31
ENDBRANCH  22  25
ENDBRANCH  20  23
ENDBRANCH  19  20
ENDBRANCH   3  19
TORSDOF 8
ENDMDL
MODEL 5
REMARK VINA RESULT:     -11.6      3.108     11.527
REMARK  Name = 24883488
REMARK  8 active torsions:
REMARK  status: ('A' for Active; 'I' for Inactive)
REMARK    1  A    between atoms: N_2  and  C_11
REMARK    2  A    between atoms: C_3  and  C_19
REMARK    3  A    between atoms: C_19  and  C_20
REMARK    4  A    between atoms: C_20  and  C_23
REMARK    5  A    between atoms: N_22  and  C_25
REMARK    6  A    between atoms: C_27  and  O_31
REMARK    7  A    between atoms: O_31  and  C_32
REMARK    8  A    between atoms: C_32  and  C_34
REMARK                            x       y       z     vdW  Elec       q    Type
REMARK                         _______ _______ _______ _____ _____    ______ ____
ROOT
ATOM      1  O   UNL     1      37.532 -19.286 -19.296  0.00  0.00    -0.275 OA
ATOM      2  N   UNL     1      35.337 -19.602 -20.087  0.00  0.00    -0.284 N 
ATOM      3  C   UNL     1      36.448 -19.861 -19.275  0.00  0.00    +0.227 C 
ATOM      4  H   UNL     1      34.556 -20.184 -19.945  0.00  0.00    +0.155 HD
ENDROOT
BRANCH   2  11
ATOM      5  O   UNL     1      35.027 -14.503 -20.173  0.00  0.00    -0.282 OA
ATOM      6  O   UNL     1      34.696 -15.975 -25.292  0.00  0.00    -0.270 OA
ATOM      7  O   UNL     1      34.761 -12.665 -22.067  0.00  0.00    -0.266 OA
ATOM      8  N   UNL     1      34.726 -14.323 -23.692  0.00  0.00    -0.246 N 
ATOM      9  C   UNL     1      35.007 -16.301 -21.709  0.00  0.00    +0.049 C 
ATOM     10  C   UNL     1      34.919 -16.668 -23.052  0.00  0.00    +0.057 C 
ATOM     11  C   UNL     1      35.196 -18.625 -21.073  0.00  0.00    +0.050 C 
ATOM     12  C   UNL     1      35.145 -17.277 -20.717  0.00  0.00    +0.018 C 
ATOM     13  C   UNL     1      34.971 -18.022 -23.404  0.00  0.00    +0.006 C 
ATOM     14  C   UNL     1      35.110 -18.997 -22.414  0.00  0.00    +0.015 C 
ATOM     15  C   UNL     1      34.953 -14.882 -21.331  0.00  0.00    +0.249 C 
ATOM     16  C   UNL     1      34.772 -15.648 -24.111  0.00  0.00    +0.252 C 
ATOM     17  C   UNL     1      34.803 -13.840 -22.398  0.00  0.00    +0.291 C 
ATOM     18  H   UNL     1      34.628 -13.647 -24.401  0.00  0.00    +0.158 HD
ENDBRANCH   2  11
BRANCH   3  19
ATOM     19  C   UNL     1      36.206 -21.017 -18.318  0.00  0.00    +0.095 C 
BRANCH  19  20
ATOM     20  C   UNL     1      36.973 -20.825 -17.012  0.00  0.00    +0.095 C 
BRANCH  20  23
ATOM     21  O   UNL     1      35.736 -22.612 -16.018  0.00  0.00    -0.275 OA
ATOM     22  N   UNL     1      37.997 -22.335 -15.439  0.00  0.00    -0.284 N 
ATOM     23  C   UNL     1      36.811 -22.025 -16.094  0.00  0.00    +0.227 C 
ATOM     24  H   UNL     1      38.769 -21.759 -15.644  0.00  0.00    +0.155 HD
BRANCH  22  25
ATOM     25  C   UNL     1      38.226 -23.379 -14.514  0.00  0.00    +0.053 C 
ATOM     26  C   UNL     1      37.266 -23.679 -13.548  0.00  0.00    +0.052 C 
ATOM     27  C   UNL     1      37.493 -24.709 -12.634  0.00  0.00    +0.140 C 
ATOM     28  C   UNL     1      39.413 -24.109 -14.567  0.00  0.00    +0.015 C 
ATOM     29  C   UNL     1      38.681 -25.439 -12.688  0.00  0.00    +0.037 C 
ATOM     30  C   UNL     1      39.641 -25.139 -13.655  0.00  0.00    +0.004 C 
BRANCH  27  31
ATOM     31  O   UNL     1      36.556 -25.002 -11.692  0.00  0.00    -0.472 OA
BRANCH  31  32
ATOM     32  C   UNL     1      35.737 -23.928 -11.235  0.00  0.00    +0.243 C 
BRANCH  32  34
ATOM     33  F   UNL     1      37.069 -22.137 -10.545  0.00  0.00    -0.230 F 
ATOM     34  C   UNL     1      36.429 -23.244 -10.077  0.00  0.00    +0.240 C 
ENDBRANCH  32  34
ENDBRANCH  31  32
ENDBRANCH  27  31
ENDBRANCH  22  25
ENDBRANCH  20  23
ENDBRANCH  19  20
ENDBRANCH   3  19
TORSDOF 8
ENDMDL
MODEL 6
REMARK VINA RESULT:     -11.5      3.403     11.736
REMARK  Name = 24883488
REMARK  8 active torsions:
REMARK  status: ('A' for Active; 'I' for Inactive)
REMARK    1  A    between atoms: N_2  and  C_11
REMARK    2  A    between atoms: C_3  and  C_19
REMARK    3  A    between atoms: C_19  and  C_20
REMARK    4  A    between atoms: C_20  and  C_23
REMARK    5  A    between atoms: N_22  and  C_25
REMARK    6  A    between atoms: C_27  and  O_31
REMARK    7  A    between atoms: O_31  and  C_32
REMARK    8  A    between atoms: C_32  and  C_34
REMARK                            x       y       z     vdW  Elec       q    Type
REMARK                         _______ _______ _______ _____ _____    ______ ____
ROOT
ATOM      1  O   UNL     1      34.315 -19.168 -20.329  0.00  0.00    -0.275 OA
ATOM      2  N   UNL     1      36.061 -17.590 -20.273  0.00  0.00    -0.284 N 
ATOM      3  C   UNL     1      35.485 -18.858 -20.128  0.00  0.00    +0.227 C 
ATOM      4  H   UNL     1      37.015 -17.522 -20.040  0.00  0.00    +0.155 HD
ENDROOT
BRANCH   2  11
ATOM      5  O   UNL     1      34.863 -15.532 -24.793  0.00  0.00    -0.282 OA
ATOM      6  O   UNL     1      33.206 -11.963 -21.188  0.00  0.00    -0.270 OA
ATOM      7  O   UNL     1      33.707 -13.281 -25.590  0.00  0.00    -0.266 OA
ATOM      8  N   UNL     1      33.454 -12.612 -23.381  0.00  0.00    -0.246 N 
ATOM      9  C   UNL     1      34.677 -14.989 -22.499  0.00  0.00    +0.049 C 
ATOM     10  C   UNL     1      34.237 -14.045 -21.571  0.00  0.00    +0.057 C 
ATOM     11  C   UNL     1      35.456 -16.410 -20.706  0.00  0.00    +0.050 C 
ATOM     12  C   UNL     1      35.287 -16.172 -22.070  0.00  0.00    +0.018 C 
ATOM     13  C   UNL     1      34.410 -14.289 -20.203  0.00  0.00    +0.006 C 
ATOM     14  C   UNL     1      35.018 -15.471 -19.774  0.00  0.00    +0.015 C 
ATOM     15  C   UNL     1      34.500 -14.742 -23.936  0.00  0.00    +0.249 C 
ATOM     16  C   UNL     1      33.592 -12.790 -22.009  0.00  0.00    +0.252 C 
ATOM     17  C   UNL     1      33.847 -13.471 -24.391  0.00  0.00    +0.291 C 
ATOM     18  H   UNL     1      33.023 -11.775 -23.668  0.00  0.00    +0.158 HD
ENDBRANCH   2  11
BRANCH   3  19
ATOM     19  C   UNL     1      36.481 -19.891 -19.627  0.00  0.00    +0.095 C 
BRANCH  19  20
ATOM     20  C   UNL     1      35.777 -21.032 -18.898  0.00  0.00    +0.095 C 
BRANCH  20  23
ATOM     21  O   UNL     1      37.157 -20.430 -17.041  0.00  0.00    -0.275 OA
ATOM     22  N   UNL     1      35.506 -22.076 -16.744  0.00  0.00    -0.284 N 
ATOM     23  C   UNL     1      36.246 -21.140 -17.456  0.00  0.00    +0.227 C 
ATOM     24  H   UNL     1      34.794 -22.537 -17.243  0.00  0.00    +0.155 HD
BRANCH  22  25
ATOM     25  C   UNL     1      35.654 -22.444 -15.387  0.00  0.00    +0.053 C 
ATOM     26  C   UNL     1      36.924 -22.491 -14.811  0.00  0.00    +0.052 C 
ATOM     27  C   UNL     1      37.070 -22.855 -13.472  0.00  0.00    +0.140 C 
ATOM     28  C   UNL     1      34.531 -22.761 -14.624  0.00  0.00    +0.015 C 
ATOM     29  C   UNL     1      35.945 -23.172 -12.709  0.00  0.00    +0.037 C 
ATOM     30  C   UNL     1      34.676 -23.125 -13.285  0.00  0.00    +0.004 C 
BRANCH  27  31
ATOM     31  O   UNL     1      38.308 -22.902 -12.910  0.00  0.00    -0.472 OA
BRANCH  31  32
ATOM     32  C   UNL     1      38.666 -24.101 -12.225  0.00  0.00    +0.243 C 
BRANCH  32  34
ATOM     33  F   UNL     1      40.773 -24.503 -13.149  0.00  0.00    -0.230 F 
ATOM     34  C   UNL     1      39.491 -24.965 -13.152  0.00  0.00    +0.240 C 
ENDBRANCH  32  34
ENDBRANCH  31  32
ENDBRANCH  27  31
ENDBRANCH  22  25
ENDBRANCH  20  23
ENDBRANCH  19  20
ENDBRANCH   3  19
TORSDOF 8
ENDMDL
MODEL 7
REMARK VINA RESULT:     -11.5      3.529      6.091
REMARK  Name = 24883488
REMARK  8 active torsions:
REMARK  status: ('A' for Active; 'I' for Inactive)
REMARK    1  A    between atoms: N_2  and  C_11
REMARK    2  A    between atoms: C_3  and  C_19
REMARK    3  A    between atoms: C_19  and  C_20
REMARK    4  A    between atoms: C_20  and  C_23
REMARK    5  A    between atoms: N_22  and  C_25
REMARK    6  A    between atoms: C_27  and  O_31
REMARK    7  A    between atoms: O_31  and  C_32
REMARK    8  A    between atoms: C_32  and  C_34
REMARK                            x       y       z     vdW  Elec       q    Type
REMARK                         _______ _______ _______ _____ _____    ______ ____
ROOT
ATOM      1  O   UNL     1      35.891 -24.203 -15.338  0.00  0.00    -0.275 OA
ATOM      2  N   UNL     1      34.731 -22.630 -14.026  0.00  0.00    -0.284 N 
ATOM      3  C   UNL     1      35.857 -23.202 -14.630  0.00  0.00    +0.227 C 
ATOM      4  H   UNL     1      34.899 -21.836 -13.468  0.00  0.00    +0.155 HD
ENDROOT
BRANCH   2  11
ATOM      5  O   UNL     1      30.690 -21.382 -16.892  0.00  0.00    -0.282 OA
ATOM      6  O   UNL     1      28.912 -25.204 -13.618  0.00  0.00    -0.270 OA
ATOM      7  O   UNL     1      28.166 -22.185 -17.038  0.00  0.00    -0.266 OA
ATOM      8  N   UNL     1      28.533 -23.702 -15.320  0.00  0.00    -0.246 N 
ATOM      9  C   UNL     1      31.217 -22.875 -15.135  0.00  0.00    +0.049 C 
ATOM     10  C   UNL     1      30.736 -23.873 -14.288  0.00  0.00    +0.057 C 
ATOM     11  C   UNL     1      33.401 -23.042 -14.113  0.00  0.00    +0.050 C 
ATOM     12  C   UNL     1      32.550 -22.457 -15.050  0.00  0.00    +0.018 C 
ATOM     13  C   UNL     1      31.595 -24.456 -13.349  0.00  0.00    +0.006 C 
ATOM     14  C   UNL     1      32.925 -24.040 -13.264  0.00  0.00    +0.015 C 
ATOM     15  C   UNL     1      30.323 -22.258 -16.124  0.00  0.00    +0.249 C 
ATOM     16  C   UNL     1      29.331 -24.324 -14.366  0.00  0.00    +0.252 C 
ATOM     17  C   UNL     1      28.896 -22.708 -16.210  0.00  0.00    +0.291 C 
ATOM     18  H   UNL     1      27.598 -24.007 -15.367  0.00  0.00    +0.158 HD
ENDBRANCH   2  11
BRANCH   3  19
ATOM     19  C   UNL     1      37.137 -22.456 -14.289  0.00  0.00    +0.095 C 
BRANCH  19  20
ATOM     20  C   UNL     1      37.967 -22.179 -15.539  0.00  0.00    +0.095 C 
BRANCH  20  23
ATOM     21  O   UNL     1      37.617 -19.946 -16.319  0.00  0.00    -0.275 OA
ATOM     22  N   UNL     1      36.401 -21.699 -17.306  0.00  0.00    -0.284 N 
ATOM     23  C   UNL     1      37.308 -21.130 -16.420  0.00  0.00    +0.227 C 
ATOM     24  H   UNL     1      36.301 -22.677 -17.255  0.00  0.00    +0.155 HD
BRANCH  22  25
ATOM     25  C   UNL     1      35.606 -21.040 -18.270  0.00  0.00    +0.053 C 
ATOM     26  C   UNL     1      36.205 -20.223 -19.230  0.00  0.00    +0.052 C 
ATOM     27  C   UNL     1      35.419 -19.573 -20.181  0.00  0.00    +0.140 C 
ATOM     28  C   UNL     1      34.221 -21.206 -18.263  0.00  0.00    +0.015 C 
ATOM     29  C   UNL     1      34.034 -19.740 -20.174  0.00  0.00    +0.037 C 
ATOM     30  C   UNL     1      33.435 -20.556 -19.215  0.00  0.00    +0.004 C 
BRANCH  27  31
ATOM     31  O   UNL     1      36.003 -18.776 -21.117  0.00  0.00    -0.472 OA
BRANCH  31  32
ATOM     32  C   UNL     1      35.343 -17.550 -21.429  0.00  0.00    +0.243 C 
BRANCH  32  34
ATOM     33  F   UNL     1      34.508 -18.582 -23.351  0.00  0.00    -0.230 F 
ATOM     34  C   UNL     1      35.159 -17.463 -22.927  0.00  0.00    +0.240 C 
ENDBRANCH  32  34
ENDBRANCH  31  32
ENDBRANCH  27  31
ENDBRANCH  22  25
ENDBRANCH  20  23
ENDBRANCH  19  20
ENDBRANCH   3  19
TORSDOF 8
ENDMDL
MODEL 8
REMARK VINA RESULT:     -11.4      2.873      4.028
REMARK  Name = 24883488
REMARK  8 active torsions:
REMARK  status: ('A' for Active; 'I' for Inactive)
REMARK    1  A    between atoms: N_2  and  C_11
REMARK    2  A    between atoms: C_3  and  C_19
REMARK    3  A    between atoms: C_19  and  C_20
REMARK    4  A    between atoms: C_20  and  C_23
REMARK    5  A    between atoms: N_22  and  C_25
REMARK    6  A    between atoms: C_27  and  O_31
REMARK    7  A    between atoms: O_31  and  C_32
REMARK    8  A    between atoms: C_32  and  C_34
REMARK                            x       y       z     vdW  Elec       q    Type
REMARK                         _______ _______ _______ _____ _____    ______ ____
ROOT
ATOM      1  O   UNL     1      36.783 -20.586 -17.358  0.00  0.00    -0.275 OA
ATOM      2  N   UNL     1      34.859 -21.651 -18.197  0.00  0.00    -0.284 N 
ATOM      3  C   UNL     1      36.071 -20.957 -18.286  0.00  0.00    +0.227 C 
ATOM      4  H   UNL     1      34.411 -21.844 -19.052  0.00  0.00    +0.155 HD
ENDROOT
BRANCH   2  11
ATOM      5  O   UNL     1      29.998 -22.066 -16.680  0.00  0.00    -0.282 OA
ATOM      6  O   UNL     1      32.868 -23.934 -12.587  0.00  0.00    -0.270 OA
ATOM      7  O   UNL     1      28.777 -22.934 -14.491  0.00  0.00    -0.266 OA
ATOM      8  N   UNL     1      30.828 -23.437 -13.528  0.00  0.00    -0.246 N 
ATOM      9  C   UNL     1      32.158 -22.524 -15.834  0.00  0.00    +0.049 C 
ATOM     10  C   UNL     1      32.893 -23.016 -14.755  0.00  0.00    +0.057 C 
ATOM     11  C   UNL     1      34.204 -22.104 -17.051  0.00  0.00    +0.050 C 
ATOM     12  C   UNL     1      32.811 -22.066 -16.984  0.00  0.00    +0.018 C 
ATOM     13  C   UNL     1      34.290 -23.050 -14.828  0.00  0.00    +0.006 C 
ATOM     14  C   UNL     1      34.942 -22.595 -15.976  0.00  0.00    +0.015 C 
ATOM     15  C   UNL     1      30.692 -22.484 -15.766  0.00  0.00    +0.249 C 
ATOM     16  C   UNL     1      32.217 -23.501 -13.534  0.00  0.00    +0.252 C 
ATOM     17  C   UNL     1      29.998 -22.973 -14.531  0.00  0.00    +0.291 C 
ATOM     18  H   UNL     1      30.383 -23.762 -12.712  0.00  0.00    +0.158 HD
ENDBRANCH   2  11
BRANCH   3  19
ATOM     19  C   UNL     1      36.451 -20.639 -19.723  0.00  0.00    +0.095 C 
BRANCH  19  20
ATOM     20  C   UNL     1      36.803 -19.164 -19.890  0.00  0.00    +0.095 C 
BRANCH  20  23
ATOM     21  O   UNL     1      34.548 -18.749 -20.564  0.00  0.00    -0.275 OA
ATOM     22  N   UNL     1      36.258 -17.380 -21.415  0.00  0.00    -0.284 N 
ATOM     23  C   UNL     1      35.727 -18.422 -20.665  0.00  0.00    +0.227 C 
ATOM     24  H   UNL     1      37.233 -17.254 -21.353  0.00  0.00    +0.155 HD
BRANCH  22  25
ATOM     25  C   UNL     1      35.566 -16.478 -22.255  0.00  0.00    +0.053 C 
ATOM     26  C   UNL     1      35.281 -15.188 -21.809  0.00  0.00    +0.052 C 
ATOM     27  C   UNL     1      34.597 -14.298 -22.638  0.00  0.00    +0.140 C 
ATOM     28  C   UNL     1      35.168 -16.879 -23.530  0.00  0.00    +0.015 C 
ATOM     29  C   UNL     1      34.200 -14.699 -23.914  0.00  0.00    +0.037 C 
ATOM     30  C   UNL     1      34.485 -15.990 -24.360  0.00  0.00    +0.004 C 
BRANCH  27  31
ATOM     31  O   UNL     1      34.318 -13.039 -22.203  0.00  0.00    -0.472 OA
BRANCH  31  32
ATOM     32  C   UNL     1      32.955 -12.621 -22.258  0.00  0.00    +0.243 C 
BRANCH  32  34
ATOM     33  F   UNL     1      33.355 -13.037 -19.994  0.00  0.00    -0.230 F 
ATOM     34  C   UNL     1      32.368 -12.690 -20.866  0.00  0.00    +0.240 C 
ENDBRANCH  32  34
ENDBRANCH  31  32
ENDBRANCH  27  31
ENDBRANCH  22  25
ENDBRANCH  20  23
ENDBRANCH  19  20
ENDBRANCH   3  19
TORSDOF 8
ENDMDL
MODEL 9
REMARK VINA RESULT:     -11.3      3.439     11.073
REMARK  Name = 24883488
REMARK  8 active torsions:
REMARK  status: ('A' for Active; 'I' for Inactive)
REMARK    1  A    between atoms: N_2  and  C_11
REMARK    2  A    between atoms: C_3  and  C_19
REMARK    3  A    between atoms: C_19  and  C_20
REMARK    4  A    between atoms: C_20  and  C_23
REMARK    5  A    between atoms: N_22  and  C_25
REMARK    6  A    between atoms: C_27  and  O_31
REMARK    7  A    between atoms: O_31  and  C_32
REMARK    8  A    between atoms: C_32  and  C_34
REMARK                            x       y       z     vdW  Elec       q    Type
REMARK                         _______ _______ _______ _____ _____    ______ ____
ROOT
ATOM      1  O   UNL     1      37.271 -19.232 -19.329  0.00  0.00    -0.275 OA
ATOM      2  N   UNL     1      35.187 -19.613 -20.356  0.00  0.00    -0.284 N 
ATOM      3  C   UNL     1      36.224 -19.861 -19.449  0.00  0.00    +0.227 C 
ATOM      4  H   UNL     1      34.429 -20.241 -20.325  0.00  0.00    +0.155 HD
ENDROOT
BRANCH   2  11
ATOM      5  O   UNL     1      34.967 -14.511 -20.209  0.00  0.00    -0.282 OA
ATOM      6  O   UNL     1      34.746 -15.736 -25.398  0.00  0.00    -0.270 OA
ATOM      7  O   UNL     1      34.783 -12.582 -22.020  0.00  0.00    -0.266 OA
ATOM      8  N   UNL     1      34.762 -14.161 -23.722  0.00  0.00    -0.246 N 
ATOM      9  C   UNL     1      34.956 -16.234 -21.828  0.00  0.00    +0.049 C 
ATOM     10  C   UNL     1      34.898 -16.536 -23.189  0.00  0.00    +0.057 C 
ATOM     11  C   UNL     1      35.089 -18.588 -21.298  0.00  0.00    +0.050 C 
ATOM     12  C   UNL     1      35.051 -17.258 -20.880  0.00  0.00    +0.018 C 
ATOM     13  C   UNL     1      34.935 -17.873 -23.602  0.00  0.00    +0.006 C 
ATOM     14  C   UNL     1      35.032 -18.896 -22.656  0.00  0.00    +0.015 C 
ATOM     15  C   UNL     1      34.917 -14.834 -21.385  0.00  0.00    +0.249 C 
ATOM     16  C   UNL     1      34.796 -15.466 -24.202  0.00  0.00    +0.252 C 
ATOM     17  C   UNL     1      34.813 -13.741 -22.406  0.00  0.00    +0.291 C 
ATOM     18  H   UNL     1      34.694 -13.452 -24.401  0.00  0.00    +0.158 HD
ENDBRANCH   2  11
BRANCH   3  19
ATOM     19  C   UNL     1      35.955 -21.082 -18.584  0.00  0.00    +0.095 C 
BRANCH  19  20
ATOM     20  C   UNL     1      34.673 -21.792 -19.011  0.00  0.00    +0.095 C 
BRANCH  20  23
ATOM     21  O   UNL     1      32.579 -21.154 -18.050  0.00  0.00    -0.275 OA
ATOM     22  N   UNL     1      34.030 -22.522 -16.807  0.00  0.00    -0.284 N 
ATOM     23  C   UNL     1      33.632 -21.767 -17.904  0.00  0.00    +0.227 C 
ATOM     24  H   UNL     1      34.907 -22.965 -16.880  0.00  0.00    +0.155 HD
BRANCH  22  25
ATOM     25  C   UNL     1      33.326 -22.731 -15.599  0.00  0.00    +0.053 C 
ATOM     26  C   UNL     1      34.012 -23.128 -14.451  0.00  0.00    +0.052 C 
ATOM     27  C   UNL     1      33.317 -23.335 -13.259  0.00  0.00    +0.140 C 
ATOM     28  C   UNL     1      31.946 -22.539 -15.555  0.00  0.00    +0.015 C 
ATOM     29  C   UNL     1      31.936 -23.143 -13.216  0.00  0.00    +0.037 C 
ATOM     30  C   UNL     1      31.250 -22.745 -14.364  0.00  0.00    +0.004 C 
BRANCH  27  31
ATOM     31  O   UNL     1      33.986 -23.723 -12.139  0.00  0.00    -0.472 OA
BRANCH  31  32
ATOM     32  C   UNL     1      35.368 -23.379 -12.057  0.00  0.00    +0.243 C 
BRANCH  32  34
ATOM     33  F   UNL     1      36.394 -23.220  -9.965  0.00  0.00    -0.230 F 
ATOM     34  C   UNL     1      35.988 -24.126 -10.897  0.00  0.00    +0.240 C 
ENDBRANCH  32  34
ENDBRANCH  31  32
ENDBRANCH  27  31
ENDBRANCH  22  25
ENDBRANCH  20  23
ENDBRANCH  19  20
ENDBRANCH   3  19
TORSDOF 8
ENDMDL
