MODEL 1
REMARK VINA RESULT:     -12.6      0.000      0.000
REMARK  Name = 52920501
REMARK  9 active torsions:
REMARK  status: ('A' for Active; 'I' for Inactive)
REMARK    1  A    between atoms: N_1  and  C_12
REMARK    2  A    between atoms: C_5  and  O_27
REMARK    3  A    between atoms: C_9  and  C_15
REMARK    4  A    between atoms: C_15  and  S_16
REMARK    5  A    between atoms: S_16  and  N_19
REMARK    6  A    between atoms: N_19  and  C_21
REMARK    7  A    between atoms: C_21  and  C_22
REMARK    8  A    between atoms: C_22  and  N_23
REMARK    9  A    between atoms: O_27  and  C_35
REMARK                            x       y       z     vdW  Elec       q    Type
REMARK                         _______ _______ _______ _____ _____    ______ ____
ROOT
ATOM      1  N   UNL     1      32.740 -21.827 -17.884  0.00  0.00    -0.247 N 
ATOM      2  N   UNL     1      33.379 -22.262 -15.668  0.00  0.00    -0.300 NA
ATOM      3  N   UNL     1      31.169 -22.820 -16.451  0.00  0.00    -0.170 NA
ATOM      4  C   UNL     1      32.414 -22.328 -16.605  0.00  0.00    +0.152 C 
ATOM      5  C   UNL     1      33.032 -22.748 -14.458  0.00  0.00    +0.295 C 
ATOM      6  C   UNL     1      31.791 -23.279 -14.172  0.00  0.00    +0.094 C 
ATOM      7  C   UNL     1      30.890 -23.289 -15.217  0.00  0.00    +0.118 C 
ATOM      8  H   UNL     1      32.005 -21.896 -18.536  0.00  0.00    +0.165 HD
ENDROOT
BRANCH   1  12
ATOM      9  C   UNL     1      34.998 -19.827 -20.031  0.00  0.00    +0.004 C 
ATOM     10  C   UNL     1      33.837 -20.398 -19.511  0.00  0.00    +0.013 C 
ATOM     11  C   UNL     1      36.234 -20.109 -19.450  0.00  0.00    -0.002 C 
ATOM     12  C   UNL     1      33.911 -21.251 -18.410  0.00  0.00    +0.057 C 
ATOM     13  C   UNL     1      36.310 -20.962 -18.348  0.00  0.00    +0.001 C 
ATOM     14  C   UNL     1      35.148 -21.533 -17.829  0.00  0.00    +0.015 C 
BRANCH   9  15
ATOM     15  C   UNL     1      34.917 -18.915 -21.208  0.00  0.00    +0.195 C 
BRANCH  15  16
ATOM     16  S   UNL     1      36.080 -17.611 -20.964  0.00  0.00    +0.045 S 
ATOM     17  O   UNL     1      35.629 -16.795 -19.848  0.00  0.00    -0.157 OA
ATOM     18  O   UNL     1      37.412 -18.194 -20.952  0.00  0.00    -0.157 OA
BRANCH  16  19
ATOM     19  N   UNL     1      35.897 -16.732 -22.420  0.00  0.00    -0.185 NA
ATOM     20  H   UNL     1      35.278 -17.276 -23.022  0.00  0.00    +0.148 HD
BRANCH  19  21
ATOM     21  C   UNL     1      35.352 -15.364 -22.365  0.00  0.00    +0.068 C 
BRANCH  21  22
ATOM     22  C   UNL     1      34.741 -15.012 -23.714  0.00  0.00    -0.058 C 
BRANCH  22  23
ATOM     23  N   UNL     1      33.806 -13.902 -23.571  0.00  0.00    +0.385 N 
ATOM     24  C   UNL     1      34.399 -12.830 -22.769  0.00  0.00    -0.101 C 
ATOM     25  C   UNL     1      33.406 -13.392 -24.884  0.00  0.00    -0.101 C 
ATOM     26  H   UNL     1      32.975 -14.246 -23.090  0.00  0.00    -0.080 HD
ENDBRANCH  22  23
ENDBRANCH  21  22
ENDBRANCH  19  21
ENDBRANCH  16  19
ENDBRANCH  15  16
ENDBRANCH   9  15
ENDBRANCH   1  12
BRANCH   5  27
ATOM     27  O   UNL     1      33.992 -22.703 -13.462  0.00  0.00    -0.427 OA
BRANCH  27  35
ATOM     28  N   UNL     1      39.195 -23.825 -14.777  0.00  0.00    -0.316 N 
ATOM     29  C   UNL     1      37.281 -24.302 -13.736  0.00  0.00    +0.017 C 
ATOM     30  C   UNL     1      37.913 -23.372 -14.564  0.00  0.00    +0.048 C 
ATOM     31  C   UNL     1      39.396 -25.006 -14.115  0.00  0.00    +0.026 C 
ATOM     32  C   UNL     1      38.228 -25.328 -13.461  0.00  0.00    +0.012 C 
ATOM     33  C   UNL     1      35.943 -24.076 -13.359  0.00  0.00    +0.039 C 
ATOM     34  C   UNL     1      37.271 -22.222 -15.035  0.00  0.00    +0.018 C 
ATOM     35  C   UNL     1      35.287 -22.929 -13.822  0.00  0.00    +0.148 C 
ATOM     36  C   UNL     1      35.943 -22.018 -14.647  0.00  0.00    +0.039 C 
ATOM     37  C   UNL     1      40.690 -25.708 -14.176  0.00  0.00    +0.047 C 
ATOM     38  H   UNL     1      39.871 -23.366 -15.327  0.00  0.00    +0.152 HD
ENDBRANCH  27  35
ENDBRANCH   5  27
TORSDOF 9
ENDMDL
MODEL 2
REMARK VINA RESULT:     -12.3      2.736     10.067
REMARK  Name = 52920501
REMARK  9 active torsions:
REMARK  status: ('A' for Active; 'I' for Inactive)
REMARK    1  A    between atoms: N_1  and  C_12
REMARK    2  A    between atoms: C_5  and  O_27
REMARK    3  A    between atoms: C_9  and  C_15
REMARK    4  A    between atoms: C_15  and  S_16
REMARK    5  A    between atoms: S_16  and  N_19
REMARK    6  A    between atoms: N_19  and  C_21
REMARK    7  A    between atoms: C_21  and  C_22
REMARK    8  A    between atoms: C_22  and  N_23
REMARK    9  A    between atoms: O_27  and  C_35
REMARK                            x       y       z     vdW  Elec       q    Type
REMARK                         _______ _______ _______ _____ _____    ______ ____
ROOT
ATOM      1  N   UNL     1      34.493 -22.098 -16.981  0.00  0.00    -0.247 N 
ATOM      2  N   UNL     1      35.323 -20.505 -18.490  0.00  0.00    -0.300 NA
ATOM      3  N   UNL     1      33.046 -21.280 -18.637  0.00  0.00    -0.170 NA
ATOM      4  C   UNL     1      34.277 -21.252 -18.091  0.00  0.00    +0.152 C 
ATOM      5  C   UNL     1      35.082 -19.710 -19.554  0.00  0.00    +0.295 C 
ATOM      6  C   UNL     1      33.866 -19.645 -20.202  0.00  0.00    +0.094 C 
ATOM      7  C   UNL     1      32.875 -20.460 -19.696  0.00  0.00    +0.118 C 
ATOM      8  H   UNL     1      33.701 -22.625 -16.724  0.00  0.00    +0.165 HD
ENDROOT
BRANCH   1  12
ATOM      9  C   UNL     1      36.706 -23.588 -14.414  0.00  0.00    +0.004 C 
ATOM     10  C   UNL     1      35.590 -23.354 -15.218  0.00  0.00    +0.013 C 
ATOM     11  C   UNL     1      37.849 -22.801 -14.561  0.00  0.00    -0.002 C 
ATOM     12  C   UNL     1      35.618 -22.335 -16.169  0.00  0.00    +0.057 C 
ATOM     13  C   UNL     1      37.876 -21.781 -15.513  0.00  0.00    +0.001 C 
ATOM     14  C   UNL     1      36.760 -21.548 -16.317  0.00  0.00    +0.015 C 
BRANCH   9  15
ATOM     15  C   UNL     1      36.677 -24.678 -13.397  0.00  0.00    +0.195 C 
BRANCH  15  16
ATOM     16  S   UNL     1      36.160 -23.976 -11.863  0.00  0.00    +0.045 S 
ATOM     17  O   UNL     1      36.776 -24.726 -10.782  0.00  0.00    -0.157 OA
ATOM     18  O   UNL     1      36.338 -22.535 -11.948  0.00  0.00    -0.157 OA
BRANCH  16  19
ATOM     19  N   UNL     1      34.482 -24.306 -11.901  0.00  0.00    -0.185 NA
ATOM     20  H   UNL     1      34.154 -24.301 -10.935  0.00  0.00    +0.148 HD
BRANCH  19  21
ATOM     21  C   UNL     1      33.594 -23.409 -12.662  0.00  0.00    +0.068 C 
BRANCH  21  22
ATOM     22  C   UNL     1      32.393 -24.197 -13.164  0.00  0.00    -0.058 C 
BRANCH  22  23
ATOM     23  N   UNL     1      31.310 -23.292 -13.527  0.00  0.00    +0.385 N 
ATOM     24  C   UNL     1      31.744 -22.360 -14.570  0.00  0.00    -0.101 C 
ATOM     25  C   UNL     1      30.137 -24.044 -13.976  0.00  0.00    -0.101 C 
ATOM     26  H   UNL     1      31.053 -22.755 -12.699  0.00  0.00    -0.080 HD
ENDBRANCH  22  23
ENDBRANCH  21  22
ENDBRANCH  19  21
ENDBRANCH  16  19
ENDBRANCH  15  16
ENDBRANCH   9  15
ENDBRANCH   1  12
BRANCH   5  27
ATOM     27  O   UNL     1      36.128 -18.922 -20.001  0.00  0.00    -0.427 OA
BRANCH  27  35
ATOM     28  N   UNL     1      34.861 -14.537 -23.040  0.00  0.00    -0.316 N 
ATOM     29  C   UNL     1      35.158 -15.552 -21.075  0.00  0.00    +0.017 C 
ATOM     30  C   UNL     1      35.207 -15.736 -22.459  0.00  0.00    +0.048 C 
ATOM     31  C   UNL     1      34.596 -13.604 -22.075  0.00  0.00    +0.026 C 
ATOM     32  C   UNL     1      34.771 -14.202 -20.847  0.00  0.00    +0.012 C 
ATOM     33  C   UNL     1      35.472 -16.638 -20.235  0.00  0.00    +0.039 C 
ATOM     34  C   UNL     1      35.557 -16.957 -23.046  0.00  0.00    +0.018 C 
ATOM     35  C   UNL     1      35.823 -17.866 -20.808  0.00  0.00    +0.148 C 
ATOM     36  C   UNL     1      35.864 -18.021 -22.192  0.00  0.00    +0.039 C 
ATOM     37  C   UNL     1      34.199 -12.228 -22.427  0.00  0.00    +0.047 C 
ATOM     38  H   UNL     1      34.813 -14.374 -24.010  0.00  0.00    +0.152 HD
ENDBRANCH  27  35
ENDBRANCH   5  27
TORSDOF 9
ENDMDL
MODEL 3
REMARK VINA RESULT:     -12.2      3.579     11.310
REMARK  Name = 52920501
REMARK  9 active torsions:
REMARK  status: ('A' for Active; 'I' for Inactive)
REMARK    1  A    between atoms: N_1  and  C_12
REMARK    2  A    between atoms: C_5  and  O_27
REMARK    3  A    between atoms: C_9  and  C_15
REMARK    4  A    between atoms: C_15  and  S_16
REMARK    5  A    between atoms: S_16  and  N_19
REMARK    6  A    between atoms: N_19  and  C_21
REMARK    7  A    between atoms: C_21  and  C_22
REMARK    8  A    between atoms: C_22  and  N_23
REMARK    9  A    between atoms: O_27  and  C_35
REMARK                            x       y       z     vdW  Elec       q    Type
REMARK                         _______ _______ _______ _____ _____    ______ ____
ROOT
ATOM      1  N   UNL     1      34.589 -18.651 -22.892  0.00  0.00    -0.247 N 
ATOM      2  N   UNL     1      35.022 -16.352 -22.716  0.00  0.00    -0.300 NA
ATOM      3  N   UNL     1      34.132 -17.292 -24.749  0.00  0.00    -0.170 NA
ATOM      4  C   UNL     1      34.581 -17.368 -23.481  0.00  0.00    +0.152 C 
ATOM      5  C   UNL     1      35.000 -15.141 -23.311  0.00  0.00    +0.295 C 
ATOM      6  C   UNL     1      34.565 -14.929 -24.603  0.00  0.00    +0.094 C 
ATOM      7  C   UNL     1      34.139 -16.052 -25.281  0.00  0.00    +0.118 C 
ATOM      8  H   UNL     1      34.259 -19.363 -23.486  0.00  0.00    +0.165 HD
ENDROOT
BRANCH   1  12
ATOM      9  C   UNL     1      34.414 -20.115 -19.495  0.00  0.00    +0.004 C 
ATOM     10  C   UNL     1      34.029 -19.659 -20.756  0.00  0.00    +0.013 C 
ATOM     11  C   UNL     1      35.748 -20.022 -19.098  0.00  0.00    -0.002 C 
ATOM     12  C   UNL     1      34.977 -19.111 -21.619  0.00  0.00    +0.057 C 
ATOM     13  C   UNL     1      36.697 -19.474 -19.961  0.00  0.00    +0.001 C 
ATOM     14  C   UNL     1      36.311 -19.018 -21.222  0.00  0.00    +0.015 C 
BRANCH   9  15
ATOM     15  C   UNL     1      33.400 -20.702 -18.573  0.00  0.00    +0.195 C 
BRANCH  15  16
ATOM     16  S   UNL     1      34.018 -22.254 -18.004  0.00  0.00    +0.045 S 
ATOM     17  O   UNL     1      34.150 -23.144 -19.146  0.00  0.00    -0.157 OA
ATOM     18  O   UNL     1      35.162 -21.992 -17.145  0.00  0.00    -0.157 OA
BRANCH  16  19
ATOM     19  N   UNL     1      32.723 -22.780 -17.019  0.00  0.00    -0.185 NA
ATOM     20  H   UNL     1      32.494 -23.731 -17.308  0.00  0.00    +0.148 HD
BRANCH  19  21
ATOM     21  C   UNL     1      32.904 -22.807 -15.556  0.00  0.00    +0.068 C 
BRANCH  21  22
ATOM     22  C   UNL     1      31.572 -22.513 -14.880  0.00  0.00    -0.058 C 
BRANCH  22  23
ATOM     23  N   UNL     1      30.517 -23.332 -15.464  0.00  0.00    +0.385 N 
ATOM     24  C   UNL     1      30.319 -24.554 -14.682  0.00  0.00    -0.101 C 
ATOM     25  C   UNL     1      29.266 -22.577 -15.552  0.00  0.00    -0.101 C 
ATOM     26  H   UNL     1      30.804 -23.595 -16.408  0.00  0.00    -0.080 HD
ENDBRANCH  22  23
ENDBRANCH  21  22
ENDBRANCH  19  21
ENDBRANCH  16  19
ENDBRANCH  15  16
ENDBRANCH   9  15
ENDBRANCH   1  12
BRANCH   5  27
ATOM     27  O   UNL     1      35.444 -14.063 -22.564  0.00  0.00    -0.427 OA
BRANCH  27  35
ATOM     28  N   UNL     1      31.691 -10.466 -20.820  0.00  0.00    -0.316 N 
ATOM     29  C   UNL     1      32.900 -12.326 -20.575  0.00  0.00    +0.017 C 
ATOM     30  C   UNL     1      32.650 -11.246 -21.426  0.00  0.00    +0.048 C 
ATOM     31  C   UNL     1      31.326 -11.012 -19.620  0.00  0.00    +0.026 C 
ATOM     32  C   UNL     1      32.057 -12.165 -19.440  0.00  0.00    +0.012 C 
ATOM     33  C   UNL     1      33.853 -13.288 -20.961  0.00  0.00    +0.039 C 
ATOM     34  C   UNL     1      33.309 -11.081 -22.649  0.00  0.00    +0.018 C 
ATOM     35  C   UNL     1      34.520 -13.136 -22.182  0.00  0.00    +0.148 C 
ATOM     36  C   UNL     1      34.251 -12.049 -23.012  0.00  0.00    +0.039 C 
ATOM     37  C   UNL     1      30.310 -10.374 -18.764  0.00  0.00    +0.047 C 
ATOM     38  H   UNL     1      31.321  -9.635 -21.196  0.00  0.00    +0.152 HD
ENDBRANCH  27  35
ENDBRANCH   5  27
TORSDOF 9
ENDMDL
MODEL 4
REMARK VINA RESULT:     -12.1      1.557      2.103
REMARK  Name = 52920501
REMARK  9 active torsions:
REMARK  status: ('A' for Active; 'I' for Inactive)
REMARK    1  A    between atoms: N_1  and  C_12
REMARK    2  A    between atoms: C_5  and  O_27
REMARK    3  A    between atoms: C_9  and  C_15
REMARK    4  A    between atoms: C_15  and  S_16
REMARK    5  A    between atoms: S_16  and  N_19
REMARK    6  A    between atoms: N_19  and  C_21
REMARK    7  A    between atoms: C_21  and  C_22
REMARK    8  A    between atoms: C_22  and  N_23
REMARK    9  A    between atoms: O_27  and  C_35
REMARK                            x       y       z     vdW  Elec       q    Type
REMARK                         _______ _______ _______ _____ _____    ______ ____
ROOT
ATOM      1  N   UNL     1      33.433 -22.727 -16.595  0.00  0.00    -0.247 N 
ATOM      2  N   UNL     1      33.737 -22.991 -14.283  0.00  0.00    -0.300 NA
ATOM      3  N   UNL     1      31.726 -23.763 -15.363  0.00  0.00    -0.170 NA
ATOM      4  C   UNL     1      32.942 -23.183 -15.352  0.00  0.00    +0.152 C 
ATOM      5  C   UNL     1      33.236 -23.437 -13.113  0.00  0.00    +0.295 C 
ATOM      6  C   UNL     1      32.005 -24.048 -12.989  0.00  0.00    +0.094 C 
ATOM      7  C   UNL     1      31.287 -24.186 -14.159  0.00  0.00    +0.118 C 
ATOM      8  H   UNL     1      32.819 -22.889 -17.348  0.00  0.00    +0.165 HD
ENDROOT
BRANCH   1  12
ATOM      9  C   UNL     1      35.991 -21.007 -18.646  0.00  0.00    +0.004 C 
ATOM     10  C   UNL     1      34.804 -21.640 -18.277  0.00  0.00    +0.013 C 
ATOM     11  C   UNL     1      37.005 -20.823 -17.705  0.00  0.00    -0.002 C 
ATOM     12  C   UNL     1      34.631 -22.088 -16.968  0.00  0.00    +0.057 C 
ATOM     13  C   UNL     1      36.832 -21.272 -16.396  0.00  0.00    +0.001 C 
ATOM     14  C   UNL     1      35.644 -21.905 -16.027  0.00  0.00    +0.015 C 
BRANCH   9  15
ATOM     15  C   UNL     1      36.176 -20.526 -20.046  0.00  0.00    +0.195 C 
BRANCH  15  16
ATOM     16  S   UNL     1      35.165 -19.097 -20.266  0.00  0.00    +0.045 S 
ATOM     17  O   UNL     1      33.826 -19.401 -19.789  0.00  0.00    -0.157 OA
ATOM     18  O   UNL     1      35.888 -17.952 -19.736  0.00  0.00    -0.157 OA
BRANCH  16  19
ATOM     19  N   UNL     1      35.146 -18.970 -21.972  0.00  0.00    -0.185 NA
ATOM     20  H   UNL     1      34.168 -18.967 -22.261  0.00  0.00    +0.148 HD
BRANCH  19  21
ATOM     21  C   UNL     1      35.787 -17.805 -22.608  0.00  0.00    +0.068 C 
BRANCH  21  22
ATOM     22  C   UNL     1      34.799 -17.145 -23.559  0.00  0.00    -0.058 C 
BRANCH  22  23
ATOM     23  N   UNL     1      35.244 -15.799 -23.897  0.00  0.00    +0.385 N 
ATOM     24  C   UNL     1      34.399 -15.224 -24.946  0.00  0.00    -0.101 C 
ATOM     25  C   UNL     1      35.236 -14.939 -22.712  0.00  0.00    -0.101 C 
ATOM     26  H   UNL     1      36.200 -15.859 -24.247  0.00  0.00    -0.080 HD
ENDBRANCH  22  23
ENDBRANCH  21  22
ENDBRANCH  19  21
ENDBRANCH  16  19
ENDBRANCH  15  16
ENDBRANCH   9  15
ENDBRANCH   1  12
BRANCH   5  27
ATOM     27  O   UNL     1      34.018 -23.263 -11.984  0.00  0.00    -0.427 OA
BRANCH  27  35
ATOM     28  N   UNL     1      39.365 -24.265 -12.671  0.00  0.00    -0.316 N 
ATOM     29  C   UNL     1      37.223 -24.535 -13.233  0.00  0.00    +0.017 C 
ATOM     30  C   UNL     1      38.082 -23.891 -12.340  0.00  0.00    +0.048 C 
ATOM     31  C   UNL     1      39.348 -25.119 -13.739  0.00  0.00    +0.026 C 
ATOM     32  C   UNL     1      38.035 -25.307 -14.110  0.00  0.00    +0.012 C 
ATOM     33  C   UNL     1      35.835 -24.322 -13.114  0.00  0.00    +0.039 C 
ATOM     34  C   UNL     1      37.621 -23.041 -11.329  0.00  0.00    +0.018 C 
ATOM     35  C   UNL     1      35.359 -23.474 -12.107  0.00  0.00    +0.148 C 
ATOM     36  C   UNL     1      36.240 -22.845 -11.229  0.00  0.00    +0.039 C 
ATOM     37  C   UNL     1      40.594 -25.674 -14.298  0.00  0.00    +0.047 C 
ATOM     38  H   UNL     1      40.178 -23.960 -12.206  0.00  0.00    +0.152 HD
ENDBRANCH  27  35
ENDBRANCH   5  27
TORSDOF 9
ENDMDL
MODEL 5
REMARK VINA RESULT:     -12.0      4.355      8.957
REMARK  Name = 52920501
REMARK  9 active torsions:
REMARK  status: ('A' for Active; 'I' for Inactive)
REMARK    1  A    between atoms: N_1  and  C_12
REMARK    2  A    between atoms: C_5  and  O_27
REMARK    3  A    between atoms: C_9  and  C_15
REMARK    4  A    between atoms: C_15  and  S_16
REMARK    5  A    between atoms: S_16  and  N_19
REMARK    6  A    between atoms: N_19  and  C_21
REMARK    7  A    between atoms: C_21  and  C_22
REMARK    8  A    between atoms: C_22  and  N_23
REMARK    9  A    between atoms: O_27  and  C_35
REMARK                            x       y       z     vdW  Elec       q    Type
REMARK                         _______ _______ _______ _____ _____    ______ ____
ROOT
ATOM      1  N   UNL     1      33.339 -14.734 -25.101  0.00  0.00    -0.247 N 
ATOM      2  N   UNL     1      34.661 -15.917 -23.565  0.00  0.00    -0.300 NA
ATOM      3  N   UNL     1      33.419 -17.073 -25.277  0.00  0.00    -0.170 NA
ATOM      4  C   UNL     1      33.831 -15.969 -24.624  0.00  0.00    +0.152 C 
ATOM      5  C   UNL     1      35.110 -17.115 -23.135  0.00  0.00    +0.295 C 
ATOM      6  C   UNL     1      34.765 -18.317 -23.717  0.00  0.00    +0.094 C 
ATOM      7  C   UNL     1      33.907 -18.234 -24.795  0.00  0.00    +0.118 C 
ATOM      8  H   UNL     1      32.738 -14.819 -25.875  0.00  0.00    +0.165 HD
ENDROOT
BRANCH   1  12
ATOM      9  C   UNL     1      33.762 -11.774 -22.917  0.00  0.00    +0.004 C 
ATOM     10  C   UNL     1      33.561 -13.092 -23.327  0.00  0.00    +0.013 C 
ATOM     11  C   UNL     1      33.945 -10.769 -23.866  0.00  0.00    -0.002 C 
ATOM     12  C   UNL     1      33.543 -13.405 -24.686  0.00  0.00    +0.057 C 
ATOM     13  C   UNL     1      33.927 -11.081 -25.226  0.00  0.00    +0.001 C 
ATOM     14  C   UNL     1      33.726 -12.399 -25.635  0.00  0.00    +0.015 C 
BRANCH   9  15
ATOM     15  C   UNL     1      33.782 -11.440 -21.464  0.00  0.00    +0.195 C 
BRANCH  15  16
ATOM     16  S   UNL     1      32.156 -11.691 -20.827  0.00  0.00    +0.045 S 
ATOM     17  O   UNL     1      31.221 -10.927 -21.637  0.00  0.00    -0.157 OA
ATOM     18  O   UNL     1      31.963 -13.121 -20.642  0.00  0.00    -0.157 OA
BRANCH  16  19
ATOM     19  N   UNL     1      32.294 -10.969 -19.283  0.00  0.00    -0.185 NA
ATOM     20  H   UNL     1      33.284 -10.777 -19.130  0.00  0.00    +0.148 HD
BRANCH  19  21
ATOM     21  C   UNL     1      31.565  -9.717 -19.013  0.00  0.00    +0.068 C 
BRANCH  21  22
ATOM     22  C   UNL     1      32.560  -8.571 -18.897  0.00  0.00    -0.058 C 
BRANCH  22  23
ATOM     23  N   UNL     1      32.201  -7.495 -19.811  0.00  0.00    +0.385 N 
ATOM     24  C   UNL     1      32.423  -6.190 -19.184  0.00  0.00    -0.101 C 
ATOM     25  C   UNL     1      32.967  -7.596 -21.055  0.00  0.00    -0.101 C 
ATOM     26  H   UNL     1      31.210  -7.584 -20.033  0.00  0.00    -0.080 HD
ENDBRANCH  22  23
ENDBRANCH  21  22
ENDBRANCH  19  21
ENDBRANCH  16  19
ENDBRANCH  15  16
ENDBRANCH   9  15
ENDBRANCH   1  12
BRANCH   5  27
ATOM     27  O   UNL     1      35.968 -17.113 -22.048  0.00  0.00    -0.427 OA
BRANCH  27  35
ATOM     28  N   UNL     1      35.270 -21.211 -18.473  0.00  0.00    -0.316 N 
ATOM     29  C   UNL     1      34.480 -19.647 -19.854  0.00  0.00    +0.017 C 
ATOM     30  C   UNL     1      35.649 -20.213 -19.341  0.00  0.00    +0.048 C 
ATOM     31  C   UNL     1      33.905 -21.297 -18.419  0.00  0.00    +0.026 C 
ATOM     32  C   UNL     1      33.387 -20.341 -19.263  0.00  0.00    +0.012 C 
ATOM     33  C   UNL     1      34.586 -18.589 -20.778  0.00  0.00    +0.039 C 
ATOM     34  C   UNL     1      36.925 -19.771 -19.708  0.00  0.00    +0.018 C 
ATOM     35  C   UNL     1      35.856 -18.137 -21.155  0.00  0.00    +0.148 C 
ATOM     36  C   UNL     1      37.006 -18.720 -20.626  0.00  0.00    +0.039 C 
ATOM     37  C   UNL     1      33.232 -22.289 -17.561  0.00  0.00    +0.047 C 
ATOM     38  H   UNL     1      35.891 -21.783 -17.965  0.00  0.00    +0.152 HD
ENDBRANCH  27  35
ENDBRANCH   5  27
TORSDOF 9
ENDMDL
MODEL 6
REMARK VINA RESULT:     -11.8      2.798     11.337
REMARK  Name = 52920501
REMARK  9 active torsions:
REMARK  status: ('A' for Active; 'I' for Inactive)
REMARK    1  A    between atoms: N_1  and  C_12
REMARK    2  A    between atoms: C_5  and  O_27
REMARK    3  A    between atoms: C_9  and  C_15
REMARK    4  A    between atoms: C_15  and  S_16
REMARK    5  A    between atoms: S_16  and  N_19
REMARK    6  A    between atoms: N_19  and  C_21
REMARK    7  A    between atoms: C_21  and  C_22
REMARK    8  A    between atoms: C_22  and  N_23
REMARK    9  A    between atoms: O_27  and  C_35
REMARK                            x       y       z     vdW  Elec       q    Type
REMARK                         _______ _______ _______ _____ _____    ______ ____
ROOT
ATOM      1  N   UNL     1      34.568 -18.758 -22.832  0.00  0.00    -0.247 N 
ATOM      2  N   UNL     1      35.028 -16.461 -22.701  0.00  0.00    -0.300 NA
ATOM      3  N   UNL     1      34.119 -17.428 -24.713  0.00  0.00    -0.170 NA
ATOM      4  C   UNL     1      34.572 -17.486 -23.445  0.00  0.00    +0.152 C 
ATOM      5  C   UNL     1      35.018 -15.261 -23.318  0.00  0.00    +0.295 C 
ATOM      6  C   UNL     1      34.579 -15.068 -24.612  0.00  0.00    +0.094 C 
ATOM      7  C   UNL     1      34.137 -16.198 -25.268  0.00  0.00    +0.118 C 
ATOM      8  H   UNL     1      34.226 -19.477 -23.412  0.00  0.00    +0.165 HD
ENDROOT
BRANCH   1  12
ATOM      9  C   UNL     1      34.393 -20.165 -19.412  0.00  0.00    +0.004 C 
ATOM     10  C   UNL     1      34.007 -19.728 -20.679  0.00  0.00    +0.013 C 
ATOM     11  C   UNL     1      35.728 -20.072 -19.019  0.00  0.00    -0.002 C 
ATOM     12  C   UNL     1      34.956 -19.199 -21.554  0.00  0.00    +0.057 C 
ATOM     13  C   UNL     1      36.678 -19.543 -19.893  0.00  0.00    +0.001 C 
ATOM     14  C   UNL     1      36.291 -19.106 -21.160  0.00  0.00    +0.015 C 
BRANCH   9  15
ATOM     15  C   UNL     1      33.378 -20.732 -18.478  0.00  0.00    +0.195 C 
BRANCH  15  16
ATOM     16  S   UNL     1      33.898 -22.358 -18.033  0.00  0.00    +0.045 S 
ATOM     17  O   UNL     1      32.875 -22.954 -17.189  0.00  0.00    -0.157 OA
ATOM     18  O   UNL     1      34.333 -23.036 -19.244  0.00  0.00    -0.157 OA
BRANCH  16  19
ATOM     19  N   UNL     1      35.283 -22.012 -17.091  0.00  0.00    -0.185 NA
ATOM     20  H   UNL     1      35.409 -21.000 -17.105  0.00  0.00    +0.148 HD
BRANCH  19  21
ATOM     21  C   UNL     1      35.308 -22.430 -15.678  0.00  0.00    +0.068 C 
BRANCH  21  22
ATOM     22  C   UNL     1      36.753 -22.525 -15.208  0.00  0.00    -0.058 C 
BRANCH  22  23
ATOM     23  N   UNL     1      36.987 -23.804 -14.549  0.00  0.00    +0.385 N 
ATOM     24  C   UNL     1      38.403 -23.957 -14.208  0.00  0.00    -0.101 C 
ATOM     25  C   UNL     1      36.161 -23.924 -13.346  0.00  0.00    -0.101 C 
ATOM     26  H   UNL     1      36.727 -24.547 -15.197  0.00  0.00    -0.080 HD
ENDBRANCH  22  23
ENDBRANCH  21  22
ENDBRANCH  19  21
ENDBRANCH  16  19
ENDBRANCH  15  16
ENDBRANCH   9  15
ENDBRANCH   1  12
BRANCH   5  27
ATOM     27  O   UNL     1      35.478 -14.175 -22.593  0.00  0.00    -0.427 OA
BRANCH  27  35
ATOM     28  N   UNL     1      31.767 -10.516 -20.890  0.00  0.00    -0.316 N 
ATOM     29  C   UNL     1      32.937 -12.398 -20.634  0.00  0.00    +0.017 C 
ATOM     30  C   UNL     1      32.720 -11.311 -21.484  0.00  0.00    +0.048 C 
ATOM     31  C   UNL     1      31.375 -11.059 -19.696  0.00  0.00    +0.026 C 
ATOM     32  C   UNL     1      32.082 -12.226 -19.511  0.00  0.00    +0.012 C 
ATOM     33  C   UNL     1      33.878 -13.377 -21.011  0.00  0.00    +0.039 C 
ATOM     34  C   UNL     1      33.400 -11.154 -22.697  0.00  0.00    +0.018 C 
ATOM     35  C   UNL     1      34.566 -13.233 -22.221  0.00  0.00    +0.148 C 
ATOM     36  C   UNL     1      34.329 -12.137 -23.050  0.00  0.00    +0.039 C 
ATOM     37  C   UNL     1      30.358 -10.405 -18.853  0.00  0.00    +0.047 C 
ATOM     38  H   UNL     1      31.418  -9.676 -21.267  0.00  0.00    +0.152 HD
ENDBRANCH  27  35
ENDBRANCH   5  27
TORSDOF 9
ENDMDL
MODEL 7
REMARK VINA RESULT:     -11.8      1.615      4.946
REMARK  Name = 52920501
REMARK  9 active torsions:
REMARK  status: ('A' for Active; 'I' for Inactive)
REMARK    1  A    between atoms: N_1  and  C_12
REMARK    2  A    between atoms: C_5  and  O_27
REMARK    3  A    between atoms: C_9  and  C_15
REMARK    4  A    between atoms: C_15  and  S_16
REMARK    5  A    between atoms: S_16  and  N_19
REMARK    6  A    between atoms: N_19  and  C_21
REMARK    7  A    between atoms: C_21  and  C_22
REMARK    8  A    between atoms: C_22  and  N_23
REMARK    9  A    between atoms: O_27  and  C_35
REMARK                            x       y       z     vdW  Elec       q    Type
REMARK                         _______ _______ _______ _____ _____    ______ ____
ROOT
ATOM      1  N   UNL     1      36.732 -21.161 -17.196  0.00  0.00    -0.247 N 
ATOM      2  N   UNL     1      35.742 -22.777 -15.811  0.00  0.00    -0.300 NA
ATOM      3  N   UNL     1      38.001 -22.030 -15.423  0.00  0.00    -0.170 NA
ATOM      4  C   UNL     1      36.829 -22.032 -16.089  0.00  0.00    +0.152 C 
ATOM      5  C   UNL     1      35.871 -23.598 -14.748  0.00  0.00    +0.295 C 
ATOM      6  C   UNL     1      37.016 -23.690 -13.984  0.00  0.00    +0.094 C 
ATOM      7  C   UNL     1      38.059 -22.874 -14.372  0.00  0.00    +0.118 C 
ATOM      8  H   UNL     1      37.549 -20.637 -17.361  0.00  0.00    +0.165 HD
ENDROOT
BRANCH   1  12
ATOM      9  C   UNL     1      34.925 -19.899 -20.170  0.00  0.00    +0.004 C 
ATOM     10  C   UNL     1      35.954 -20.162 -19.266  0.00  0.00    +0.013 C 
ATOM     11  C   UNL     1      33.636 -20.367 -19.915  0.00  0.00    -0.002 C 
ATOM     12  C   UNL     1      35.694 -20.895 -18.108  0.00  0.00    +0.057 C 
ATOM     13  C   UNL     1      33.375 -21.100 -18.757  0.00  0.00    +0.001 C 
ATOM     14  C   UNL     1      34.405 -21.363 -17.853  0.00  0.00    +0.015 C 
BRANCH   9  15
ATOM     15  C   UNL     1      35.203 -19.117 -21.409  0.00  0.00    +0.195 C 
BRANCH  15  16
ATOM     16  S   UNL     1      36.243 -17.760 -20.972  0.00  0.00    +0.045 S 
ATOM     17  O   UNL     1      35.580 -16.987 -19.935  0.00  0.00    -0.157 OA
ATOM     18  O   UNL     1      37.585 -18.277 -20.754  0.00  0.00    -0.157 OA
BRANCH  16  19
ATOM     19  N   UNL     1      36.248 -16.868 -22.431  0.00  0.00    -0.185 NA
ATOM     20  H   UNL     1      36.863 -17.360 -23.080  0.00  0.00    +0.148 HD
BRANCH  19  21
ATOM     21  C   UNL     1      34.972 -16.641 -23.134  0.00  0.00    +0.068 C 
BRANCH  21  22
ATOM     22  C   UNL     1      34.739 -15.144 -23.280  0.00  0.00    -0.058 C 
BRANCH  22  23
ATOM     23  N   UNL     1      34.291 -14.832 -24.632  0.00  0.00    +0.385 N 
ATOM     24  C   UNL     1      33.535 -15.952 -25.196  0.00  0.00    -0.101 C 
ATOM     25  C   UNL     1      33.477 -13.615 -24.638  0.00  0.00    -0.101 C 
ATOM     26  H   UNL     1      35.116 -14.674 -25.211  0.00  0.00    -0.080 HD
ENDBRANCH  22  23
ENDBRANCH  21  22
ENDBRANCH  19  21
ENDBRANCH  16  19
ENDBRANCH  15  16
ENDBRANCH   9  15
ENDBRANCH   1  12
BRANCH   5  27
ATOM     27  O   UNL     1      34.778 -24.384 -14.423  0.00  0.00    -0.427 OA
BRANCH  27  35
ATOM     28  N   UNL     1      29.879 -21.946 -14.087  0.00  0.00    -0.316 N 
ATOM     29  C   UNL     1      31.436 -23.091 -15.202  0.00  0.00    +0.017 C 
ATOM     30  C   UNL     1      31.135 -22.498 -13.974  0.00  0.00    +0.048 C 
ATOM     31  C   UNL     1      29.377 -22.169 -15.341  0.00  0.00    +0.026 C 
ATOM     32  C   UNL     1      30.318 -22.875 -16.055  0.00  0.00    +0.012 C 
ATOM     33  C   UNL     1      32.680 -23.735 -15.357  0.00  0.00    +0.039 C 
ATOM     34  C   UNL     1      32.018 -22.517 -12.889  0.00  0.00    +0.018 C 
ATOM     35  C   UNL     1      33.574 -23.762 -14.280  0.00  0.00    +0.148 C 
ATOM     36  C   UNL     1      33.246 -23.162 -13.066  0.00  0.00    +0.039 C 
ATOM     37  C   UNL     1      28.042 -21.680 -15.730  0.00  0.00    +0.047 C 
ATOM     38  H   UNL     1      29.409 -21.462 -13.370  0.00  0.00    +0.152 HD
ENDBRANCH  27  35
ENDBRANCH   5  27
TORSDOF 9
ENDMDL
MODEL 8
REMARK VINA RESULT:     -11.7      2.681     10.659
REMARK  Name = 52920501
REMARK  9 active torsions:
REMARK  status: ('A' for Active; 'I' for Inactive)
REMARK    1  A    between atoms: N_1  and  C_12
REMARK    2  A    between atoms: C_5  and  O_27
REMARK    3  A    between atoms: C_9  and  C_15
REMARK    4  A    between atoms: C_15  and  S_16
REMARK    5  A    between atoms: S_16  and  N_19
REMARK    6  A    between atoms: N_19  and  C_21
REMARK    7  A    between atoms: C_21  and  C_22
REMARK    8  A    between atoms: C_22  and  N_23
REMARK    9  A    between atoms: O_27  and  C_35
REMARK                            x       y       z     vdW  Elec       q    Type
REMARK                         _______ _______ _______ _____ _____    ______ ____
ROOT
ATOM      1  N   UNL     1      34.551 -21.714 -17.257  0.00  0.00    -0.247 N 
ATOM      2  N   UNL     1      35.338 -20.125 -18.794  0.00  0.00    -0.300 NA
ATOM      3  N   UNL     1      33.133 -21.072 -19.013  0.00  0.00    -0.170 NA
ATOM      4  C   UNL     1      34.330 -20.931 -18.411  0.00  0.00    +0.152 C 
ATOM      5  C   UNL     1      35.093 -19.393 -19.901  0.00  0.00    +0.295 C 
ATOM      6  C   UNL     1      33.909 -19.445 -20.608  0.00  0.00    +0.094 C 
ATOM      7  C   UNL     1      32.955 -20.311 -20.112  0.00  0.00    +0.118 C 
ATOM      8  H   UNL     1      33.789 -22.287 -17.015  0.00  0.00    +0.165 HD
ENDROOT
BRANCH   1  12
ATOM      9  C   UNL     1      36.530 -22.241 -14.173  0.00  0.00    +0.004 C 
ATOM     10  C   UNL     1      35.442 -22.122 -15.036  0.00  0.00    +0.013 C 
ATOM     11  C   UNL     1      37.827 -22.069 -14.657  0.00  0.00    -0.002 C 
ATOM     12  C   UNL     1      35.649 -21.833 -16.385  0.00  0.00    +0.057 C 
ATOM     13  C   UNL     1      38.035 -21.780 -16.006  0.00  0.00    +0.001 C 
ATOM     14  C   UNL     1      36.946 -21.662 -16.870  0.00  0.00    +0.015 C 
BRANCH   9  15
ATOM     15  C   UNL     1      36.308 -22.551 -12.731  0.00  0.00    +0.195 C 
BRANCH  15  16
ATOM     16  S   UNL     1      35.417 -24.070 -12.634  0.00  0.00    +0.045 S 
ATOM     17  O   UNL     1      34.099 -23.798 -12.084  0.00  0.00    -0.157 OA
ATOM     18  O   UNL     1      35.549 -24.749 -13.914  0.00  0.00    -0.157 OA
BRANCH  16  19
ATOM     19  N   UNL     1      36.349 -24.924 -11.482  0.00  0.00    -0.185 NA
ATOM     20  H   UNL     1      35.700 -25.478 -10.923  0.00  0.00    +0.148 HD
BRANCH  19  21
ATOM     21  C   UNL     1      37.404 -25.840 -11.953  0.00  0.00    +0.068 C 
BRANCH  21  22
ATOM     22  C   UNL     1      38.661 -25.041 -12.264  0.00  0.00    -0.058 C 
BRANCH  22  23
ATOM     23  N   UNL     1      39.402 -25.667 -13.352  0.00  0.00    +0.385 N 
ATOM     24  C   UNL     1      38.531 -25.890 -14.507  0.00  0.00    -0.101 C 
ATOM     25  C   UNL     1      40.551 -24.844 -13.734  0.00  0.00    -0.101 C 
ATOM     26  H   UNL     1      39.745 -26.570 -13.024  0.00  0.00    -0.080 HD
ENDBRANCH  22  23
ENDBRANCH  21  22
ENDBRANCH  19  21
ENDBRANCH  16  19
ENDBRANCH  15  16
ENDBRANCH   9  15
ENDBRANCH   1  12
BRANCH   5  27
ATOM     27  O   UNL     1      36.099 -18.547 -20.333  0.00  0.00    -0.427 OA
BRANCH  27  35
ATOM     28  N   UNL     1      34.617 -14.110 -23.192  0.00  0.00    -0.316 N 
ATOM     29  C   UNL     1      34.995 -15.178 -21.270  0.00  0.00    +0.017 C 
ATOM     30  C   UNL     1      35.015 -15.315 -22.660  0.00  0.00    +0.048 C 
ATOM     31  C   UNL     1      34.346 -13.217 -22.190  0.00  0.00    +0.026 C 
ATOM     32  C   UNL     1      34.571 -13.849 -20.988  0.00  0.00    +0.012 C 
ATOM     33  C   UNL     1      35.365 -16.280 -20.474  0.00  0.00    +0.039 C 
ATOM     34  C   UNL     1      35.388 -16.504 -23.296  0.00  0.00    +0.018 C 
ATOM     35  C   UNL     1      35.740 -17.476 -21.097  0.00  0.00    +0.148 C 
ATOM     36  C   UNL     1      35.751 -17.584 -22.486  0.00  0.00    +0.039 C 
ATOM     37  C   UNL     1      33.897 -11.845 -22.486  0.00  0.00    +0.047 C 
ATOM     38  H   UNL     1      34.538 -13.917 -24.154  0.00  0.00    +0.152 HD
ENDBRANCH  27  35
ENDBRANCH   5  27
TORSDOF 9
ENDMDL
MODEL 9
REMARK VINA RESULT:     -11.4      4.793      9.611
REMARK  Name = 52920501
REMARK  9 active torsions:
REMARK  status: ('A' for Active; 'I' for Inactive)
REMARK    1  A    between atoms: N_1  and  C_12
REMARK    2  A    between atoms: C_5  and  O_27
REMARK    3  A    between atoms: C_9  and  C_15
REMARK    4  A    between atoms: C_15  and  S_16
REMARK    5  A    between atoms: S_16  and  N_19
REMARK    6  A    between atoms: N_19  and  C_21
REMARK    7  A    between atoms: C_21  and  C_22
REMARK    8  A    between atoms: C_22  and  N_23
REMARK    9  A    between atoms: O_27  and  C_35
REMARK                            x       y       z     vdW  Elec       q    Type
REMARK                         _______ _______ _______ _____ _____    ______ ____
ROOT
ATOM      1  N   UNL     1      33.356 -14.014 -25.549  0.00  0.00    -0.247 N 
ATOM      2  N   UNL     1      34.666 -15.252 -24.047  0.00  0.00    -0.300 NA
ATOM      3  N   UNL     1      33.102 -16.347 -25.518  0.00  0.00    -0.170 NA
ATOM      4  C   UNL     1      33.726 -15.266 -25.011  0.00  0.00    +0.152 C 
ATOM      5  C   UNL     1      34.995 -16.465 -23.555  0.00  0.00    +0.295 C 
ATOM      6  C   UNL     1      34.430 -17.647 -23.988  0.00  0.00    +0.094 C 
ATOM      7  C   UNL     1      33.479 -17.526 -24.981  0.00  0.00    +0.118 C 
ATOM      8  H   UNL     1      32.667 -14.072 -26.251  0.00  0.00    +0.165 HD
ENDROOT
BRANCH   1  12
ATOM      9  C   UNL     1      34.043 -10.861 -23.735  0.00  0.00    +0.004 C 
ATOM     10  C   UNL     1      33.623 -12.163 -24.001  0.00  0.00    +0.013 C 
ATOM     11  C   UNL     1      34.619 -10.093 -24.747  0.00  0.00    -0.002 C 
ATOM     12  C   UNL     1      33.779 -12.699 -25.279  0.00  0.00    +0.057 C 
ATOM     13  C   UNL     1      34.775 -10.628 -26.026  0.00  0.00    +0.001 C 
ATOM     14  C   UNL     1      34.355 -11.932 -26.292  0.00  0.00    +0.015 C 
BRANCH   9  15
ATOM     15  C   UNL     1      33.876 -10.288 -22.368  0.00  0.00    +0.195 C 
BRANCH  15  16
ATOM     16  S   UNL     1      33.051  -8.737 -22.526  0.00  0.00    +0.045 S 
ATOM     17  O   UNL     1      33.945  -7.690 -22.062  0.00  0.00    -0.157 OA
ATOM     18  O   UNL     1      32.476  -8.670 -23.861  0.00  0.00    -0.157 OA
BRANCH  16  19
ATOM     19  N   UNL     1      31.772  -8.931 -21.406  0.00  0.00    -0.185 NA
ATOM     20  H   UNL     1      31.057  -8.245 -21.648  0.00  0.00    +0.148 HD
BRANCH  19  21
ATOM     21  C   UNL     1      31.100 -10.239 -21.309  0.00  0.00    +0.068 C 
BRANCH  21  22
ATOM     22  C   UNL     1      30.648 -10.467 -19.874  0.00  0.00    -0.058 C 
BRANCH  22  23
ATOM     23  N   UNL     1      31.777 -10.876 -19.047  0.00  0.00    +0.385 N 
ATOM     24  C   UNL     1      31.473 -10.683 -17.628  0.00  0.00    -0.101 C 
ATOM     25  C   UNL     1      32.126 -12.274 -19.306  0.00  0.00    -0.101 C 
ATOM     26  H   UNL     1      32.577 -10.292 -19.290  0.00  0.00    -0.080 HD
ENDBRANCH  22  23
ENDBRANCH  21  22
ENDBRANCH  19  21
ENDBRANCH  16  19
ENDBRANCH  15  16
ENDBRANCH   9  15
ENDBRANCH   1  12
BRANCH   5  27
ATOM     27  O   UNL     1      35.958 -16.502 -22.561  0.00  0.00    -0.427 OA
BRANCH  27  35
ATOM     28  N   UNL     1      35.494 -20.638 -18.992  0.00  0.00    -0.316 N 
ATOM     29  C   UNL     1      34.616 -19.119 -20.370  0.00  0.00    +0.017 C 
ATOM     30  C   UNL     1      35.816 -19.618 -19.858  0.00  0.00    +0.048 C 
ATOM     31  C   UNL     1      34.136 -20.800 -18.937  0.00  0.00    +0.026 C 
ATOM     32  C   UNL     1      33.565 -19.874 -19.779  0.00  0.00    +0.012 C 
ATOM     33  C   UNL     1      34.662 -18.055 -21.292  0.00  0.00    +0.039 C 
ATOM     34  C   UNL     1      37.065 -19.105 -20.226  0.00  0.00    +0.018 C 
ATOM     35  C   UNL     1      35.905 -17.531 -21.669  0.00  0.00    +0.148 C 
ATOM     36  C   UNL     1      37.086 -18.049 -21.142  0.00  0.00    +0.039 C 
ATOM     37  C   UNL     1      33.521 -21.829 -18.079  0.00  0.00    +0.047 C 
ATOM     38  H   UNL     1      36.147 -21.174 -18.484  0.00  0.00    +0.152 HD
ENDBRANCH  27  35
ENDBRANCH   5  27
TORSDOF 9
ENDMDL
