MODEL 1
REMARK VINA RESULT:     -11.9      0.000      0.000
REMARK  Name = 21302490
REMARK  5 active torsions:
REMARK  status: ('A' for Active; 'I' for Inactive)
REMARK    1  A    between atoms: N_2  and  C_19
REMARK    2  A    between atoms: C_19  and  C_20
REMARK    3  A    between atoms: C_20  and  C_21
REMARK    4  A    between atoms: C_21  and  C_23
REMARK    5  A    between atoms: C_23  and  C_25
REMARK                            x       y       z     vdW  Elec       q    Type
REMARK                         _______ _______ _______ _____ _____    ______ ____
ROOT
ATOM      1  N   UNL     1      32.878 -10.684 -21.914  0.00  0.00    -0.307 N 
ATOM      2  N   UNL     1      34.012 -14.284 -21.307  0.00  0.00    +0.387 N 
ATOM      3  N   UNL     1      32.763  -7.984 -20.979  0.00  0.00    -0.303 N 
ATOM      4  C   UNL     1      32.329 -12.026 -22.143  0.00  0.00    +0.073 C 
ATOM      5  C   UNL     1      32.206 -12.674 -20.724  0.00  0.00    +0.021 C 
ATOM      6  C   UNL     1      33.159 -12.857 -23.115  0.00  0.00    -0.003 C 
ATOM      7  C   UNL     1      33.473 -13.409 -20.261  0.00  0.00    -0.071 C 
ATOM      8  C   UNL     1      31.995 -11.440 -19.893  0.00  0.00    -0.008 C 
ATOM      9  C   UNL     1      32.416 -10.330 -20.631  0.00  0.00    +0.057 C 
ATOM     10  C   UNL     1      34.395 -13.486 -22.479  0.00  0.00    -0.076 C 
ATOM     11  C   UNL     1      32.856  -9.598 -22.873  0.00  0.00    +0.112 C 
ATOM     12  C   UNL     1      32.367  -9.024 -20.148  0.00  0.00    +0.061 C 
ATOM     13  C   UNL     1      33.455  -8.337 -22.229  0.00  0.00    +0.112 C 
ATOM     14  C   UNL     1      31.515 -11.291 -18.610  0.00  0.00    -0.003 C 
ATOM     15  C   UNL     1      31.869  -8.881 -18.845  0.00  0.00    +0.016 C 
ATOM     16  C   UNL     1      31.453  -9.997 -18.088  0.00  0.00    +0.001 C 
ATOM     17  C   UNL     1      32.857  -6.621 -20.489  0.00  0.00    +0.112 C 
ATOM     18  H   UNL     1      33.292 -14.953 -21.582  0.00  0.00    -0.080 HD
ENDROOT
BRANCH   2  19
ATOM     19  C   UNL     1      35.167 -15.028 -20.801  0.00  0.00    -0.077 C 
BRANCH  19  20
ATOM     20  C   UNL     1      35.554 -16.136 -21.783  0.00  0.00    -0.015 C 
BRANCH  20  21
ATOM     21  C   UNL     1      36.016 -17.410 -21.069  0.00  0.00    +0.067 C 
BRANCH  21  23
ATOM     22  O   UNL     1      34.533 -18.789 -22.382  0.00  0.00    -0.291 OA
ATOM     23  C   UNL     1      35.101 -18.602 -21.309  0.00  0.00    +0.173 C 
BRANCH  23  25
ATOM     24  F   UNL     1      34.376 -22.309 -17.148  0.00  0.00    -0.204 F 
ATOM     25  C   UNL     1      34.909 -19.587 -20.205  0.00  0.00    +0.035 C 
ATOM     26  C   UNL     1      36.016 -20.121 -19.547  0.00  0.00    +0.005 C 
ATOM     27  C   UNL     1      33.622 -19.972 -19.830  0.00  0.00    +0.005 C 
ATOM     28  C   UNL     1      35.837 -21.041 -18.514  0.00  0.00    +0.030 C 
ATOM     29  C   UNL     1      33.441 -20.892 -18.798  0.00  0.00    +0.030 C 
ATOM     30  C   UNL     1      34.549 -21.426 -18.139  0.00  0.00    +0.140 C 
ENDBRANCH  23  25
ENDBRANCH  21  23
ENDBRANCH  20  21
ENDBRANCH  19  20
ENDBRANCH   2  19
TORSDOF 5
ENDMDL
MODEL 2
REMARK VINA RESULT:     -11.6      1.238      1.792
REMARK  Name = 21302490
REMARK  5 active torsions:
REMARK  status: ('A' for Active; 'I' for Inactive)
REMARK    1  A    between atoms: N_2  and  C_19
REMARK    2  A    between atoms: C_19  and  C_20
REMARK    3  A    between atoms: C_20  and  C_21
REMARK    4  A    between atoms: C_21  and  C_23
REMARK    5  A    between atoms: C_23  and  C_25
REMARK                            x       y       z     vdW  Elec       q    Type
REMARK                         _______ _______ _______ _____ _____    ______ ____
ROOT
ATOM      1  N   UNL     1      33.878 -11.309 -23.488  0.00  0.00    -0.307 N 
ATOM      2  N   UNL     1      34.234 -14.364 -21.216  0.00  0.00    +0.387 N 
ATOM      3  N   UNL     1      34.064  -8.472 -23.789  0.00  0.00    -0.303 N 
ATOM      4  C   UNL     1      33.155 -12.570 -23.277  0.00  0.00    +0.073 C 
ATOM      5  C   UNL     1      32.661 -12.524 -21.794  0.00  0.00    +0.021 C 
ATOM      6  C   UNL     1      33.993 -13.804 -23.596  0.00  0.00    -0.003 C 
ATOM      7  C   UNL     1      33.672 -13.082 -20.780  0.00  0.00    -0.071 C 
ATOM      8  C   UNL     1      32.518 -11.040 -21.614  0.00  0.00    -0.008 C 
ATOM      9  C   UNL     1      33.256 -10.397 -22.612  0.00  0.00    +0.057 C 
ATOM     10  C   UNL     1      34.961 -14.188 -22.481  0.00  0.00    -0.076 C 
ATOM     11  C   UNL     1      34.223 -10.751 -24.779  0.00  0.00    +0.112 C 
ATOM     12  C   UNL     1      33.346  -9.012 -22.729  0.00  0.00    +0.061 C 
ATOM     13  C   UNL     1      34.903  -9.387 -24.579  0.00  0.00    +0.112 C 
ATOM     14  C   UNL     1      31.842 -10.310 -20.659  0.00  0.00    -0.003 C 
ATOM     15  C   UNL     1      32.648  -8.278 -21.760  0.00  0.00    +0.016 C 
ATOM     16  C   UNL     1      31.911  -8.918 -20.740  0.00  0.00    +0.001 C 
ATOM     17  C   UNL     1      34.302  -7.043 -23.887  0.00  0.00    +0.112 C 
ATOM     18  H   UNL     1      33.473 -15.027 -21.362  0.00  0.00    -0.080 HD
ENDROOT
BRANCH   2  19
ATOM     19  C   UNL     1      35.128 -14.902 -20.189  0.00  0.00    -0.077 C 
BRANCH  19  20
ATOM     20  C   UNL     1      34.975 -16.422 -20.098  0.00  0.00    -0.015 C 
BRANCH  20  21
ATOM     21  C   UNL     1      35.771 -17.152 -21.184  0.00  0.00    +0.067 C 
BRANCH  21  23
ATOM     22  O   UNL     1      34.967 -18.876 -22.669  0.00  0.00    -0.291 OA
ATOM     23  C   UNL     1      35.215 -18.529 -21.517  0.00  0.00    +0.173 C 
BRANCH  23  25
ATOM     24  F   UNL     1      34.357 -22.164 -17.317  0.00  0.00    -0.204 F 
ATOM     25  C   UNL     1      34.988 -19.495 -20.403  0.00  0.00    +0.035 C 
ATOM     26  C   UNL     1      36.075 -20.074 -19.749  0.00  0.00    +0.005 C 
ATOM     27  C   UNL     1      33.688 -19.817 -20.014  0.00  0.00    +0.005 C 
ATOM     28  C   UNL     1      35.862 -20.976 -18.706  0.00  0.00    +0.030 C 
ATOM     29  C   UNL     1      33.474 -20.718 -18.971  0.00  0.00    +0.030 C 
ATOM     30  C   UNL     1      34.561 -21.297 -18.318  0.00  0.00    +0.140 C 
ENDBRANCH  23  25
ENDBRANCH  21  23
ENDBRANCH  20  21
ENDBRANCH  19  20
ENDBRANCH   2  19
TORSDOF 5
ENDMDL
MODEL 3
REMARK VINA RESULT:     -11.0      4.467      9.646
REMARK  Name = 21302490
REMARK  5 active torsions:
REMARK  status: ('A' for Active; 'I' for Inactive)
REMARK    1  A    between atoms: N_2  and  C_19
REMARK    2  A    between atoms: C_19  and  C_20
REMARK    3  A    between atoms: C_20  and  C_21
REMARK    4  A    between atoms: C_21  and  C_23
REMARK    5  A    between atoms: C_23  and  C_25
REMARK                            x       y       z     vdW  Elec       q    Type
REMARK                         _______ _______ _______ _____ _____    ______ ____
ROOT
ATOM      1  N   UNL     1      34.285 -14.721 -23.234  0.00  0.00    -0.307 N 
ATOM      2  N   UNL     1      32.892 -12.334 -20.592  0.00  0.00    +0.387 N 
ATOM      3  N   UNL     1      34.557 -17.406 -24.179  0.00  0.00    -0.303 N 
ATOM      4  C   UNL     1      34.748 -13.512 -22.540  0.00  0.00    +0.073 C 
ATOM      5  C   UNL     1      34.786 -13.890 -21.023  0.00  0.00    +0.021 C 
ATOM      6  C   UNL     1      33.892 -12.285 -22.835  0.00  0.00    -0.003 C 
ATOM      7  C   UNL     1      33.459 -13.651 -20.286  0.00  0.00    -0.071 C 
ATOM      8  C   UNL     1      35.056 -15.364 -21.130  0.00  0.00    -0.008 C 
ATOM      9  C   UNL     1      34.733 -15.783 -22.423  0.00  0.00    +0.057 C 
ATOM     10  C   UNL     1      32.598 -12.236 -22.028  0.00  0.00    -0.076 C 
ATOM     11  C   UNL     1      34.409 -14.966 -24.656  0.00  0.00    +0.112 C 
ATOM     12  C   UNL     1      34.857 -17.101 -22.857  0.00  0.00    +0.061 C 
ATOM     13  C   UNL     1      33.879 -16.373 -24.977  0.00  0.00    +0.112 C 
ATOM     14  C   UNL     1      35.508 -16.266 -20.191  0.00  0.00    -0.003 C 
ATOM     15  C   UNL     1      35.327 -18.010 -21.898  0.00  0.00    +0.016 C 
ATOM     16  C   UNL     1      35.644 -17.599 -20.585  0.00  0.00    +0.001 C 
ATOM     17  C   UNL     1      34.542 -18.778 -24.651  0.00  0.00    +0.112 C 
ATOM     18  H   UNL     1      33.572 -11.615 -20.344  0.00  0.00    -0.080 HD
ENDROOT
BRANCH   2  19
ATOM     19  C   UNL     1      31.675 -12.111 -19.809  0.00  0.00    -0.077 C 
BRANCH  19  20
ATOM     20  C   UNL     1      31.917 -11.033 -18.751  0.00  0.00    -0.015 C 
BRANCH  20  21
ATOM     21  C   UNL     1      31.231  -9.709 -19.101  0.00  0.00    +0.067 C 
BRANCH  21  23
ATOM     22  O   UNL     1      32.997  -8.201 -18.445  0.00  0.00    -0.291 OA
ATOM     23  C   UNL     1      32.207  -8.561 -19.314  0.00  0.00    +0.173 C 
BRANCH  23  25
ATOM     24  F   UNL     1      32.230  -5.943 -24.287  0.00  0.00    -0.204 F 
ATOM     25  C   UNL     1      32.214  -7.866 -20.634  0.00  0.00    +0.035 C 
ATOM     26  C   UNL     1      31.988  -8.591 -21.804  0.00  0.00    +0.005 C 
ATOM     27  C   UNL     1      32.444  -6.492 -20.698  0.00  0.00    +0.005 C 
ATOM     28  C   UNL     1      31.993  -7.941 -23.039  0.00  0.00    +0.030 C 
ATOM     29  C   UNL     1      32.450  -5.842 -21.932  0.00  0.00    +0.030 C 
ATOM     30  C   UNL     1      32.224  -6.567 -23.102  0.00  0.00    +0.140 C 
ENDBRANCH  23  25
ENDBRANCH  21  23
ENDBRANCH  20  21
ENDBRANCH  19  20
ENDBRANCH   2  19
TORSDOF 5
ENDMDL
MODEL 4
REMARK VINA RESULT:     -10.7      4.642      9.878
REMARK  Name = 21302490
REMARK  5 active torsions:
REMARK  status: ('A' for Active; 'I' for Inactive)
REMARK    1  A    between atoms: N_2  and  C_19
REMARK    2  A    between atoms: C_19  and  C_20
REMARK    3  A    between atoms: C_20  and  C_21
REMARK    4  A    between atoms: C_21  and  C_23
REMARK    5  A    between atoms: C_23  and  C_25
REMARK                            x       y       z     vdW  Elec       q    Type
REMARK                         _______ _______ _______ _____ _____    ______ ____
ROOT
ATOM      1  N   UNL     1      33.893 -13.520 -21.714  0.00  0.00    -0.307 N 
ATOM      2  N   UNL     1      33.862 -10.419 -23.949  0.00  0.00    +0.387 N 
ATOM      3  N   UNL     1      35.178 -15.963 -20.969  0.00  0.00    -0.303 N 
ATOM      4  C   UNL     1      32.878 -12.723 -22.415  0.00  0.00    +0.073 C 
ATOM      5  C   UNL     1      33.240 -12.829 -23.933  0.00  0.00    +0.021 C 
ATOM      6  C   UNL     1      32.793 -11.285 -21.914  0.00  0.00    -0.003 C 
ATOM      7  C   UNL     1      34.231 -11.759 -24.416  0.00  0.00    -0.071 C 
ATOM      8  C   UNL     1      33.894 -14.181 -23.950  0.00  0.00    -0.008 C 
ATOM      9  C   UNL     1      34.260 -14.515 -22.643  0.00  0.00    +0.057 C 
ATOM     10  C   UNL     1      33.880 -10.376 -22.481  0.00  0.00    -0.076 C 
ATOM     11  C   UNL     1      33.786 -13.994 -20.350  0.00  0.00    +0.112 C 
ATOM     12  C   UNL     1      34.902 -15.704 -22.306  0.00  0.00    +0.061 C 
ATOM     13  C   UNL     1      35.013 -14.858 -20.013  0.00  0.00    +0.112 C 
ATOM     14  C   UNL     1      34.177 -15.030 -24.998  0.00  0.00    -0.003 C 
ATOM     15  C   UNL     1      35.177 -16.566 -23.376  0.00  0.00    +0.016 C 
ATOM     16  C   UNL     1      34.823 -16.232 -24.701  0.00  0.00    +0.001 C 
ATOM     17  C   UNL     1      35.959 -17.121 -20.572  0.00  0.00    +0.112 C 
ATOM     18  H   UNL     1      32.919 -10.204 -24.275  0.00  0.00    -0.080 HD
ENDROOT
BRANCH   2  19
ATOM     19  C   UNL     1      34.780  -9.419 -24.497  0.00  0.00    -0.077 C 
BRANCH  19  20
ATOM     20  C   UNL     1      35.081  -8.347 -23.448  0.00  0.00    -0.015 C 
BRANCH  20  21
ATOM     21  C   UNL     1      34.328  -7.041 -23.719  0.00  0.00    +0.067 C 
BRANCH  21  23
ATOM     22  O   UNL     1      31.942  -7.396 -23.669  0.00  0.00    -0.291 OA
ATOM     23  C   UNL     1      32.946  -6.999 -23.084  0.00  0.00    +0.173 C 
BRANCH  23  25
ATOM     24  F   UNL     1      32.448  -5.031 -17.843  0.00  0.00    -0.204 F 
ATOM     25  C   UNL     1      32.815  -6.476 -21.693  0.00  0.00    +0.035 C 
ATOM     26  C   UNL     1      32.340  -5.183 -21.476  0.00  0.00    +0.005 C 
ATOM     27  C   UNL     1      33.165  -7.281 -20.609  0.00  0.00    +0.005 C 
ATOM     28  C   UNL     1      32.216  -4.694 -20.175  0.00  0.00    +0.030 C 
ATOM     29  C   UNL     1      33.042  -6.793 -19.309  0.00  0.00    +0.030 C 
ATOM     30  C   UNL     1      32.567  -5.500 -19.092  0.00  0.00    +0.140 C 
ENDBRANCH  23  25
ENDBRANCH  21  23
ENDBRANCH  20  21
ENDBRANCH  19  20
ENDBRANCH   2  19
TORSDOF 5
ENDMDL
MODEL 5
REMARK VINA RESULT:     -10.6      5.978     10.927
REMARK  Name = 21302490
REMARK  5 active torsions:
REMARK  status: ('A' for Active; 'I' for Inactive)
REMARK    1  A    between atoms: N_2  and  C_19
REMARK    2  A    between atoms: C_19  and  C_20
REMARK    3  A    between atoms: C_20  and  C_21
REMARK    4  A    between atoms: C_21  and  C_23
REMARK    5  A    between atoms: C_23  and  C_25
REMARK                            x       y       z     vdW  Elec       q    Type
REMARK                         _______ _______ _______ _____ _____    ______ ____
ROOT
ATOM      1  N   UNL     1      32.486 -11.266 -20.876  0.00  0.00    -0.307 N 
ATOM      2  N   UNL     1      32.260  -7.701 -19.514  0.00  0.00    +0.387 N 
ATOM      3  N   UNL     1      34.001 -13.232 -22.297  0.00  0.00    -0.303 N 
ATOM      4  C   UNL     1      31.445 -10.238 -20.752  0.00  0.00    +0.073 C 
ATOM      5  C   UNL     1      31.954  -9.025 -21.599  0.00  0.00    +0.021 C 
ATOM      6  C   UNL     1      31.131  -9.873 -19.305  0.00  0.00    -0.003 C 
ATOM      7  C   UNL     1      32.840  -8.044 -20.816  0.00  0.00    -0.071 C 
ATOM      8  C   UNL     1      32.776  -9.753 -22.625  0.00  0.00    -0.008 C 
ATOM      9  C   UNL     1      33.061 -11.032 -22.141  0.00  0.00    +0.057 C 
ATOM     10  C   UNL     1      32.139  -8.909 -18.686  0.00  0.00    -0.076 C 
ATOM     11  C   UNL     1      32.317 -12.668 -20.552  0.00  0.00    +0.112 C 
ATOM     12  C   UNL     1      33.817 -11.968 -22.844  0.00  0.00    +0.061 C 
ATOM     13  C   UNL     1      33.608 -13.429 -20.893  0.00  0.00    +0.112 C 
ATOM     14  C   UNL     1      33.260  -9.339 -23.848  0.00  0.00    -0.003 C 
ATOM     15  C   UNL     1      34.297 -11.543 -24.091  0.00  0.00    +0.016 C 
ATOM     16  C   UNL     1      34.025 -10.248 -24.582  0.00  0.00    +0.001 C 
ATOM     17  C   UNL     1      34.884 -14.201 -22.919  0.00  0.00    +0.112 C 
ATOM     18  H   UNL     1      31.331  -7.306 -19.659  0.00  0.00    -0.080 HD
ENDROOT
BRANCH   2  19
ATOM     19  C   UNL     1      33.089  -6.703 -18.835  0.00  0.00    -0.077 C 
BRANCH  19  20
ATOM     20  C   UNL     1      32.339  -5.374 -18.733  0.00  0.00    -0.015 C 
BRANCH  20  21
ATOM     21  C   UNL     1      32.619  -4.455 -19.926  0.00  0.00    +0.067 C 
BRANCH  21  23
ATOM     22  O   UNL     1      30.306  -4.383 -20.611  0.00  0.00    -0.291 OA
ATOM     23  C   UNL     1      31.488  -4.425 -20.944  0.00  0.00    +0.173 C 
BRANCH  23  25
ATOM     24  F   UNL     1      32.785  -4.416 -26.412  0.00  0.00    -0.204 F 
ATOM     25  C   UNL     1      31.834  -4.423 -22.395  0.00  0.00    +0.035 C 
ATOM     26  C   UNL     1      31.777  -5.608 -23.127  0.00  0.00    +0.005 C 
ATOM     27  C   UNL     1      32.211  -3.234 -23.020  0.00  0.00    +0.005 C 
ATOM     28  C   UNL     1      32.099  -5.607 -24.484  0.00  0.00    +0.030 C 
ATOM     29  C   UNL     1      32.533  -3.232 -24.377  0.00  0.00    +0.030 C 
ATOM     30  C   UNL     1      32.476  -4.418 -25.109  0.00  0.00    +0.140 C 
ENDBRANCH  23  25
ENDBRANCH  21  23
ENDBRANCH  20  21
ENDBRANCH  19  20
ENDBRANCH   2  19
TORSDOF 5
ENDMDL
MODEL 6
REMARK VINA RESULT:     -10.3      4.249      9.265
REMARK  Name = 21302490
REMARK  5 active torsions:
REMARK  status: ('A' for Active; 'I' for Inactive)
REMARK    1  A    between atoms: N_2  and  C_19
REMARK    2  A    between atoms: C_19  and  C_20
REMARK    3  A    between atoms: C_20  and  C_21
REMARK    4  A    between atoms: C_21  and  C_23
REMARK    5  A    between atoms: C_23  and  C_25
REMARK                            x       y       z     vdW  Elec       q    Type
REMARK                         _______ _______ _______ _____ _____    ______ ____
ROOT
ATOM      1  N   UNL     1      34.454 -15.014 -23.395  0.00  0.00    -0.307 N 
ATOM      2  N   UNL     1      33.085 -12.297 -21.080  0.00  0.00    +0.387 N 
ATOM      3  N   UNL     1      34.626 -17.794 -24.040  0.00  0.00    -0.303 N 
ATOM      4  C   UNL     1      34.951 -13.761 -22.814  0.00  0.00    +0.073 C 
ATOM      5  C   UNL     1      34.913 -13.976 -21.265  0.00  0.00    +0.021 C 
ATOM      6  C   UNL     1      34.170 -12.534 -23.272  0.00  0.00    -0.003 C 
ATOM      7  C   UNL     1      33.573 -13.598 -20.614  0.00  0.00    -0.071 C 
ATOM      8  C   UNL     1      35.113 -15.463 -21.204  0.00  0.00    -0.008 C 
ATOM      9  C   UNL     1      34.817 -16.003 -22.459  0.00  0.00    +0.057 C 
ATOM     10  C   UNL     1      32.851 -12.339 -22.530  0.00  0.00    -0.076 C 
ATOM     11  C   UNL     1      34.619 -15.416 -24.777  0.00  0.00    +0.112 C 
ATOM     12  C   UNL     1      34.891 -17.365 -22.746  0.00  0.00    +0.061 C 
ATOM     13  C   UNL     1      34.031 -16.823 -24.971  0.00  0.00    +0.112 C 
ATOM     14  C   UNL     1      35.483 -16.280 -20.157  0.00  0.00    -0.003 C 
ATOM     15  C   UNL     1      35.278 -18.186 -21.678  0.00  0.00    +0.016 C 
ATOM     16  C   UNL     1      35.566 -17.652 -20.404  0.00  0.00    +0.001 C 
ATOM     17  C   UNL     1      34.559 -19.207 -24.366  0.00  0.00    +0.112 C 
ATOM     18  H   UNL     1      33.791 -11.587 -20.880  0.00  0.00    -0.080 HD
ENDROOT
BRANCH   2  19
ATOM     19  C   UNL     1      31.853 -11.935 -20.378  0.00  0.00    -0.077 C 
BRANCH  19  20
ATOM     20  C   UNL     1      31.239 -10.679 -20.998  0.00  0.00    -0.015 C 
BRANCH  20  21
ATOM     21  C   UNL     1      32.139  -9.450 -20.837  0.00  0.00    +0.067 C 
BRANCH  21  23
ATOM     22  O   UNL     1      31.238  -7.799 -22.348  0.00  0.00    -0.291 OA
ATOM     23  C   UNL     1      32.165  -8.554 -22.067  0.00  0.00    +0.173 C 
BRANCH  23  25
ATOM     24  F   UNL     1      36.708  -8.665 -25.373  0.00  0.00    -0.204 F 
ATOM     25  C   UNL     1      33.370  -8.583 -22.945  0.00  0.00    +0.035 C 
ATOM     26  C   UNL     1      34.487  -7.812 -22.621  0.00  0.00    +0.005 C 
ATOM     27  C   UNL     1      33.381  -9.381 -24.088  0.00  0.00    +0.005 C 
ATOM     28  C   UNL     1      35.615  -7.840 -23.441  0.00  0.00    +0.030 C 
ATOM     29  C   UNL     1      34.509  -9.409 -24.909  0.00  0.00    +0.030 C 
ATOM     30  C   UNL     1      35.625  -8.639 -24.585  0.00  0.00    +0.140 C 
ENDBRANCH  23  25
ENDBRANCH  21  23
ENDBRANCH  20  21
ENDBRANCH  19  20
ENDBRANCH   2  19
TORSDOF 5
ENDMDL
MODEL 7
REMARK VINA RESULT:     -10.2      2.189      3.775
REMARK  Name = 21302490
REMARK  5 active torsions:
REMARK  status: ('A' for Active; 'I' for Inactive)
REMARK    1  A    between atoms: N_2  and  C_19
REMARK    2  A    between atoms: C_19  and  C_20
REMARK    3  A    between atoms: C_20  and  C_21
REMARK    4  A    between atoms: C_21  and  C_23
REMARK    5  A    between atoms: C_23  and  C_25
REMARK                            x       y       z     vdW  Elec       q    Type
REMARK                         _______ _______ _______ _____ _____    ______ ____
ROOT
ATOM      1  N   UNL     1      32.730  -9.755 -22.447  0.00  0.00    -0.307 N 
ATOM      2  N   UNL     1      33.653 -13.232 -23.742  0.00  0.00    +0.387 N 
ATOM      3  N   UNL     1      32.201  -7.007 -23.033  0.00  0.00    -0.303 N 
ATOM      4  C   UNL     1      33.572 -10.871 -21.996  0.00  0.00    +0.073 C 
ATOM      5  C   UNL     1      34.660 -11.046 -23.106  0.00  0.00    +0.021 C 
ATOM      6  C   UNL     1      32.783 -12.145 -21.718  0.00  0.00    -0.003 C 
ATOM      7  C   UNL     1      34.243 -11.988 -24.246  0.00  0.00    -0.071 C 
ATOM      8  C   UNL     1      34.746  -9.635 -23.611  0.00  0.00    -0.008 C 
ATOM      9  C   UNL     1      33.596  -8.948 -23.210  0.00  0.00    +0.057 C 
ATOM     10  C   UNL     1      32.435 -12.934 -22.976  0.00  0.00    -0.076 C 
ATOM     11  C   UNL     1      31.811  -9.012 -21.609  0.00  0.00    +0.112 C 
ATOM     12  C   UNL     1      33.352  -7.612 -23.523  0.00  0.00    +0.061 C 
ATOM     13  C   UNL     1      31.179  -7.877 -22.430  0.00  0.00    +0.112 C 
ATOM     14  C   UNL     1      35.709  -9.008 -24.373  0.00  0.00    -0.003 C 
ATOM     15  C   UNL     1      34.341  -6.981 -24.289  0.00  0.00    +0.016 C 
ATOM     16  C   UNL     1      35.499  -7.670 -24.710  0.00  0.00    +0.001 C 
ATOM     17  C   UNL     1      31.829  -5.662 -23.432  0.00  0.00    +0.112 C 
ATOM     18  H   UNL     1      34.325 -13.692 -23.127  0.00  0.00    -0.080 HD
ENDROOT
BRANCH   2  19
ATOM     19  C   UNL     1      33.346 -14.136 -24.852  0.00  0.00    -0.077 C 
BRANCH  19  20
ATOM     20  C   UNL     1      34.414 -15.227 -24.956  0.00  0.00    -0.015 C 
BRANCH  20  21
ATOM     21  C   UNL     1      34.830 -15.767 -23.585  0.00  0.00    +0.067 C 
BRANCH  21  23
ATOM     22  O   UNL     1      34.208 -17.969 -24.351  0.00  0.00    -0.291 OA
ATOM     23  C   UNL     1      34.729 -17.282 -23.477  0.00  0.00    +0.173 C 
BRANCH  23  25
ATOM     24  F   UNL     1      36.899 -19.799 -18.945  0.00  0.00    -0.204 F 
ATOM     25  C   UNL     1      35.306 -17.951 -22.275  0.00  0.00    +0.035 C 
ATOM     26  C   UNL     1      36.620 -17.685 -21.892  0.00  0.00    +0.005 C 
ATOM     27  C   UNL     1      34.530 -18.841 -21.533  0.00  0.00    +0.005 C 
ATOM     28  C   UNL     1      37.159 -18.309 -20.767  0.00  0.00    +0.030 C 
ATOM     29  C   UNL     1      35.068 -19.466 -20.408  0.00  0.00    +0.030 C 
ATOM     30  C   UNL     1      36.382 -19.200 -20.025  0.00  0.00    +0.140 C 
ENDBRANCH  23  25
ENDBRANCH  21  23
ENDBRANCH  20  21
ENDBRANCH  19  20
ENDBRANCH   2  19
TORSDOF 5
ENDMDL
MODEL 8
REMARK VINA RESULT:     -10.1      2.688      3.368
REMARK  Name = 21302490
REMARK  5 active torsions:
REMARK  status: ('A' for Active; 'I' for Inactive)
REMARK    1  A    between atoms: N_2  and  C_19
REMARK    2  A    between atoms: C_19  and  C_20
REMARK    3  A    between atoms: C_20  and  C_21
REMARK    4  A    between atoms: C_21  and  C_23
REMARK    5  A    between atoms: C_23  and  C_25
REMARK                            x       y       z     vdW  Elec       q    Type
REMARK                         _______ _______ _______ _____ _____    ______ ____
ROOT
ATOM      1  N   UNL     1      32.972 -10.570 -21.941  0.00  0.00    -0.307 N 
ATOM      2  N   UNL     1      34.069 -14.134 -21.099  0.00  0.00    +0.387 N 
ATOM      3  N   UNL     1      32.751  -7.839 -21.121  0.00  0.00    -0.303 N 
ATOM      4  C   UNL     1      32.456 -11.925 -22.170  0.00  0.00    +0.073 C 
ATOM      5  C   UNL     1      32.205 -12.522 -20.747  0.00  0.00    +0.021 C 
ATOM      6  C   UNL     1      33.378 -12.782 -23.030  0.00  0.00    -0.003 C 
ATOM      7  C   UNL     1      33.429 -13.228 -20.141  0.00  0.00    -0.071 C 
ATOM      8  C   UNL     1      31.910 -11.262 -19.985  0.00  0.00    -0.008 C 
ATOM      9  C   UNL     1      32.390 -10.174 -20.720  0.00  0.00    +0.057 C 
ATOM     10  C   UNL     1      34.554 -13.375 -22.260  0.00  0.00    -0.076 C 
ATOM     11  C   UNL     1      33.031  -9.520 -22.937  0.00  0.00    +0.112 C 
ATOM     12  C   UNL     1      32.287  -8.852 -20.292  0.00  0.00    +0.061 C 
ATOM     13  C   UNL     1      33.559  -8.230 -22.287  0.00  0.00    +0.112 C 
ATOM     14  C   UNL     1      31.311 -11.072 -18.758  0.00  0.00    -0.003 C 
ATOM     15  C   UNL     1      31.668  -8.668 -19.048  0.00  0.00    +0.016 C 
ATOM     16  C   UNL     1      31.191  -9.760 -18.292  0.00  0.00    +0.001 C 
ATOM     17  C   UNL     1      32.790  -6.458 -20.674  0.00  0.00    +0.112 C 
ATOM     18  H   UNL     1      33.383 -14.819 -21.416  0.00  0.00    -0.080 HD
ENDROOT
BRANCH   2  19
ATOM     19  C   UNL     1      35.177 -14.848 -20.461  0.00  0.00    -0.077 C 
BRANCH  19  20
ATOM     20  C   UNL     1      34.779 -16.298 -20.177  0.00  0.00    -0.015 C 
BRANCH  20  21
ATOM     21  C   UNL     1      35.977 -17.250 -20.225  0.00  0.00    +0.067 C 
BRANCH  21  23
ATOM     22  O   UNL     1      37.648 -17.762 -21.890  0.00  0.00    -0.291 OA
ATOM     23  C   UNL     1      36.467 -17.533 -21.637  0.00  0.00    +0.173 C 
BRANCH  23  25
ATOM     24  F   UNL     1      32.709 -17.616 -25.815  0.00  0.00    -0.204 F 
ATOM     25  C   UNL     1      35.471 -17.556 -22.747  0.00  0.00    +0.035 C 
ATOM     26  C   UNL     1      34.723 -18.708 -22.989  0.00  0.00    +0.005 C 
ATOM     27  C   UNL     1      35.285 -16.424 -23.541  0.00  0.00    +0.005 C 
ATOM     28  C   UNL     1      33.790 -18.729 -24.026  0.00  0.00    +0.030 C 
ATOM     29  C   UNL     1      34.353 -16.444 -24.578  0.00  0.00    +0.030 C 
ATOM     30  C   UNL     1      33.605 -17.596 -24.820  0.00  0.00    +0.140 C 
ENDBRANCH  23  25
ENDBRANCH  21  23
ENDBRANCH  20  21
ENDBRANCH  19  20
ENDBRANCH   2  19
TORSDOF 5
ENDMDL
MODEL 9
REMARK VINA RESULT:     -10.1      7.656     12.700
REMARK  Name = 21302490
REMARK  5 active torsions:
REMARK  status: ('A' for Active; 'I' for Inactive)
REMARK    1  A    between atoms: N_2  and  C_19
REMARK    2  A    between atoms: C_19  and  C_20
REMARK    3  A    between atoms: C_20  and  C_21
REMARK    4  A    between atoms: C_21  and  C_23
REMARK    5  A    between atoms: C_23  and  C_25
REMARK                            x       y       z     vdW  Elec       q    Type
REMARK                         _______ _______ _______ _____ _____    ______ ____
ROOT
ATOM      1  N   UNL     1      35.635 -23.352 -12.461  0.00  0.00    -0.307 N 
ATOM      2  N   UNL     1      33.140 -23.222 -15.354  0.00  0.00    +0.387 N 
ATOM      3  N   UNL     1      38.338 -23.074 -11.571  0.00  0.00    -0.303 N 
ATOM      4  C   UNL     1      34.458 -24.119 -12.887  0.00  0.00    +0.073 C 
ATOM      5  C   UNL     1      34.829 -24.708 -14.288  0.00  0.00    +0.021 C 
ATOM      6  C   UNL     1      33.176 -23.295 -12.899  0.00  0.00    -0.003 C 
ATOM      7  C   UNL     1      34.492 -23.779 -15.465  0.00  0.00    -0.071 C 
ATOM      8  C   UNL     1      36.319 -24.823 -14.135  0.00  0.00    -0.008 C 
ATOM      9  C   UNL     1      36.722 -24.006 -13.075  0.00  0.00    +0.057 C 
ATOM     10  C   UNL     1      33.030 -22.411 -14.134  0.00  0.00    -0.076 C 
ATOM     11  C   UNL     1      35.898 -22.910 -11.106  0.00  0.00    +0.112 C 
ATOM     12  C   UNL     1      38.048 -23.873 -12.670  0.00  0.00    +0.061 C 
ATOM     13  C   UNL     1      37.265 -22.210 -11.056  0.00  0.00    +0.112 C 
ATOM     14  C   UNL     1      37.245 -25.540 -14.862  0.00  0.00    -0.003 C 
ATOM     15  C   UNL     1      38.982 -24.613 -13.408  0.00  0.00    +0.016 C 
ATOM     16  C   UNL     1      38.586 -25.431 -14.489  0.00  0.00    +0.001 C 
ATOM     17  C   UNL     1      39.709 -22.794 -11.184  0.00  0.00    +0.112 C 
ATOM     18  H   UNL     1      32.470 -23.990 -15.303  0.00  0.00    -0.080 HD
ENDROOT
BRANCH   2  19
ATOM     19  C   UNL     1      32.827 -22.412 -16.532  0.00  0.00    -0.077 C 
BRANCH  19  20
ATOM     20  C   UNL     1      34.113 -22.018 -17.262  0.00  0.00    -0.015 C 
BRANCH  20  21
ATOM     21  C   UNL     1      33.930 -21.978 -18.782  0.00  0.00    +0.067 C 
BRANCH  21  23
ATOM     22  O   UNL     1      32.555 -20.054 -19.266  0.00  0.00    -0.291 OA
ATOM     23  C   UNL     1      33.664 -20.579 -19.321  0.00  0.00    +0.173 C 
BRANCH  23  25
ATOM     24  F   UNL     1      37.944 -17.708 -21.564  0.00  0.00    -0.204 F 
ATOM     25  C   UNL     1      34.800 -19.816 -19.915  0.00  0.00    +0.035 C 
ATOM     26  C   UNL     1      36.088 -19.973 -19.404  0.00  0.00    +0.005 C 
ATOM     27  C   UNL     1      34.574 -18.948 -20.983  0.00  0.00    +0.005 C 
ATOM     28  C   UNL     1      37.151 -19.261 -19.961  0.00  0.00    +0.030 C 
ATOM     29  C   UNL     1      35.636 -18.236 -21.540  0.00  0.00    +0.030 C 
ATOM     30  C   UNL     1      36.924 -18.393 -21.029  0.00  0.00    +0.140 C 
ENDBRANCH  23  25
ENDBRANCH  21  23
ENDBRANCH  20  21
ENDBRANCH  19  20
ENDBRANCH   2  19
TORSDOF 5
ENDMDL
