MODEL 1
REMARK VINA RESULT:     -12.4      0.000      0.000
REMARK  Name = 46892373
REMARK  3 active torsions:
REMARK  status: ('A' for Active; 'I' for Inactive)
REMARK    1  A    between atoms: C_7  and  C_20
REMARK    2  A    between atoms: C_20  and  C_22
REMARK    3  A    between atoms: C_20  and  O_28
REMARK                            x       y       z     vdW  Elec       q    Type
REMARK                         _______ _______ _______ _____ _____    ______ ____
ROOT
ATOM      1  N   UNL     1      34.330 -23.085 -16.718  0.00  0.00    -0.326 NA
ATOM      2  N   UNL     1      34.972 -23.726 -14.546  0.00  0.00    -0.271 N 
ATOM      3  N   UNL     1      32.119 -22.225 -17.143  0.00  0.00    -0.345 NA
ATOM      4  N   UNL     1      38.377 -23.259 -15.040  0.00  0.00    -0.239 N 
ATOM      5  N   UNL     1      37.124 -23.040 -15.472  0.00  0.00    -0.166 NA
ATOM      6  C   UNL     1      32.734 -22.869 -14.915  0.00  0.00    +0.072 C 
ATOM      7  C   UNL     1      33.363 -22.593 -17.509  0.00  0.00    +0.146 C 
ATOM      8  C   UNL     1      33.984 -23.210 -15.423  0.00  0.00    +0.199 C 
ATOM      9  C   UNL     1      31.806 -22.365 -15.842  0.00  0.00    +0.129 C 
ATOM     10  C   UNL     1      32.396 -23.010 -13.558  0.00  0.00    +0.006 C 
ATOM     11  C   UNL     1      30.544 -22.011 -15.371  0.00  0.00    +0.086 C 
ATOM     12  C   UNL     1      36.375 -23.659 -14.556  0.00  0.00    +0.152 C 
ATOM     13  C   UNL     1      31.128 -22.649 -13.115  0.00  0.00    -0.004 C 
ATOM     14  C   UNL     1      30.201 -22.149 -14.023  0.00  0.00    -0.019 C 
ATOM     15  C   UNL     1      37.143 -24.268 -13.547  0.00  0.00    +0.048 C 
ATOM     16  C   UNL     1      38.443 -23.989 -13.890  0.00  0.00    +0.046 C 
ATOM     17  C   UNL     1      39.724 -24.338 -13.255  0.00  0.00    +0.049 C 
ATOM     18  H   UNL     1      34.604 -24.229 -13.785  0.00  0.00    +0.156 HD
ATOM     19  H   UNL     1      39.174 -22.922 -15.510  0.00  0.00    +0.174 HD
ENDROOT
BRANCH   7  20
ATOM     20  C   UNL     1      33.702 -22.435 -18.954  0.00  0.00    +0.243 C 
BRANCH  20  22
ATOM     21  F   UNL     1      36.862 -17.883 -20.072  0.00  0.00    -0.204 F 
ATOM     22  C   UNL     1      34.554 -21.207 -19.255  0.00  0.00    +0.021 C 
ATOM     23  C   UNL     1      33.981 -20.095 -19.872  0.00  0.00    +0.001 C 
ATOM     24  C   UNL     1      35.906 -21.196 -18.915  0.00  0.00    +0.001 C 
ATOM     25  C   UNL     1      34.760 -18.972 -20.147  0.00  0.00    +0.029 C 
ATOM     26  C   UNL     1      36.687 -20.073 -19.192  0.00  0.00    +0.029 C 
ATOM     27  C   UNL     1      36.113 -18.961 -19.808  0.00  0.00    +0.140 C 
ENDBRANCH  20  22
BRANCH  20  28
ATOM     28  O   UNL     1      34.346 -23.604 -19.492  0.00  0.00    -0.366 OA
ATOM     29  H   UNL     1      33.879 -23.892 -20.292  0.00  0.00    +0.212 HD
ENDBRANCH  20  28
ENDBRANCH   7  20
TORSDOF 3
ENDMDL
MODEL 2
REMARK VINA RESULT:     -12.3      3.043      7.257
REMARK  Name = 46892373
REMARK  3 active torsions:
REMARK  status: ('A' for Active; 'I' for Inactive)
REMARK    1  A    between atoms: C_7  and  C_20
REMARK    2  A    between atoms: C_20  and  C_22
REMARK    3  A    between atoms: C_20  and  O_28
REMARK                            x       y       z     vdW  Elec       q    Type
REMARK                         _______ _______ _______ _____ _____    ______ ____
ROOT
ATOM      1  N   UNL     1      33.925 -22.978 -15.051  0.00  0.00    -0.326 NA
ATOM      2  N   UNL     1      32.239 -22.341 -16.563  0.00  0.00    -0.271 N 
ATOM      3  N   UNL     1      36.239 -22.486 -15.510  0.00  0.00    -0.345 NA
ATOM      4  N   UNL     1      29.690 -22.216 -14.209  0.00  0.00    -0.239 N 
ATOM      5  N   UNL     1      31.010 -22.266 -14.456  0.00  0.00    -0.166 NA
ATOM      6  C   UNL     1      34.550 -21.820 -17.078  0.00  0.00    +0.072 C 
ATOM      7  C   UNL     1      35.236 -22.993 -14.764  0.00  0.00    +0.146 C 
ATOM      8  C   UNL     1      33.613 -22.382 -16.217  0.00  0.00    +0.199 C 
ATOM      9  C   UNL     1      35.892 -21.899 -16.669  0.00  0.00    +0.129 C 
ATOM     10  C   UNL     1      34.200 -21.204 -18.291  0.00  0.00    +0.006 C 
ATOM     11  C   UNL     1      36.860 -21.346 -17.504  0.00  0.00    +0.086 C 
ATOM     12  C   UNL     1      31.068 -22.290 -15.790  0.00  0.00    +0.152 C 
ATOM     13  C   UNL     1      35.187 -20.660 -19.107  0.00  0.00    -0.004 C 
ATOM     14  C   UNL     1      36.518 -20.731 -18.713  0.00  0.00    -0.019 C 
ATOM     15  C   UNL     1      29.796 -22.255 -16.391  0.00  0.00    +0.048 C 
ATOM     16  C   UNL     1      28.919 -22.208 -15.334  0.00  0.00    +0.046 C 
ATOM     17  C   UNL     1      27.449 -22.157 -15.278  0.00  0.00    +0.049 C 
ATOM     18  H   UNL     1      32.073 -22.351 -17.533  0.00  0.00    +0.156 HD
ATOM     19  H   UNL     1      29.314 -22.188 -13.299  0.00  0.00    +0.174 HD
ENDROOT
BRANCH   7  20
ATOM     20  C   UNL     1      35.630 -23.643 -13.480  0.00  0.00    +0.243 C 
BRANCH  20  22
ATOM     21  F   UNL     1      40.882 -25.734 -13.497  0.00  0.00    -0.204 F 
ATOM     22  C   UNL     1      37.046 -24.207 -13.485  0.00  0.00    +0.021 C 
ATOM     23  C   UNL     1      37.355 -25.310 -14.281  0.00  0.00    +0.001 C 
ATOM     24  C   UNL     1      38.033 -23.621 -12.693  0.00  0.00    +0.001 C 
ATOM     25  C   UNL     1      38.651 -25.826 -14.286  0.00  0.00    +0.029 C 
ATOM     26  C   UNL     1      39.329 -24.137 -12.696  0.00  0.00    +0.029 C 
ATOM     27  C   UNL     1      39.638 -25.240 -13.494  0.00  0.00    +0.140 C 
ENDBRANCH  20  22
BRANCH  20  28
ATOM     28  O   UNL     1      35.474 -22.762 -12.353  0.00  0.00    -0.366 OA
ATOM     29  H   UNL     1      35.186 -21.888 -12.662  0.00  0.00    +0.212 HD
ENDBRANCH  20  28
ENDBRANCH   7  20
TORSDOF 3
ENDMDL
MODEL 3
REMARK VINA RESULT:     -12.0      1.701      5.362
REMARK  Name = 46892373
REMARK  3 active torsions:
REMARK  status: ('A' for Active; 'I' for Inactive)
REMARK    1  A    between atoms: C_7  and  C_20
REMARK    2  A    between atoms: C_20  and  C_22
REMARK    3  A    between atoms: C_20  and  O_28
REMARK                            x       y       z     vdW  Elec       q    Type
REMARK                         _______ _______ _______ _____ _____    ______ ____
ROOT
ATOM      1  N   UNL     1      32.311 -22.163 -16.897  0.00  0.00    -0.326 NA
ATOM      2  N   UNL     1      30.947 -21.970 -14.989  0.00  0.00    -0.271 N 
ATOM      3  N   UNL     1      34.569 -22.987 -16.715  0.00  0.00    -0.345 NA
ATOM      4  N   UNL     1      27.932 -22.211 -16.693  0.00  0.00    -0.239 N 
ATOM      5  N   UNL     1      29.265 -22.376 -16.711  0.00  0.00    -0.166 NA
ATOM      6  C   UNL     1      33.211 -22.804 -14.746  0.00  0.00    +0.072 C 
ATOM      7  C   UNL     1      33.507 -22.510 -17.397  0.00  0.00    +0.146 C 
ATOM      8  C   UNL     1      32.193 -22.323 -15.565  0.00  0.00    +0.199 C 
ATOM      9  C   UNL     1      34.417 -23.133 -15.387  0.00  0.00    +0.129 C 
ATOM     10  C   UNL     1      33.064 -22.961 -13.358  0.00  0.00    +0.006 C 
ATOM     11  C   UNL     1      35.459 -23.619 -14.601  0.00  0.00    +0.086 C 
ATOM     12  C   UNL     1      29.634 -21.987 -15.488  0.00  0.00    +0.152 C 
ATOM     13  C   UNL     1      34.121 -23.449 -12.596  0.00  0.00    -0.004 C 
ATOM     14  C   UNL     1      35.320 -23.778 -13.219  0.00  0.00    -0.019 C 
ATOM     15  C   UNL     1      28.546 -21.578 -14.695  0.00  0.00    +0.048 C 
ATOM     16  C   UNL     1      27.451 -21.735 -15.510  0.00  0.00    +0.046 C 
ATOM     17  C   UNL     1      26.017 -21.485 -15.289  0.00  0.00    +0.049 C 
ATOM     18  H   UNL     1      31.015 -21.650 -14.061  0.00  0.00    +0.156 HD
ATOM     19  H   UNL     1      27.355 -22.415 -17.465  0.00  0.00    +0.174 HD
ENDROOT
BRANCH   7  20
ATOM     20  C   UNL     1      33.684 -22.351 -18.870  0.00  0.00    +0.243 C 
BRANCH  20  22
ATOM     21  F   UNL     1      36.720 -17.808 -20.323  0.00  0.00    -0.204 F 
ATOM     22  C   UNL     1      34.502 -21.126 -19.262  0.00  0.00    +0.021 C 
ATOM     23  C   UNL     1      33.880 -20.037 -19.872  0.00  0.00    +0.001 C 
ATOM     24  C   UNL     1      35.874 -21.094 -19.011  0.00  0.00    +0.001 C 
ATOM     25  C   UNL     1      34.629 -18.916 -20.230  0.00  0.00    +0.029 C 
ATOM     26  C   UNL     1      36.624 -19.973 -19.370  0.00  0.00    +0.029 C 
ATOM     27  C   UNL     1      36.000 -18.884 -19.980  0.00  0.00    +0.140 C 
ENDBRANCH  20  22
BRANCH  20  28
ATOM     28  O   UNL     1      34.260 -23.520 -19.480  0.00  0.00    -0.366 OA
ATOM     29  H   UNL     1      34.383 -23.364 -20.429  0.00  0.00    +0.212 HD
ENDBRANCH  20  28
ENDBRANCH   7  20
TORSDOF 3
ENDMDL
MODEL 4
REMARK VINA RESULT:     -11.6      2.951      5.600
REMARK  Name = 46892373
REMARK  3 active torsions:
REMARK  status: ('A' for Active; 'I' for Inactive)
REMARK    1  A    between atoms: C_7  and  C_20
REMARK    2  A    between atoms: C_20  and  C_22
REMARK    3  A    between atoms: C_20  and  O_28
REMARK                            x       y       z     vdW  Elec       q    Type
REMARK                         _______ _______ _______ _____ _____    ______ ____
ROOT
ATOM      1  N   UNL     1      34.363 -23.013 -14.932  0.00  0.00    -0.326 NA
ATOM      2  N   UNL     1      36.609 -22.608 -15.506  0.00  0.00    -0.271 N 
ATOM      3  N   UNL     1      32.575 -22.302 -16.382  0.00  0.00    -0.345 NA
ATOM      4  N   UNL     1      37.922 -25.224 -13.639  0.00  0.00    -0.239 N 
ATOM      5  N   UNL     1      36.839 -24.650 -14.188  0.00  0.00    -0.166 NA
ATOM      6  C   UNL     1      34.852 -21.869 -17.004  0.00  0.00    +0.072 C 
ATOM      7  C   UNL     1      33.072 -22.884 -15.272  0.00  0.00    +0.146 C 
ATOM      8  C   UNL     1      35.231 -22.495 -15.821  0.00  0.00    +0.199 C 
ATOM      9  C   UNL     1      33.470 -21.794 -17.249  0.00  0.00    +0.129 C 
ATOM     10  C   UNL     1      35.777 -21.335 -17.917  0.00  0.00    +0.006 C 
ATOM     11  C   UNL     1      33.050 -21.175 -18.424  0.00  0.00    +0.086 C 
ATOM     12  C   UNL     1      37.340 -23.562 -14.779  0.00  0.00    +0.152 C 
ATOM     13  C   UNL     1      35.331 -20.722 -19.083  0.00  0.00    -0.004 C 
ATOM     14  C   UNL     1      33.966 -20.642 -19.336  0.00  0.00    -0.019 C 
ATOM     15  C   UNL     1      38.732 -23.442 -14.608  0.00  0.00    +0.048 C 
ATOM     16  C   UNL     1      39.081 -24.540 -13.861  0.00  0.00    +0.046 C 
ATOM     17  C   UNL     1      40.377 -25.003 -13.341  0.00  0.00    +0.049 C 
ATOM     18  H   UNL     1      37.160 -21.876 -15.866  0.00  0.00    +0.156 HD
ATOM     19  H   UNL     1      37.883 -26.062 -13.123  0.00  0.00    +0.174 HD
ENDROOT
BRANCH   7  20
ATOM     20  C   UNL     1      32.072 -23.444 -14.315  0.00  0.00    +0.243 C 
BRANCH  20  22
ATOM     21  F   UNL     1      26.715 -22.219 -15.641  0.00  0.00    -0.204 F 
ATOM     22  C   UNL     1      30.628 -23.114 -14.672  0.00  0.00    +0.021 C 
ATOM     23  C   UNL     1      29.867 -24.021 -15.411  0.00  0.00    +0.001 C 
ATOM     24  C   UNL     1      30.066 -21.905 -14.262  0.00  0.00    +0.001 C 
ATOM     25  C   UNL     1      28.545 -23.719 -15.738  0.00  0.00    +0.029 C 
ATOM     26  C   UNL     1      28.744 -21.602 -14.589  0.00  0.00    +0.029 C 
ATOM     27  C   UNL     1      27.984 -22.510 -15.327  0.00  0.00    +0.140 C 
ENDBRANCH  20  22
BRANCH  20  28
ATOM     28  O   UNL     1      32.209 -24.868 -14.157  0.00  0.00    -0.366 OA
ATOM     29  H   UNL     1      32.921 -25.057 -13.526  0.00  0.00    +0.212 HD
ENDBRANCH  20  28
ENDBRANCH   7  20
TORSDOF 3
ENDMDL
MODEL 5
REMARK VINA RESULT:     -11.5      3.119      6.902
REMARK  Name = 46892373
REMARK  3 active torsions:
REMARK  status: ('A' for Active; 'I' for Inactive)
REMARK    1  A    between atoms: C_7  and  C_20
REMARK    2  A    between atoms: C_20  and  C_22
REMARK    3  A    between atoms: C_20  and  O_28
REMARK                            x       y       z     vdW  Elec       q    Type
REMARK                         _______ _______ _______ _____ _____    ______ ____
ROOT
ATOM      1  N   UNL     1      35.691 -22.511 -15.711  0.00  0.00    -0.326 NA
ATOM      2  N   UNL     1      33.477 -22.667 -16.494  0.00  0.00    -0.271 N 
ATOM      3  N   UNL     1      37.344 -21.258 -16.938  0.00  0.00    -0.345 NA
ATOM      4  N   UNL     1      32.050 -23.261 -13.385  0.00  0.00    -0.239 N 
ATOM      5  N   UNL     1      33.121 -22.852 -14.086  0.00  0.00    -0.166 NA
ATOM      6  C   UNL     1      35.098 -21.393 -17.770  0.00  0.00    +0.072 C 
ATOM      7  C   UNL     1      36.925 -22.024 -15.910  0.00  0.00    +0.146 C 
ATOM      8  C   UNL     1      34.797 -22.177 -16.660  0.00  0.00    +0.199 C 
ATOM      9  C   UNL     1      36.425 -20.943 -17.869  0.00  0.00    +0.129 C 
ATOM     10  C   UNL     1      34.147 -21.058 -18.749  0.00  0.00    +0.006 C 
ATOM     11  C   UNL     1      36.765 -20.155 -18.966  0.00  0.00    +0.086 C 
ATOM     12  C   UNL     1      32.717 -22.974 -15.353  0.00  0.00    +0.152 C 
ATOM     13  C   UNL     1      34.513 -20.270 -19.835  0.00  0.00    -0.004 C 
ATOM     14  C   UNL     1      35.824 -19.818 -19.943  0.00  0.00    -0.019 C 
ATOM     15  C   UNL     1      31.400 -23.457 -15.461  0.00  0.00    +0.048 C 
ATOM     16  C   UNL     1      30.993 -23.635 -14.161  0.00  0.00    +0.046 C 
ATOM     17  C   UNL     1      29.727 -24.115 -13.584  0.00  0.00    +0.049 C 
ATOM     18  H   UNL     1      33.002 -22.824 -17.341  0.00  0.00    +0.156 HD
ATOM     19  H   UNL     1      32.032 -23.290 -12.401  0.00  0.00    +0.174 HD
ENDROOT
BRANCH   7  20
ATOM     20  C   UNL     1      37.951 -22.369 -14.881  0.00  0.00    +0.243 C 
BRANCH  20  22
ATOM     21  F   UNL     1      35.824 -24.941 -10.319  0.00  0.00    -0.204 F 
ATOM     22  C   UNL     1      37.378 -23.062 -13.651  0.00  0.00    +0.021 C 
ATOM     23  C   UNL     1      37.746 -24.375 -13.356  0.00  0.00    +0.001 C 
ATOM     24  C   UNL     1      36.484 -22.385 -12.821  0.00  0.00    +0.001 C 
ATOM     25  C   UNL     1      37.221 -25.010 -12.230  0.00  0.00    +0.029 C 
ATOM     26  C   UNL     1      35.959 -23.020 -11.695  0.00  0.00    +0.029 C 
ATOM     27  C   UNL     1      36.328 -24.333 -11.400  0.00  0.00    +0.140 C 
ENDBRANCH  20  22
BRANCH  20  28
ATOM     28  O   UNL     1      39.018 -23.167 -15.423  0.00  0.00    -0.366 OA
ATOM     29  H   UNL     1      39.049 -24.021 -14.964  0.00  0.00    +0.212 HD
ENDBRANCH  20  28
ENDBRANCH   7  20
TORSDOF 3
ENDMDL
MODEL 6
REMARK VINA RESULT:     -11.3      1.973      5.356
REMARK  Name = 46892373
REMARK  3 active torsions:
REMARK  status: ('A' for Active; 'I' for Inactive)
REMARK    1  A    between atoms: C_7  and  C_20
REMARK    2  A    between atoms: C_20  and  C_22
REMARK    3  A    between atoms: C_20  and  O_28
REMARK                            x       y       z     vdW  Elec       q    Type
REMARK                         _______ _______ _______ _____ _____    ______ ____
ROOT
ATOM      1  N   UNL     1      35.783 -22.026 -15.233  0.00  0.00    -0.326 NA
ATOM      2  N   UNL     1      34.248 -22.866 -13.660  0.00  0.00    -0.271 N 
ATOM      3  N   UNL     1      38.096 -22.701 -15.175  0.00  0.00    -0.345 NA
ATOM      4  N   UNL     1      31.437 -22.422 -15.648  0.00  0.00    -0.239 N 
ATOM      5  N   UNL     1      32.776 -22.479 -15.569  0.00  0.00    -0.166 NA
ATOM      6  C   UNL     1      36.563 -23.579 -13.553  0.00  0.00    +0.072 C 
ATOM      7  C   UNL     1      37.050 -22.016 -15.678  0.00  0.00    +0.146 C 
ATOM      8  C   UNL     1      35.571 -22.820 -14.167  0.00  0.00    +0.199 C 
ATOM      9  C   UNL     1      37.849 -23.484 -14.110  0.00  0.00    +0.129 C 
ATOM     10  C   UNL     1      36.317 -24.400 -12.440  0.00  0.00    +0.006 C 
ATOM     11  C   UNL     1      38.869 -24.229 -13.523  0.00  0.00    +0.086 C 
ATOM     12  C   UNL     1      32.993 -22.715 -14.272  0.00  0.00    +0.152 C 
ATOM     13  C   UNL     1      37.353 -25.134 -11.873  0.00  0.00    -0.004 C 
ATOM     14  C   UNL     1      38.630 -25.049 -12.415  0.00  0.00    -0.019 C 
ATOM     15  C   UNL     1      31.801 -22.807 -13.530  0.00  0.00    +0.048 C 
ATOM     16  C   UNL     1      30.805 -22.611 -14.455  0.00  0.00    +0.046 C 
ATOM     17  C   UNL     1      29.339 -22.584 -14.330  0.00  0.00    +0.049 C 
ATOM     18  H   UNL     1      34.199 -23.035 -12.692  0.00  0.00    +0.156 HD
ATOM     19  H   UNL     1      30.955 -22.257 -16.492  0.00  0.00    +0.174 HD
ENDROOT
BRANCH   7  20
ATOM     20  C   UNL     1      37.333 -21.149 -16.860  0.00  0.00    +0.243 C 
BRANCH  20  22
ATOM     21  F   UNL     1      32.913 -20.510 -20.327  0.00  0.00    -0.204 F 
ATOM     22  C   UNL     1      36.141 -20.977 -17.795  0.00  0.00    +0.021 C 
ATOM     23  C   UNL     1      36.242 -20.141 -18.907  0.00  0.00    +0.001 C 
ATOM     24  C   UNL     1      34.949 -21.654 -17.538  0.00  0.00    +0.001 C 
ATOM     25  C   UNL     1      35.152 -19.984 -19.763  0.00  0.00    +0.029 C 
ATOM     26  C   UNL     1      33.858 -21.496 -18.393  0.00  0.00    +0.029 C 
ATOM     27  C   UNL     1      33.960 -20.661 -19.506  0.00  0.00    +0.140 C 
ENDBRANCH  20  22
BRANCH  20  28
ATOM     28  O   UNL     1      37.828 -19.853 -16.479  0.00  0.00    -0.366 OA
ATOM     29  H   UNL     1      37.228 -19.455 -15.827  0.00  0.00    +0.212 HD
ENDBRANCH  20  28
ENDBRANCH   7  20
TORSDOF 3
ENDMDL
MODEL 7
REMARK VINA RESULT:     -11.2      3.129      7.304
REMARK  Name = 46892373
REMARK  3 active torsions:
REMARK  status: ('A' for Active; 'I' for Inactive)
REMARK    1  A    between atoms: C_7  and  C_20
REMARK    2  A    between atoms: C_20  and  C_22
REMARK    3  A    between atoms: C_20  and  O_28
REMARK                            x       y       z     vdW  Elec       q    Type
REMARK                         _______ _______ _______ _____ _____    ______ ____
ROOT
ATOM      1  N   UNL     1      33.420 -23.236 -15.052  0.00  0.00    -0.326 NA
ATOM      2  N   UNL     1      31.842 -22.332 -16.545  0.00  0.00    -0.271 N 
ATOM      3  N   UNL     1      35.781 -22.907 -15.409  0.00  0.00    -0.345 NA
ATOM      4  N   UNL     1      29.238 -22.189 -14.254  0.00  0.00    -0.239 N 
ATOM      5  N   UNL     1      30.556 -22.331 -14.470  0.00  0.00    -0.166 NA
ATOM      6  C   UNL     1      34.204 -21.969 -16.955  0.00  0.00    +0.072 C 
ATOM      7  C   UNL     1      34.716 -23.387 -14.735  0.00  0.00    +0.146 C 
ATOM      8  C   UNL     1      33.196 -22.520 -16.169  0.00  0.00    +0.199 C 
ATOM      9  C   UNL     1      35.521 -22.196 -16.521  0.00  0.00    +0.129 C 
ATOM     10  C   UNL     1      33.945 -21.226 -18.119  0.00  0.00    +0.006 C 
ATOM     11  C   UNL     1      36.558 -21.660 -17.281  0.00  0.00    +0.086 C 
ATOM     12  C   UNL     1      30.655 -22.247 -15.800  0.00  0.00    +0.152 C 
ATOM     13  C   UNL     1      34.999 -20.701 -18.860  0.00  0.00    -0.004 C 
ATOM     14  C   UNL     1      36.307 -20.919 -18.440  0.00  0.00    -0.019 C 
ATOM     15  C   UNL     1      29.410 -22.053 -16.427  0.00  0.00    +0.048 C 
ATOM     16  C   UNL     1      28.507 -22.020 -15.392  0.00  0.00    +0.046 C 
ATOM     17  C   UNL     1      27.046 -21.849 -15.368  0.00  0.00    +0.049 C 
ATOM     18  H   UNL     1      31.708 -22.247 -17.516  0.00  0.00    +0.156 HD
ATOM     19  H   UNL     1      28.836 -22.206 -13.354  0.00  0.00    +0.174 HD
ENDROOT
BRANCH   7  20
ATOM     20  C   UNL     1      35.012 -24.175 -13.503  0.00  0.00    +0.243 C 
BRANCH  20  22
ATOM     21  F   UNL     1      39.905 -22.785 -11.035  0.00  0.00    -0.204 F 
ATOM     22  C   UNL     1      36.331 -23.800 -12.837  0.00  0.00    +0.021 C 
ATOM     23  C   UNL     1      36.392 -22.701 -11.980  0.00  0.00    +0.001 C 
ATOM     24  C   UNL     1      37.477 -24.555 -13.086  0.00  0.00    +0.001 C 
ATOM     25  C   UNL     1      37.599 -22.359 -11.370  0.00  0.00    +0.029 C 
ATOM     26  C   UNL     1      38.685 -24.212 -12.477  0.00  0.00    +0.029 C 
ATOM     27  C   UNL     1      38.746 -23.114 -11.619  0.00  0.00    +0.140 C 
ENDBRANCH  20  22
BRANCH  20  28
ATOM     28  O   UNL     1      33.951 -24.091 -12.535  0.00  0.00    -0.366 OA
ATOM     29  H   UNL     1      34.261 -23.604 -11.755  0.00  0.00    +0.212 HD
ENDBRANCH  20  28
ENDBRANCH   7  20
TORSDOF 3
ENDMDL
MODEL 8
REMARK VINA RESULT:     -10.9      2.696      5.487
REMARK  Name = 46892373
REMARK  3 active torsions:
REMARK  status: ('A' for Active; 'I' for Inactive)
REMARK    1  A    between atoms: C_7  and  C_20
REMARK    2  A    between atoms: C_20  and  C_22
REMARK    3  A    between atoms: C_20  and  O_28
REMARK                            x       y       z     vdW  Elec       q    Type
REMARK                         _______ _______ _______ _____ _____    ______ ____
ROOT
ATOM      1  N   UNL     1      33.520 -22.853 -14.725  0.00  0.00    -0.326 NA
ATOM      2  N   UNL     1      32.558 -21.920 -16.660  0.00  0.00    -0.271 N 
ATOM      3  N   UNL     1      32.219 -24.253 -13.258  0.00  0.00    -0.345 NA
ATOM      4  N   UNL     1      35.542 -21.577 -18.401  0.00  0.00    -0.239 N 
ATOM      5  N   UNL     1      34.886 -22.125 -17.365  0.00  0.00    -0.166 NA
ATOM      6  C   UNL     1      31.201 -23.321 -15.220  0.00  0.00    +0.072 C 
ATOM      7  C   UNL     1      33.348 -23.621 -13.638  0.00  0.00    +0.146 C 
ATOM      8  C   UNL     1      32.426 -22.722 -15.498  0.00  0.00    +0.199 C 
ATOM      9  C   UNL     1      31.145 -24.100 -14.052  0.00  0.00    +0.129 C 
ATOM     10  C   UNL     1      30.072 -23.169 -16.042  0.00  0.00    +0.006 C 
ATOM     11  C   UNL     1      29.935 -24.717 -13.740  0.00  0.00    +0.086 C 
ATOM     12  C   UNL     1      33.648 -21.644 -17.501  0.00  0.00    +0.152 C 
ATOM     13  C   UNL     1      28.876 -23.795 -15.706  0.00  0.00    -0.004 C 
ATOM     14  C   UNL     1      28.808 -24.570 -14.554  0.00  0.00    -0.019 C 
ATOM     15  C   UNL     1      33.515 -20.795 -18.616  0.00  0.00    +0.048 C 
ATOM     16  C   UNL     1      34.766 -20.772 -19.181  0.00  0.00    +0.046 C 
ATOM     17  C   UNL     1      35.298 -20.077 -20.364  0.00  0.00    +0.049 C 
ATOM     18  H   UNL     1      31.726 -21.468 -16.928  0.00  0.00    +0.156 HD
ATOM     19  H   UNL     1      36.497 -21.742 -18.580  0.00  0.00    +0.174 HD
ENDROOT
BRANCH   7  20
ATOM     20  C   UNL     1      34.535 -23.794 -12.751  0.00  0.00    +0.243 C 
BRANCH  20  22
ATOM     21  F   UNL     1      39.481 -23.173 -15.417  0.00  0.00    -0.204 F 
ATOM     22  C   UNL     1      35.869 -23.626 -13.469  0.00  0.00    +0.021 C 
ATOM     23  C   UNL     1      36.292 -22.358 -13.867  0.00  0.00    +0.001 C 
ATOM     24  C   UNL     1      36.666 -24.741 -13.731  0.00  0.00    +0.001 C 
ATOM     25  C   UNL     1      37.513 -22.205 -14.524  0.00  0.00    +0.029 C 
ATOM     26  C   UNL     1      37.886 -24.588 -14.389  0.00  0.00    +0.029 C 
ATOM     27  C   UNL     1      38.310 -23.319 -14.785  0.00  0.00    +0.140 C 
ENDBRANCH  20  22
BRANCH  20  28
ATOM     28  O   UNL     1      34.496 -22.917 -11.611  0.00  0.00    -0.366 OA
ATOM     29  H   UNL     1      33.639 -23.004 -11.164  0.00  0.00    +0.212 HD
ENDBRANCH  20  28
ENDBRANCH   7  20
TORSDOF 3
ENDMDL
MODEL 9
REMARK VINA RESULT:     -10.6     10.819     14.762
REMARK  Name = 46892373
REMARK  3 active torsions:
REMARK  status: ('A' for Active; 'I' for Inactive)
REMARK    1  A    between atoms: C_7  and  C_20
REMARK    2  A    between atoms: C_20  and  C_22
REMARK    3  A    between atoms: C_20  and  O_28
REMARK                            x       y       z     vdW  Elec       q    Type
REMARK                         _______ _______ _______ _____ _____    ______ ____
ROOT
ATOM      1  N   UNL     1      32.954  -9.802 -22.142  0.00  0.00    -0.326 NA
ATOM      2  N   UNL     1      33.352  -7.486 -22.021  0.00  0.00    -0.271 N 
ATOM      3  N   UNL     1      33.977 -11.137 -23.869  0.00  0.00    -0.345 NA
ATOM      4  N   UNL     1      32.696  -7.199 -18.624  0.00  0.00    -0.239 N 
ATOM      5  N   UNL     1      32.957  -8.003 -19.668  0.00  0.00    -0.166 NA
ATOM      6  C   UNL     1      34.408  -8.778 -23.780  0.00  0.00    +0.072 C 
ATOM      7  C   UNL     1      33.196 -10.956 -22.784  0.00  0.00    +0.146 C 
ATOM      8  C   UNL     1      33.576  -8.729 -22.665  0.00  0.00    +0.199 C 
ATOM      9  C   UNL     1      34.583 -10.043 -24.365  0.00  0.00    +0.129 C 
ATOM     10  C   UNL     1      35.046  -7.643 -24.307  0.00  0.00    +0.006 C 
ATOM     11  C   UNL     1      35.410 -10.134 -25.483  0.00  0.00    +0.086 C 
ATOM     12  C   UNL     1      33.073  -7.147 -20.687  0.00  0.00    +0.152 C 
ATOM     13  C   UNL     1      35.866  -7.761 -25.425  0.00  0.00    -0.004 C 
ATOM     14  C   UNL     1      36.048  -9.008 -26.013  0.00  0.00    -0.019 C 
ATOM     15  C   UNL     1      32.888  -5.808 -20.296  0.00  0.00    +0.048 C 
ATOM     16  C   UNL     1      32.644  -5.876 -18.946  0.00  0.00    +0.046 C 
ATOM     17  C   UNL     1      32.369  -4.834 -17.943  0.00  0.00    +0.049 C 
ATOM     18  H   UNL     1      33.398  -6.711 -22.626  0.00  0.00    +0.156 HD
ATOM     19  H   UNL     1      32.555  -7.536 -17.709  0.00  0.00    +0.174 HD
ENDROOT
BRANCH   7  20
ATOM     20  C   UNL     1      32.527 -12.174 -22.240  0.00  0.00    +0.243 C 
BRANCH  20  22
ATOM     21  F   UNL     1      36.093 -16.396 -21.051  0.00  0.00    -0.204 F 
ATOM     22  C   UNL     1      33.489 -13.312 -21.920  0.00  0.00    +0.021 C 
ATOM     23  C   UNL     1      34.010 -14.095 -22.949  0.00  0.00    +0.001 C 
ATOM     24  C   UNL     1      33.847 -13.571 -20.597  0.00  0.00    +0.001 C 
ATOM     25  C   UNL     1      34.891 -15.137 -22.656  0.00  0.00    +0.029 C 
ATOM     26  C   UNL     1      34.726 -14.614 -20.302  0.00  0.00    +0.029 C 
ATOM     27  C   UNL     1      35.248 -15.396 -21.333  0.00  0.00    +0.140 C 
ENDBRANCH  20  22
BRANCH  20  28
ATOM     28  O   UNL     1      31.731 -11.884 -21.077  0.00  0.00    -0.366 OA
ATOM     29  H   UNL     1      32.310 -11.777 -20.306  0.00  0.00    +0.212 HD
ENDBRANCH  20  28
ENDBRANCH   7  20
TORSDOF 3
ENDMDL
