MODEL 1
REMARK VINA RESULT:     -12.6      0.000      0.000
REMARK  Name = 9889200
REMARK  5 active torsions:
REMARK  status: ('A' for Active; 'I' for Inactive)
REMARK    1  A    between atoms: C_1  and  C_21
REMARK    2  A    between atoms: C_4  and  O_7
REMARK    3  A    between atoms: O_7  and  C_8
REMARK    4  A    between atoms: C_8  and  C_12
REMARK    5  A    between atoms: C_21  and  C_26
REMARK                            x       y       z     vdW  Elec       q    Type
REMARK                         _______ _______ _______ _____ _____    ______ ____
ROOT
ATOM      1  C   UNL     1      34.132 -19.989 -19.728  0.00  0.00    -0.021 C 
ATOM      2  C   UNL     1      33.046 -20.562 -19.067  0.00  0.00    -0.001 C 
ATOM      3  C   UNL     1      35.432 -20.352 -19.379  0.00  0.00    -0.001 C 
ATOM      4  C   UNL     1      34.559 -21.854 -17.717  0.00  0.00    +0.139 C 
ATOM      5  C   UNL     1      33.261 -21.500 -18.056  0.00  0.00    +0.037 C 
ATOM      6  C   UNL     1      35.647 -21.289 -18.369  0.00  0.00    +0.037 C 
ENDROOT
BRANCH   4   7
ATOM      7  O   UNL     1      34.770 -22.779 -16.722  0.00  0.00    -0.466 OA
BRANCH   7   8
ATOM      8  C   UNL     1      34.839 -22.297 -15.397  0.00  0.00    +0.279 C 
BRANCH   8  12
ATOM      9  O   UNL     1      36.384 -24.847 -11.595  0.00  0.00    -0.274 OA
ATOM     10  N   UNL     1      35.614 -23.610 -13.427  0.00  0.00    -0.232 N 
ATOM     11  N   UNL     1      37.104 -23.077 -15.202  0.00  0.00    -0.391 NA
ATOM     12  C   UNL     1      35.930 -23.030 -14.654  0.00  0.00    +0.210 C 
ATOM     13  C   UNL     1      37.921 -24.371 -13.290  0.00  0.00    +0.151 C 
ATOM     14  C   UNL     1      38.128 -23.753 -14.525  0.00  0.00    +0.123 C 
ATOM     15  C   UNL     1      36.576 -24.307 -12.680  0.00  0.00    +0.241 C 
ATOM     16  C   UNL     1      34.263 -23.511 -12.876  0.00  0.00    +0.122 C 
ATOM     17  C   UNL     1      38.965 -25.039 -12.640  0.00  0.00    -0.010 C 
ATOM     18  C   UNL     1      39.400 -23.811 -15.106  0.00  0.00    +0.028 C 
ATOM     19  C   UNL     1      40.227 -25.089 -13.230  0.00  0.00    -0.004 C 
ATOM     20  C   UNL     1      40.444 -24.476 -14.463  0.00  0.00    +0.002 C 
ENDBRANCH   8  12
ENDBRANCH   7   8
ENDBRANCH   4   7
BRANCH   1  21
ATOM     21  C   UNL     1      33.902 -18.986 -20.808  0.00  0.00    +0.047 C 
BRANCH  21  26
ATOM     22  S   UNL     1      35.326 -16.629 -20.612  0.00  0.00    -0.048 S 
ATOM     23  O   UNL     1      35.147 -19.137 -23.540  0.00  0.00    -0.274 OA
ATOM     24  O   UNL     1      35.656 -14.698 -22.367  0.00  0.00    -0.263 OA
ATOM     25  N   UNL     1      35.430 -16.874 -23.153  0.00  0.00    -0.246 N 
ATOM     26  C   UNL     1      35.199 -18.322 -21.265  0.00  0.00    +0.137 C 
ATOM     27  C   UNL     1      35.250 -18.187 -22.771  0.00  0.00    +0.239 C 
ATOM     28  C   UNL     1      35.502 -15.898 -22.193  0.00  0.00    +0.279 C 
ATOM     29  H   UNL     1      35.508 -16.641 -24.106  0.00  0.00    +0.158 HD
ENDBRANCH  21  26
ENDBRANCH   1  21
TORSDOF 5
ENDMDL
MODEL 2
REMARK VINA RESULT:     -12.2      1.649      2.350
REMARK  Name = 9889200
REMARK  5 active torsions:
REMARK  status: ('A' for Active; 'I' for Inactive)
REMARK    1  A    between atoms: C_1  and  C_21
REMARK    2  A    between atoms: C_4  and  O_7
REMARK    3  A    between atoms: O_7  and  C_8
REMARK    4  A    between atoms: C_8  and  C_12
REMARK    5  A    between atoms: C_21  and  C_26
REMARK                            x       y       z     vdW  Elec       q    Type
REMARK                         _______ _______ _______ _____ _____    ______ ____
ROOT
ATOM      1  C   UNL     1      35.802 -19.079 -20.232  0.00  0.00    -0.021 C 
ATOM      2  C   UNL     1      34.462 -19.456 -20.161  0.00  0.00    -0.001 C 
ATOM      3  C   UNL     1      36.770 -19.809 -19.541  0.00  0.00    -0.001 C 
ATOM      4  C   UNL     1      35.058 -21.282 -18.714  0.00  0.00    +0.139 C 
ATOM      5  C   UNL     1      34.087 -20.563 -19.397  0.00  0.00    +0.037 C 
ATOM      6  C   UNL     1      36.396 -20.915 -18.779  0.00  0.00    +0.037 C 
ENDROOT
BRANCH   4   7
ATOM      7  O   UNL     1      34.690 -22.373 -17.964  0.00  0.00    -0.466 OA
BRANCH   7   8
ATOM      8  C   UNL     1      33.846 -22.140 -16.858  0.00  0.00    +0.279 C 
BRANCH   8  12
ATOM      9  O   UNL     1      33.576 -23.686 -12.287  0.00  0.00    -0.274 OA
ATOM     10  N   UNL     1      33.684 -22.932 -14.501  0.00  0.00    -0.232 N 
ATOM     11  N   UNL     1      35.770 -22.913 -15.642  0.00  0.00    -0.391 NA
ATOM     12  C   UNL     1      34.492 -22.693 -15.610  0.00  0.00    +0.210 C 
ATOM     13  C   UNL     1      35.670 -23.703 -13.326  0.00  0.00    +0.151 C 
ATOM     14  C   UNL     1      36.387 -23.425 -14.493  0.00  0.00    +0.123 C 
ATOM     15  C   UNL     1      34.215 -23.445 -13.308  0.00  0.00    +0.241 C 
ATOM     16  C   UNL     1      32.248 -22.655 -14.546  0.00  0.00    +0.122 C 
ATOM     17  C   UNL     1      36.316 -24.214 -12.195  0.00  0.00    -0.010 C 
ATOM     18  C   UNL     1      37.764 -23.668 -14.514  0.00  0.00    +0.028 C 
ATOM     19  C   UNL     1      37.689 -24.452 -12.231  0.00  0.00    -0.004 C 
ATOM     20  C   UNL     1      38.413 -24.178 -13.389  0.00  0.00    +0.002 C 
ENDBRANCH   8  12
ENDBRANCH   7   8
ENDBRANCH   4   7
BRANCH   1  21
ATOM     21  C   UNL     1      36.202 -17.895 -21.046  0.00  0.00    +0.047 C 
BRANCH  21  26
ATOM     22  S   UNL     1      34.877 -17.704 -23.461  0.00  0.00    -0.048 S 
ATOM     23  O   UNL     1      35.298 -15.050 -20.690  0.00  0.00    -0.274 OA
ATOM     24  O   UNL     1      34.858 -15.761 -25.233  0.00  0.00    -0.263 OA
ATOM     25  N   UNL     1      35.076 -15.201 -22.988  0.00  0.00    -0.246 N 
ATOM     26  C   UNL     1      35.004 -17.221 -21.712  0.00  0.00    +0.137 C 
ATOM     27  C   UNL     1      35.145 -15.715 -21.710  0.00  0.00    +0.239 C 
ATOM     28  C   UNL     1      34.933 -16.056 -24.049  0.00  0.00    +0.279 C 
ATOM     29  H   UNL     1      35.128 -14.229 -23.135  0.00  0.00    +0.158 HD
ENDBRANCH  21  26
ENDBRANCH   1  21
TORSDOF 5
ENDMDL
MODEL 3
REMARK VINA RESULT:     -12.2      1.355      1.963
REMARK  Name = 9889200
REMARK  5 active torsions:
REMARK  status: ('A' for Active; 'I' for Inactive)
REMARK    1  A    between atoms: C_1  and  C_21
REMARK    2  A    between atoms: C_4  and  O_7
REMARK    3  A    between atoms: O_7  and  C_8
REMARK    4  A    between atoms: C_8  and  C_12
REMARK    5  A    between atoms: C_21  and  C_26
REMARK                            x       y       z     vdW  Elec       q    Type
REMARK                         _______ _______ _______ _____ _____    ______ ____
ROOT
ATOM      1  C   UNL     1      34.853 -19.347 -20.606  0.00  0.00    -0.021 C 
ATOM      2  C   UNL     1      36.170 -19.624 -20.241  0.00  0.00    -0.001 C 
ATOM      3  C   UNL     1      33.797 -19.945 -19.918  0.00  0.00    -0.001 C 
ATOM      4  C   UNL     1      35.374 -21.091 -18.510  0.00  0.00    +0.139 C 
ATOM      5  C   UNL     1      36.432 -20.502 -19.188  0.00  0.00    +0.037 C 
ATOM      6  C   UNL     1      34.059 -20.821 -18.865  0.00  0.00    +0.037 C 
ENDROOT
BRANCH   4   7
ATOM      7  O   UNL     1      35.632 -21.954 -17.471  0.00  0.00    -0.466 OA
BRANCH   7   8
ATOM      8  C   UNL     1      34.586 -22.191 -16.555  0.00  0.00    +0.279 C 
BRANCH   8  12
ATOM      9  O   UNL     1      34.065 -23.761 -12.015  0.00  0.00    -0.274 OA
ATOM     10  N   UNL     1      34.295 -22.994 -14.214  0.00  0.00    -0.232 N 
ATOM     11  N   UNL     1      36.411 -23.115 -15.292  0.00  0.00    -0.391 NA
ATOM     12  C   UNL     1      35.152 -22.802 -15.296  0.00  0.00    +0.210 C 
ATOM     13  C   UNL     1      36.183 -23.920 -12.990  0.00  0.00    +0.151 C 
ATOM     14  C   UNL     1      36.953 -23.682 -14.132  0.00  0.00    +0.123 C 
ATOM     15  C   UNL     1      34.750 -23.557 -13.012  0.00  0.00    +0.241 C 
ATOM     16  C   UNL     1      32.885 -22.614 -14.299  0.00  0.00    +0.122 C 
ATOM     17  C   UNL     1      36.755 -24.489 -11.847  0.00  0.00    -0.010 C 
ATOM     18  C   UNL     1      38.310 -24.024 -14.115  0.00  0.00    +0.028 C 
ATOM     19  C   UNL     1      38.108 -24.824 -11.845  0.00  0.00    -0.004 C 
ATOM     20  C   UNL     1      38.885 -24.592 -12.978  0.00  0.00    +0.002 C 
ENDBRANCH   8  12
ENDBRANCH   7   8
ENDBRANCH   4   7
BRANCH   1  21
ATOM     21  C   UNL     1      34.573 -18.411 -21.732  0.00  0.00    +0.047 C 
BRANCH  21  26
ATOM     22  S   UNL     1      35.268 -16.216 -20.208  0.00  0.00    -0.048 S 
ATOM     23  O   UNL     1      35.221 -16.605 -24.047  0.00  0.00    -0.274 OA
ATOM     24  O   UNL     1      34.661 -13.676 -20.519  0.00  0.00    -0.263 OA
ATOM     25  N   UNL     1      34.915 -14.989 -22.420  0.00  0.00    -0.246 N 
ATOM     26  C   UNL     1      35.501 -17.198 -21.721  0.00  0.00    +0.137 C 
ATOM     27  C   UNL     1      35.202 -16.261 -22.870  0.00  0.00    +0.239 C 
ATOM     28  C   UNL     1      34.897 -14.740 -21.073  0.00  0.00    +0.279 C 
ATOM     29  H   UNL     1      34.725 -14.267 -23.062  0.00  0.00    +0.158 HD
ENDBRANCH  21  26
ENDBRANCH   1  21
TORSDOF 5
ENDMDL
MODEL 4
REMARK VINA RESULT:     -12.0      4.721     11.870
REMARK  Name = 9889200
REMARK  5 active torsions:
REMARK  status: ('A' for Active; 'I' for Inactive)
REMARK    1  A    between atoms: C_1  and  C_21
REMARK    2  A    between atoms: C_4  and  O_7
REMARK    3  A    between atoms: O_7  and  C_8
REMARK    4  A    between atoms: C_8  and  C_12
REMARK    5  A    between atoms: C_21  and  C_26
REMARK                            x       y       z     vdW  Elec       q    Type
REMARK                         _______ _______ _______ _____ _____    ______ ____
ROOT
ATOM      1  C   UNL     1      35.322 -18.220 -21.414  0.00  0.00    -0.021 C 
ATOM      2  C   UNL     1      35.258 -17.925 -22.775  0.00  0.00    -0.001 C 
ATOM      3  C   UNL     1      35.380 -17.189 -20.478  0.00  0.00    -0.001 C 
ATOM      4  C   UNL     1      35.311 -15.576 -22.261  0.00  0.00    +0.139 C 
ATOM      5  C   UNL     1      35.253 -16.596 -23.201  0.00  0.00    +0.037 C 
ATOM      6  C   UNL     1      35.374 -15.860 -20.903  0.00  0.00    +0.037 C 
ENDROOT
BRANCH   4   7
ATOM      7  O   UNL     1      35.305 -14.267 -22.680  0.00  0.00    -0.466 OA
BRANCH   7   8
ATOM      8  C   UNL     1      34.146 -13.808 -23.342  0.00  0.00    +0.279 C 
BRANCH   8  12
ATOM      9  O   UNL     1      33.021  -9.126 -22.942  0.00  0.00    -0.274 OA
ATOM     10  N   UNL     1      33.576 -11.390 -23.157  0.00  0.00    -0.232 N 
ATOM     11  N   UNL     1      33.056 -12.904 -21.399  0.00  0.00    -0.391 NA
ATOM     12  C   UNL     1      33.554 -12.653 -22.570  0.00  0.00    +0.210 C 
ATOM     13  C   UNL     1      32.471 -10.538 -21.163  0.00  0.00    +0.151 C 
ATOM     14  C   UNL     1      32.502 -11.845 -20.669  0.00  0.00    +0.123 C 
ATOM     15  C   UNL     1      33.043 -10.270 -22.499  0.00  0.00    +0.241 C 
ATOM     16  C   UNL     1      34.158 -11.189 -24.484  0.00  0.00    +0.122 C 
ATOM     17  C   UNL     1      31.910  -9.502 -20.408  0.00  0.00    -0.010 C 
ATOM     18  C   UNL     1      31.962 -12.103 -19.405  0.00  0.00    +0.028 C 
ATOM     19  C   UNL     1      31.375  -9.774 -19.150  0.00  0.00    -0.004 C 
ATOM     20  C   UNL     1      31.401 -11.073 -18.648  0.00  0.00    +0.002 C 
ENDBRANCH   8  12
ENDBRANCH   7   8
ENDBRANCH   4   7
BRANCH   1  21
ATOM     21  C   UNL     1      35.329 -19.640 -20.960  0.00  0.00    +0.047 C 
BRANCH  21  26
ATOM     22  S   UNL     1      35.548 -21.089 -18.619  0.00  0.00    -0.048 S 
ATOM     23  O   UNL     1      32.390 -19.670 -20.325  0.00  0.00    -0.274 OA
ATOM     24  O   UNL     1      34.090 -23.083 -17.718  0.00  0.00    -0.263 OA
ATOM     25  N   UNL     1      33.049 -21.452 -19.005  0.00  0.00    -0.246 N 
ATOM     26  C   UNL     1      34.687 -19.810 -19.584  0.00  0.00    +0.137 C 
ATOM     27  C   UNL     1      33.252 -20.276 -19.697  0.00  0.00    +0.239 C 
ATOM     28  C   UNL     1      34.105 -22.047 -18.367  0.00  0.00    +0.279 C 
ATOM     29  H   UNL     1      32.153 -21.858 -18.971  0.00  0.00    +0.158 HD
ENDBRANCH  21  26
ENDBRANCH   1  21
TORSDOF 5
ENDMDL
MODEL 5
REMARK VINA RESULT:     -12.0      2.336      4.413
REMARK  Name = 9889200
REMARK  5 active torsions:
REMARK  status: ('A' for Active; 'I' for Inactive)
REMARK    1  A    between atoms: C_1  and  C_21
REMARK    2  A    between atoms: C_4  and  O_7
REMARK    3  A    between atoms: O_7  and  C_8
REMARK    4  A    between atoms: C_8  and  C_12
REMARK    5  A    between atoms: C_21  and  C_26
REMARK                            x       y       z     vdW  Elec       q    Type
REMARK                         _______ _______ _______ _____ _____    ______ ____
ROOT
ATOM      1  C   UNL     1      35.836 -19.001 -20.462  0.00  0.00    -0.021 C 
ATOM      2  C   UNL     1      34.500 -19.363 -20.297  0.00  0.00    -0.001 C 
ATOM      3  C   UNL     1      36.832 -19.661 -19.744  0.00  0.00    -0.001 C 
ATOM      4  C   UNL     1      35.158 -21.038 -18.702  0.00  0.00    +0.139 C 
ATOM      5  C   UNL     1      34.158 -20.387 -19.412  0.00  0.00    +0.037 C 
ATOM      6  C   UNL     1      36.492 -20.685 -18.859  0.00  0.00    +0.037 C 
ENDROOT
BRANCH   4   7
ATOM      7  O   UNL     1      34.822 -22.047 -17.831  0.00  0.00    -0.466 OA
BRANCH   7   8
ATOM      8  C   UNL     1      35.329 -21.961 -16.517  0.00  0.00    +0.279 C 
BRANCH   8  12
ATOM      9  O   UNL     1      34.173 -23.751 -12.180  0.00  0.00    -0.274 OA
ATOM     10  N   UNL     1      34.755 -22.882 -14.274  0.00  0.00    -0.232 N 
ATOM     11  N   UNL     1      33.101 -22.682 -15.971  0.00  0.00    -0.391 NA
ATOM     12  C   UNL     1      34.321 -22.538 -15.553  0.00  0.00    +0.210 C 
ATOM     13  C   UNL     1      32.480 -23.593 -13.785  0.00  0.00    +0.151 C 
ATOM     14  C   UNL     1      32.153 -23.216 -15.089  0.00  0.00    +0.123 C 
ATOM     15  C   UNL     1      33.875 -23.422 -13.325  0.00  0.00    +0.241 C 
ATOM     16  C   UNL     1      36.150 -22.689 -13.879  0.00  0.00    +0.122 C 
ATOM     17  C   UNL     1      31.509 -24.123 -12.928  0.00  0.00    -0.010 C 
ATOM     18  C   UNL     1      30.834 -23.376 -15.529  0.00  0.00    +0.028 C 
ATOM     19  C   UNL     1      30.199 -24.277 -13.380  0.00  0.00    -0.004 C 
ATOM     20  C   UNL     1      29.862 -23.904 -14.679  0.00  0.00    +0.002 C 
ENDBRANCH   8  12
ENDBRANCH   7   8
ENDBRANCH   4   7
BRANCH   1  21
ATOM     21  C   UNL     1      36.200 -17.906 -21.407  0.00  0.00    +0.047 C 
BRANCH  21  26
ATOM     22  S   UNL     1      34.767 -17.647 -23.753  0.00  0.00    -0.048 S 
ATOM     23  O   UNL     1      35.299 -15.079 -20.922  0.00  0.00    -0.274 OA
ATOM     24  O   UNL     1      34.658 -15.651 -25.460  0.00  0.00    -0.263 OA
ATOM     25  N   UNL     1      34.975 -15.160 -23.210  0.00  0.00    -0.246 N 
ATOM     26  C   UNL     1      34.970 -17.219 -21.997  0.00  0.00    +0.137 C 
ATOM     27  C   UNL     1      35.104 -15.713 -21.953  0.00  0.00    +0.239 C 
ATOM     28  C   UNL     1      34.788 -15.982 -24.291  0.00  0.00    +0.279 C 
ATOM     29  H   UNL     1      35.015 -14.183 -23.329  0.00  0.00    +0.158 HD
ENDBRANCH  21  26
ENDBRANCH   1  21
TORSDOF 5
ENDMDL
MODEL 6
REMARK VINA RESULT:     -11.7      4.078     10.769
REMARK  Name = 9889200
REMARK  5 active torsions:
REMARK  status: ('A' for Active; 'I' for Inactive)
REMARK    1  A    between atoms: C_1  and  C_21
REMARK    2  A    between atoms: C_4  and  O_7
REMARK    3  A    between atoms: O_7  and  C_8
REMARK    4  A    between atoms: C_8  and  C_12
REMARK    5  A    between atoms: C_21  and  C_26
REMARK                            x       y       z     vdW  Elec       q    Type
REMARK                         _______ _______ _______ _____ _____    ______ ____
ROOT
ATOM      1  C   UNL     1      34.254 -21.569 -18.316  0.00  0.00    -0.021 C 
ATOM      2  C   UNL     1      33.342 -20.824 -19.062  0.00  0.00    -0.001 C 
ATOM      3  C   UNL     1      35.617 -21.281 -18.390  0.00  0.00    -0.001 C 
ATOM      4  C   UNL     1      35.150 -19.512 -19.951  0.00  0.00    +0.139 C 
ATOM      5  C   UNL     1      33.792 -19.790 -19.885  0.00  0.00    +0.037 C 
ATOM      6  C   UNL     1      36.067 -20.247 -19.211  0.00  0.00    +0.037 C 
ENDROOT
BRANCH   4   7
ATOM      7  O   UNL     1      35.594 -18.493 -20.759  0.00  0.00    -0.466 OA
BRANCH   7   8
ATOM      8  C   UNL     1      35.401 -18.641 -22.149  0.00  0.00    +0.279 C 
BRANCH   8  12
ATOM      9  O   UNL     1      33.435 -16.058 -25.728  0.00  0.00    -0.274 OA
ATOM     10  N   UNL     1      34.385 -17.329 -24.007  0.00  0.00    -0.232 N 
ATOM     11  N   UNL     1      35.132 -16.255 -22.021  0.00  0.00    -0.391 NA
ATOM     12  C   UNL     1      34.956 -17.323 -22.737  0.00  0.00    +0.210 C 
ATOM     13  C   UNL     1      34.140 -14.915 -23.815  0.00  0.00    +0.151 C 
ATOM     14  C   UNL     1      34.725 -15.024 -22.551  0.00  0.00    +0.123 C 
ATOM     15  C   UNL     1      33.947 -16.142 -24.616  0.00  0.00    +0.241 C 
ATOM     16  C   UNL     1      34.222 -18.578 -24.751  0.00  0.00    +0.122 C 
ATOM     17  C   UNL     1      33.744 -13.670 -24.315  0.00  0.00    -0.010 C 
ATOM     18  C   UNL     1      34.909 -13.865 -21.789  0.00  0.00    +0.028 C 
ATOM     19  C   UNL     1      33.933 -12.524 -23.545  0.00  0.00    -0.004 C 
ATOM     20  C   UNL     1      34.516 -12.621 -22.283  0.00  0.00    +0.002 C 
ENDBRANCH   8  12
ENDBRANCH   7   8
ENDBRANCH   4   7
BRANCH   1  21
ATOM     21  C   UNL     1      33.773 -22.675 -17.439  0.00  0.00    +0.047 C 
BRANCH  21  26
ATOM     22  S   UNL     1      34.140 -23.020 -14.724  0.00  0.00    -0.048 S 
ATOM     23  O   UNL     1      30.938 -22.057 -16.651  0.00  0.00    -0.274 OA
ATOM     24  O   UNL     1      32.631 -24.246 -12.953  0.00  0.00    -0.263 OA
ATOM     25  N   UNL     1      31.590 -23.188 -14.742  0.00  0.00    -0.246 N 
ATOM     26  C   UNL     1      33.285 -22.167 -16.084  0.00  0.00    +0.137 C 
ATOM     27  C   UNL     1      31.812 -22.448 -15.885  0.00  0.00    +0.239 C 
ATOM     28  C   UNL     1      32.659 -23.590 -13.984  0.00  0.00    +0.279 C 
ATOM     29  H   UNL     1      30.673 -23.423 -14.473  0.00  0.00    +0.158 HD
ENDBRANCH  21  26
ENDBRANCH   1  21
TORSDOF 5
ENDMDL
MODEL 7
REMARK VINA RESULT:     -11.6      4.795     12.585
REMARK  Name = 9889200
REMARK  5 active torsions:
REMARK  status: ('A' for Active; 'I' for Inactive)
REMARK    1  A    between atoms: C_1  and  C_21
REMARK    2  A    between atoms: C_4  and  O_7
REMARK    3  A    between atoms: O_7  and  C_8
REMARK    4  A    between atoms: C_8  and  C_12
REMARK    5  A    between atoms: C_21  and  C_26
REMARK                            x       y       z     vdW  Elec       q    Type
REMARK                         _______ _______ _______ _____ _____    ______ ____
ROOT
ATOM      1  C   UNL     1      35.247 -18.056 -21.535  0.00  0.00    -0.021 C 
ATOM      2  C   UNL     1      35.078 -17.746 -22.884  0.00  0.00    -0.001 C 
ATOM      3  C   UNL     1      35.375 -17.035 -20.595  0.00  0.00    -0.001 C 
ATOM      4  C   UNL     1      35.168 -15.403 -22.349  0.00  0.00    +0.139 C 
ATOM      5  C   UNL     1      35.039 -16.412 -23.293  0.00  0.00    +0.037 C 
ATOM      6  C   UNL     1      35.335 -15.702 -21.003  0.00  0.00    +0.037 C 
ENDROOT
BRANCH   4   7
ATOM      7  O   UNL     1      35.128 -14.089 -22.752  0.00  0.00    -0.466 OA
BRANCH   7   8
ATOM      8  C   UNL     1      33.903 -13.608 -23.261  0.00  0.00    +0.279 C 
BRANCH   8  12
ATOM      9  O   UNL     1      32.261  -9.512 -21.293  0.00  0.00    -0.274 OA
ATOM     10  N   UNL     1      33.042 -11.508 -22.232  0.00  0.00    -0.232 N 
ATOM     11  N   UNL     1      34.651 -11.440 -23.982  0.00  0.00    -0.391 NA
ATOM     12  C   UNL     1      33.882 -12.101 -23.173  0.00  0.00    +0.210 C 
ATOM     13  C   UNL     1      33.841  -9.344 -23.008  0.00  0.00    +0.151 C 
ATOM     14  C   UNL     1      34.644 -10.041 -23.914  0.00  0.00    +0.123 C 
ATOM     15  C   UNL     1      32.971 -10.114 -22.093  0.00  0.00    +0.241 C 
ATOM     16  C   UNL     1      32.204 -12.326 -21.355  0.00  0.00    +0.122 C 
ATOM     17  C   UNL     1      33.857  -7.946 -22.965  0.00  0.00    -0.010 C 
ATOM     18  C   UNL     1      35.469  -9.316 -24.781  0.00  0.00    +0.028 C 
ATOM     19  C   UNL     1      34.685  -7.237 -23.834  0.00  0.00    -0.004 C 
ATOM     20  C   UNL     1      35.490  -7.922 -24.742  0.00  0.00    +0.002 C 
ENDBRANCH   8  12
ENDBRANCH   7   8
ENDBRANCH   4   7
BRANCH   1  21
ATOM     21  C   UNL     1      35.290 -19.481 -21.098  0.00  0.00    +0.047 C 
BRANCH  21  26
ATOM     22  S   UNL     1      35.583 -20.923 -18.762  0.00  0.00    -0.048 S 
ATOM     23  O   UNL     1      32.358 -19.645 -20.452  0.00  0.00    -0.274 OA
ATOM     24  O   UNL     1      34.221 -22.983 -17.859  0.00  0.00    -0.263 OA
ATOM     25  N   UNL     1      33.102 -21.398 -19.139  0.00  0.00    -0.246 N 
ATOM     26  C   UNL     1      34.662 -19.683 -19.721  0.00  0.00    +0.137 C 
ATOM     27  C   UNL     1      33.249 -20.213 -19.829  0.00  0.00    +0.239 C 
ATOM     28  C   UNL     1      34.186 -21.946 -18.506  0.00  0.00    +0.279 C 
ATOM     29  H   UNL     1      32.226 -21.845 -19.102  0.00  0.00    +0.158 HD
ENDBRANCH  21  26
ENDBRANCH   1  21
TORSDOF 5
ENDMDL
MODEL 8
REMARK VINA RESULT:     -11.3      1.871      3.914
REMARK  Name = 9889200
REMARK  5 active torsions:
REMARK  status: ('A' for Active; 'I' for Inactive)
REMARK    1  A    between atoms: C_1  and  C_21
REMARK    2  A    between atoms: C_4  and  O_7
REMARK    3  A    between atoms: O_7  and  C_8
REMARK    4  A    between atoms: C_8  and  C_12
REMARK    5  A    between atoms: C_21  and  C_26
REMARK                            x       y       z     vdW  Elec       q    Type
REMARK                         _______ _______ _______ _____ _____    ______ ____
ROOT
ATOM      1  C   UNL     1      34.530 -19.628 -20.154  0.00  0.00    -0.021 C 
ATOM      2  C   UNL     1      35.894 -19.752 -19.896  0.00  0.00    -0.001 C 
ATOM      3  C   UNL     1      33.610 -20.379 -19.422  0.00  0.00    -0.001 C 
ATOM      4  C   UNL     1      35.418 -21.372 -18.184  0.00  0.00    +0.139 C 
ATOM      5  C   UNL     1      36.341 -20.629 -18.907  0.00  0.00    +0.037 C 
ATOM      6  C   UNL     1      34.056 -21.255 -18.432  0.00  0.00    +0.037 C 
ENDROOT
BRANCH   4   7
ATOM      7  O   UNL     1      35.858 -22.234 -17.208  0.00  0.00    -0.466 OA
BRANCH   7   8
ATOM      8  C   UNL     1      35.924 -21.736 -15.890  0.00  0.00    +0.279 C 
BRANCH   8  12
ATOM      9  O   UNL     1      34.544 -23.913 -11.803  0.00  0.00    -0.274 OA
ATOM     10  N   UNL     1      35.234 -22.856 -13.774  0.00  0.00    -0.232 N 
ATOM     11  N   UNL     1      33.686 -22.547 -15.552  0.00  0.00    -0.391 NA
ATOM     12  C   UNL     1      34.872 -22.414 -15.044  0.00  0.00    +0.210 C 
ATOM     13  C   UNL     1      32.952 -23.654 -13.495  0.00  0.00    +0.151 C 
ATOM     14  C   UNL     1      32.698 -23.174 -14.782  0.00  0.00    +0.123 C 
ATOM     15  C   UNL     1      34.310 -23.494 -12.933  0.00  0.00    +0.241 C 
ATOM     16  C   UNL     1      36.596 -22.668 -13.274  0.00  0.00    +0.122 C 
ATOM     17  C   UNL     1      31.943 -24.276 -12.752  0.00  0.00    -0.010 C 
ATOM     18  C   UNL     1      31.415 -23.324 -15.319  0.00  0.00    +0.028 C 
ATOM     19  C   UNL     1      30.669 -24.418 -13.298  0.00  0.00    -0.004 C 
ATOM     20  C   UNL     1      30.405 -23.942 -14.581  0.00  0.00    +0.002 C 
ENDBRANCH   8  12
ENDBRANCH   7   8
ENDBRANCH   4   7
BRANCH   1  21
ATOM     21  C   UNL     1      34.053 -18.693 -21.212  0.00  0.00    +0.047 C 
BRANCH  21  26
ATOM     22  S   UNL     1      35.505 -16.345 -21.148  0.00  0.00    -0.048 S 
ATOM     23  O   UNL     1      34.591 -18.567 -24.168  0.00  0.00    -0.274 OA
ATOM     24  O   UNL     1      35.415 -14.253 -22.738  0.00  0.00    -0.263 OA
ATOM     25  N   UNL     1      34.983 -16.347 -23.648  0.00  0.00    -0.246 N 
ATOM     26  C   UNL     1      35.205 -17.970 -21.907  0.00  0.00    +0.137 C 
ATOM     27  C   UNL     1      34.889 -17.693 -23.360  0.00  0.00    +0.239 C 
ATOM     28  C   UNL     1      35.296 -15.466 -22.647  0.00  0.00    +0.279 C 
ATOM     29  H   UNL     1      34.828 -16.024 -24.565  0.00  0.00    +0.158 HD
ENDBRANCH  21  26
ENDBRANCH   1  21
TORSDOF 5
ENDMDL
MODEL 9
REMARK VINA RESULT:     -11.1      7.758     12.334
REMARK  Name = 9889200
REMARK  5 active torsions:
REMARK  status: ('A' for Active; 'I' for Inactive)
REMARK    1  A    between atoms: C_1  and  C_21
REMARK    2  A    between atoms: C_4  and  O_7
REMARK    3  A    between atoms: O_7  and  C_8
REMARK    4  A    between atoms: C_8  and  C_12
REMARK    5  A    between atoms: C_21  and  C_26
REMARK                            x       y       z     vdW  Elec       q    Type
REMARK                         _______ _______ _______ _____ _____    ______ ____
ROOT
ATOM      1  C   UNL     1      31.998  -8.513 -22.015  0.00  0.00    -0.021 C 
ATOM      2  C   UNL     1      31.358  -9.447 -21.201  0.00  0.00    -0.001 C 
ATOM      3  C   UNL     1      33.048  -8.912 -22.843  0.00  0.00    -0.001 C 
ATOM      4  C   UNL     1      32.814 -11.167 -22.040  0.00  0.00    +0.139 C 
ATOM      5  C   UNL     1      31.768 -10.781 -21.214  0.00  0.00    +0.037 C 
ATOM      6  C   UNL     1      33.457 -10.245 -22.856  0.00  0.00    +0.037 C 
ENDROOT
BRANCH   4   7
ATOM      7  O   UNL     1      33.217 -12.481 -22.054  0.00  0.00    -0.466 OA
BRANCH   7   8
ATOM      8  C   UNL     1      34.456 -12.769 -22.664  0.00  0.00    +0.279 C 
BRANCH   8  12
ATOM      9  O   UNL     1      34.337 -16.947 -25.088  0.00  0.00    -0.274 OA
ATOM     10  N   UNL     1      34.386 -14.912 -23.933  0.00  0.00    -0.232 N 
ATOM     11  N   UNL     1      35.044 -14.868 -21.648  0.00  0.00    -0.391 NA
ATOM     12  C   UNL     1      34.647 -14.266 -22.726  0.00  0.00    +0.210 C 
ATOM     13  C   UNL     1      34.994 -17.003 -22.846  0.00  0.00    +0.151 C 
ATOM     14  C   UNL     1      35.226 -16.256 -21.688  0.00  0.00    +0.123 C 
ATOM     15  C   UNL     1      34.543 -16.301 -24.066  0.00  0.00    +0.241 C 
ATOM     16  C   UNL     1      33.941 -14.160 -25.105  0.00  0.00    +0.122 C 
ATOM     17  C   UNL     1      35.186 -18.389 -22.853  0.00  0.00    -0.010 C 
ATOM     18  C   UNL     1      35.654 -16.917 -20.532  0.00  0.00    +0.028 C 
ATOM     19  C   UNL     1      35.613 -19.034 -21.694  0.00  0.00    -0.004 C 
ATOM     20  C   UNL     1      35.847 -18.299 -20.533  0.00  0.00    +0.002 C 
ENDBRANCH   8  12
ENDBRANCH   7   8
ENDBRANCH   4   7
BRANCH   1  21
ATOM     21  C   UNL     1      31.560  -7.088 -22.001  0.00  0.00    +0.047 C 
BRANCH  21  26
ATOM     22  S   UNL     1      33.022  -6.808 -19.675  0.00  0.00    -0.048 S 
ATOM     23  O   UNL     1      31.579  -4.081 -21.994  0.00  0.00    -0.274 OA
ATOM     24  O   UNL     1      32.677  -5.176 -17.642  0.00  0.00    -0.263 OA
ATOM     25  N   UNL     1      32.074  -4.438 -19.762  0.00  0.00    -0.246 N 
ATOM     26  C   UNL     1      32.581  -6.177 -21.323  0.00  0.00    +0.137 C 
ATOM     27  C   UNL     1      32.020  -4.790 -21.095  0.00  0.00    +0.239 C 
ATOM     28  C   UNL     1      32.564  -5.334 -18.849  0.00  0.00    +0.279 C 
ATOM     29  H   UNL     1      31.765  -3.549 -19.471  0.00  0.00    +0.158 HD
ENDBRANCH  21  26
ENDBRANCH   1  21
TORSDOF 5
ENDMDL
