MODEL 1
REMARK VINA RESULT:     -12.8      0.000      0.000
REMARK  Name = 12087505
REMARK  3 active torsions:
REMARK  status: ('A' for Active; 'I' for Inactive)
REMARK    1  A    between atoms: C_1  and  S_18
REMARK    2  A    between atoms: C_4  and  N_9
REMARK    3  A    between atoms: S_18  and  N_21
REMARK                            x       y       z     vdW  Elec       q    Type
REMARK                         _______ _______ _______ _____ _____    ______ ____
ROOT
ATOM      1  C   UNL     1      35.164 -20.434 -19.264  0.00  0.00    +0.123 C 
ATOM      2  C   UNL     1      34.715 -19.479 -20.161  0.00  0.00    +0.035 C 
ATOM      3  C   UNL     1      36.503 -20.531 -18.925  0.00  0.00    +0.020 C 
ATOM      4  C   UNL     1      35.630 -18.596 -20.734  0.00  0.00    +0.053 C 
ATOM      5  C   UNL     1      37.420 -19.648 -19.497  0.00  0.00    +0.003 C 
ATOM      6  C   UNL     1      36.982 -18.680 -20.402  0.00  0.00    +0.015 C 
ENDROOT
BRANCH   4   9
ATOM      7  S   UNL     1      33.781 -13.861 -24.380  0.00  0.00    -0.051 S 
ATOM      8  O   UNL     1      35.433 -15.634 -20.437  0.00  0.00    -0.252 OA
ATOM      9  N   UNL     1      35.193 -17.628 -21.639  0.00  0.00    -0.268 N 
ATOM     10  N   UNL     1      34.615 -15.627 -22.633  0.00  0.00    -0.248 N 
ATOM     11  N   UNL     1      34.610 -13.304 -21.996  0.00  0.00    -0.222 NA
ATOM     12  C   UNL     1      35.112 -16.224 -21.464  0.00  0.00    +0.310 C 
ATOM     13  C   UNL     1      34.395 -14.264 -22.842  0.00  0.00    +0.167 C 
ATOM     14  C   UNL     1      33.789 -12.215 -23.898  0.00  0.00    +0.059 C 
ATOM     15  C   UNL     1      34.260 -12.115 -22.604  0.00  0.00    +0.108 C 
ATOM     16  H   UNL     1      34.901 -17.966 -22.517  0.00  0.00    +0.156 HD
ATOM     17  H   UNL     1      34.400 -16.231 -23.380  0.00  0.00    +0.158 HD
ENDBRANCH   4   9
BRANCH   1  18
ATOM     18  S   UNL     1      34.006 -21.553 -18.541  0.00  0.00    +0.063 S 
ATOM     19  O   UNL     1      32.752 -20.850 -18.378  0.00  0.00    -0.153 OA
ATOM     20  O   UNL     1      34.074 -22.800 -19.273  0.00  0.00    -0.153 OA
BRANCH  18  21
ATOM     21  N   UNL     1      34.726 -21.772 -17.002  0.00  0.00    -0.152 NA
ATOM     22  N   UNL     1      36.077 -22.680 -14.680  0.00  0.00    -0.290 N 
ATOM     23  C   UNL     1      34.116 -22.836 -16.156  0.00  0.00    +0.117 C 
ATOM     24  C   UNL     1      36.213 -21.875 -16.999  0.00  0.00    +0.117 C 
ATOM     25  C   UNL     1      34.608 -22.689 -14.719  0.00  0.00    +0.111 C 
ATOM     26  C   UNL     1      36.734 -21.719 -15.574  0.00  0.00    +0.111 C 
ATOM     27  N   UNL     1      36.073 -22.811 -12.287  0.00  0.00    -0.229 NA
ATOM     28  C   UNL     1      36.699 -23.048 -13.481  0.00  0.00    +0.132 C 
ATOM     29  C   UNL     1      37.960 -23.654 -13.541  0.00  0.00    +0.034 C 
ATOM     30  C   UNL     1      38.591 -24.023 -12.358  0.00  0.00    +0.004 C 
ATOM     31  C   UNL     1      36.716 -23.186 -11.158  0.00  0.00    +0.100 C 
ATOM     32  C   UNL     1      37.964 -23.789 -11.140  0.00  0.00    +0.021 C 
ENDBRANCH  18  21
ENDBRANCH   1  18
TORSDOF 3
ENDMDL
MODEL 2
REMARK VINA RESULT:     -12.7      2.485     10.568
REMARK  Name = 12087505
REMARK  3 active torsions:
REMARK  status: ('A' for Active; 'I' for Inactive)
REMARK    1  A    between atoms: C_1  and  S_18
REMARK    2  A    between atoms: C_4  and  N_9
REMARK    3  A    between atoms: S_18  and  N_21
REMARK                            x       y       z     vdW  Elec       q    Type
REMARK                         _______ _______ _______ _____ _____    ______ ____
ROOT
ATOM      1  C   UNL     1      35.534 -18.846 -20.937  0.00  0.00    +0.123 C 
ATOM      2  C   UNL     1      36.197 -19.406 -19.858  0.00  0.00    +0.035 C 
ATOM      3  C   UNL     1      34.178 -19.047 -21.133  0.00  0.00    +0.020 C 
ATOM      4  C   UNL     1      35.484 -20.189 -18.949  0.00  0.00    +0.053 C 
ATOM      5  C   UNL     1      33.464 -19.829 -20.224  0.00  0.00    +0.003 C 
ATOM      6  C   UNL     1      34.118 -20.399 -19.132  0.00  0.00    +0.015 C 
ENDROOT
BRANCH   4   9
ATOM      7  S   UNL     1      37.962 -23.103 -13.999  0.00  0.00    -0.051 S 
ATOM      8  O   UNL     1      34.652 -22.429 -17.163  0.00  0.00    -0.252 OA
ATOM      9  N   UNL     1      36.138 -20.759 -17.857  0.00  0.00    -0.268 N 
ATOM     10  N   UNL     1      36.680 -22.078 -16.043  0.00  0.00    -0.248 N 
ATOM     11  N   UNL     1      35.654 -23.900 -14.847  0.00  0.00    -0.222 NA
ATOM     12  C   UNL     1      35.712 -21.826 -17.027  0.00  0.00    +0.310 C 
ATOM     13  C   UNL     1      36.617 -23.053 -15.044  0.00  0.00    +0.167 C 
ATOM     14  C   UNL     1      37.207 -24.398 -13.168  0.00  0.00    +0.059 C 
ATOM     15  C   UNL     1      35.993 -24.682 -13.760  0.00  0.00    +0.108 C 
ATOM     16  H   UNL     1      37.013 -20.366 -17.631  0.00  0.00    +0.156 HD
ATOM     17  H   UNL     1      37.484 -21.510 -16.058  0.00  0.00    +0.158 HD
ENDBRANCH   4   9
BRANCH   1  18
ATOM     18  S   UNL     1      36.437 -17.858 -22.089  0.00  0.00    +0.063 S 
ATOM     19  O   UNL     1      37.815 -17.818 -21.653  0.00  0.00    -0.153 OA
ATOM     20  O   UNL     1      36.088 -18.299 -23.423  0.00  0.00    -0.153 OA
BRANCH  18  21
ATOM     21  N   UNL     1      35.715 -16.332 -21.801  0.00  0.00    -0.152 NA
ATOM     22  N   UNL     1      34.008 -14.133 -21.257  0.00  0.00    -0.290 N 
ATOM     23  C   UNL     1      34.724 -15.890 -22.823  0.00  0.00    +0.117 C 
ATOM     24  C   UNL     1      35.190 -16.122 -20.422  0.00  0.00    +0.117 C 
ATOM     25  C   UNL     1      34.431 -14.404 -22.637  0.00  0.00    +0.111 C 
ATOM     26  C   UNL     1      34.899 -14.640 -20.205  0.00  0.00    +0.111 C 
ATOM     27  N   UNL     1      33.405 -11.883 -21.819  0.00  0.00    -0.229 NA
ATOM     28  C   UNL     1      33.244 -12.984 -21.023  0.00  0.00    +0.132 C 
ATOM     29  C   UNL     1      32.325 -12.997 -19.965  0.00  0.00    +0.034 C 
ATOM     30  C   UNL     1      31.560 -11.862 -19.720  0.00  0.00    +0.004 C 
ATOM     31  C   UNL     1      32.643 -10.799 -21.551  0.00  0.00    +0.100 C 
ATOM     32  C   UNL     1      31.714 -10.739 -20.523  0.00  0.00    +0.021 C 
ENDBRANCH  18  21
ENDBRANCH   1  18
TORSDOF 3
ENDMDL
MODEL 3
REMARK VINA RESULT:     -12.3      2.261     10.908
REMARK  Name = 12087505
REMARK  3 active torsions:
REMARK  status: ('A' for Active; 'I' for Inactive)
REMARK    1  A    between atoms: C_1  and  S_18
REMARK    2  A    between atoms: C_4  and  N_9
REMARK    3  A    between atoms: S_18  and  N_21
REMARK                            x       y       z     vdW  Elec       q    Type
REMARK                         _______ _______ _______ _____ _____    ______ ____
ROOT
ATOM      1  C   UNL     1      35.013 -18.917 -21.192  0.00  0.00    +0.123 C 
ATOM      2  C   UNL     1      35.747 -19.441 -20.141  0.00  0.00    +0.035 C 
ATOM      3  C   UNL     1      33.640 -19.077 -21.264  0.00  0.00    +0.020 C 
ATOM      4  C   UNL     1      35.088 -20.145 -19.133  0.00  0.00    +0.053 C 
ATOM      5  C   UNL     1      32.980 -19.780 -20.255  0.00  0.00    +0.003 C 
ATOM      6  C   UNL     1      33.706 -20.314 -19.189  0.00  0.00    +0.015 C 
ENDROOT
BRANCH   4   9
ATOM      7  S   UNL     1      37.905 -22.915 -14.282  0.00  0.00    -0.051 S 
ATOM      8  O   UNL     1      34.440 -22.416 -17.310  0.00  0.00    -0.252 OA
ATOM      9  N   UNL     1      35.813 -20.678 -18.066  0.00  0.00    -0.268 N 
ATOM     10  N   UNL     1      36.493 -21.963 -16.273  0.00  0.00    -0.248 N 
ATOM     11  N   UNL     1      35.606 -23.828 -15.034  0.00  0.00    -0.222 NA
ATOM     12  C   UNL     1      35.474 -21.762 -17.218  0.00  0.00    +0.310 C 
ATOM     13  C   UNL     1      36.518 -22.935 -15.272  0.00  0.00    +0.167 C 
ATOM     14  C   UNL     1      37.249 -24.243 -13.418  0.00  0.00    +0.059 C 
ATOM     15  C   UNL     1      36.027 -24.588 -13.960  0.00  0.00    +0.108 C 
ATOM     16  H   UNL     1      36.676 -20.242 -17.877  0.00  0.00    +0.156 HD
ATOM     17  H   UNL     1      37.267 -21.356 -16.322  0.00  0.00    +0.158 HD
ENDBRANCH   4   9
BRANCH   1  18
ATOM     18  S   UNL     1      35.847 -18.028 -22.470  0.00  0.00    +0.063 S 
ATOM     19  O   UNL     1      37.217 -17.827 -22.049  0.00  0.00    -0.153 OA
ATOM     20  O   UNL     1      35.540 -18.668 -23.731  0.00  0.00    -0.153 OA
BRANCH  18  21
ATOM     21  N   UNL     1      35.013 -16.535 -22.386  0.00  0.00    -0.152 NA
ATOM     22  N   UNL     1      34.188 -13.822 -22.322  0.00  0.00    -0.290 N 
ATOM     23  C   UNL     1      35.333 -15.689 -21.202  0.00  0.00    +0.117 C 
ATOM     24  C   UNL     1      35.019 -15.727 -23.638  0.00  0.00    +0.117 C 
ATOM     25  C   UNL     1      34.290 -14.583 -21.069  0.00  0.00    +0.111 C 
ATOM     26  C   UNL     1      33.975 -14.618 -23.537  0.00  0.00    +0.111 C 
ATOM     27  N   UNL     1      32.782 -12.184 -21.281  0.00  0.00    -0.229 NA
ATOM     28  C   UNL     1      33.687 -12.517 -22.252  0.00  0.00    +0.132 C 
ATOM     29  C   UNL     1      34.134 -11.579 -23.192  0.00  0.00    +0.034 C 
ATOM     30  C   UNL     1      33.644 -10.279 -23.136  0.00  0.00    +0.004 C 
ATOM     31  C   UNL     1      32.329 -10.910 -21.258  0.00  0.00    +0.100 C 
ATOM     32  C   UNL     1      32.726  -9.929 -22.153  0.00  0.00    +0.021 C 
ENDBRANCH  18  21
ENDBRANCH   1  18
TORSDOF 3
ENDMDL
MODEL 4
REMARK VINA RESULT:     -11.5      3.807      7.154
REMARK  Name = 12087505
REMARK  3 active torsions:
REMARK  status: ('A' for Active; 'I' for Inactive)
REMARK    1  A    between atoms: C_1  and  S_18
REMARK    2  A    between atoms: C_4  and  N_9
REMARK    3  A    between atoms: S_18  and  N_21
REMARK                            x       y       z     vdW  Elec       q    Type
REMARK                         _______ _______ _______ _____ _____    ______ ____
ROOT
ATOM      1  C   UNL     1      37.614 -23.496 -13.161  0.00  0.00    +0.123 C 
ATOM      2  C   UNL     1      37.336 -22.625 -14.202  0.00  0.00    +0.035 C 
ATOM      3  C   UNL     1      38.739 -24.303 -13.175  0.00  0.00    +0.020 C 
ATOM      4  C   UNL     1      38.209 -22.561 -15.288  0.00  0.00    +0.053 C 
ATOM      5  C   UNL     1      39.613 -24.238 -14.261  0.00  0.00    +0.003 C 
ATOM      6  C   UNL     1      39.347 -23.366 -15.317  0.00  0.00    +0.015 C 
ENDROOT
BRANCH   4   9
ATOM      7  S   UNL     1      36.485 -18.866 -20.034  0.00  0.00    -0.051 S 
ATOM      8  O   UNL     1      35.705 -22.140 -16.856  0.00  0.00    -0.252 OA
ATOM      9  N   UNL     1      37.944 -21.688 -16.345  0.00  0.00    -0.268 N 
ATOM     10  N   UNL     1      36.914 -20.528 -18.053  0.00  0.00    -0.248 N 
ATOM     11  N   UNL     1      34.728 -20.495 -19.063  0.00  0.00    -0.222 NA
ATOM     12  C   UNL     1      36.739 -21.514 -17.069  0.00  0.00    +0.310 C 
ATOM     13  C   UNL     1      35.954 -20.081 -18.963  0.00  0.00    +0.167 C 
ATOM     14  C   UNL     1      34.919 -18.865 -20.732  0.00  0.00    +0.059 C 
ATOM     15  C   UNL     1      34.125 -19.792 -20.088  0.00  0.00    +0.108 C 
ATOM     16  H   UNL     1      38.697 -21.118 -16.626  0.00  0.00    +0.156 HD
ATOM     17  H   UNL     1      37.804 -20.111 -18.107  0.00  0.00    +0.158 HD
ENDBRANCH   4   9
BRANCH   1  18
ATOM     18  S   UNL     1      36.508 -23.580 -11.786  0.00  0.00    +0.063 S 
ATOM     19  O   UNL     1      36.537 -24.934 -11.276  0.00  0.00    -0.153 OA
ATOM     20  O   UNL     1      36.782 -22.450 -10.924  0.00  0.00    -0.153 OA
BRANCH  18  21
ATOM     21  N   UNL     1      35.017 -23.318 -12.589  0.00  0.00    -0.152 NA
ATOM     22  N   UNL     1      32.476 -23.487 -13.837  0.00  0.00    -0.290 N 
ATOM     23  C   UNL     1      34.886 -23.971 -13.923  0.00  0.00    +0.117 C 
ATOM     24  C   UNL     1      33.797 -23.541 -11.763  0.00  0.00    +0.117 C 
ATOM     25  C   UNL     1      33.688 -23.382 -14.661  0.00  0.00    +0.111 C 
ATOM     26  C   UNL     1      32.583 -22.951 -12.475  0.00  0.00    +0.111 C 
ATOM     27  N   UNL     1      31.098 -22.788 -15.668  0.00  0.00    -0.229 NA
ATOM     28  C   UNL     1      31.239 -23.472 -14.492  0.00  0.00    +0.132 C 
ATOM     29  C   UNL     1      30.169 -24.168 -13.914  0.00  0.00    +0.034 C 
ATOM     30  C   UNL     1      28.934 -24.162 -14.553  0.00  0.00    +0.004 C 
ATOM     31  C   UNL     1      29.882 -22.806 -16.261  0.00  0.00    +0.100 C 
ATOM     32  C   UNL     1      28.779 -23.471 -15.749  0.00  0.00    +0.021 C 
ENDBRANCH  18  21
ENDBRANCH   1  18
TORSDOF 3
ENDMDL
MODEL 5
REMARK VINA RESULT:     -10.9      2.840     11.146
REMARK  Name = 12087505
REMARK  3 active torsions:
REMARK  status: ('A' for Active; 'I' for Inactive)
REMARK    1  A    between atoms: C_1  and  S_18
REMARK    2  A    between atoms: C_4  and  N_9
REMARK    3  A    between atoms: S_18  and  N_21
REMARK                            x       y       z     vdW  Elec       q    Type
REMARK                         _______ _______ _______ _____ _____    ______ ____
ROOT
ATOM      1  C   UNL     1      34.997 -17.957 -22.848  0.00  0.00    +0.123 C 
ATOM      2  C   UNL     1      34.285 -18.710 -21.929  0.00  0.00    +0.035 C 
ATOM      3  C   UNL     1      36.294 -17.546 -22.594  0.00  0.00    +0.020 C 
ATOM      4  C   UNL     1      34.888 -19.062 -20.722  0.00  0.00    +0.053 C 
ATOM      5  C   UNL     1      36.899 -17.898 -21.387  0.00  0.00    +0.003 C 
ATOM      6  C   UNL     1      36.195 -18.657 -20.451  0.00  0.00    +0.015 C 
ENDROOT
BRANCH   4   9
ATOM      7  S   UNL     1      32.249 -22.632 -16.314  0.00  0.00    -0.051 S 
ATOM      8  O   UNL     1      35.888 -20.815 -18.524  0.00  0.00    -0.252 OA
ATOM      9  N   UNL     1      34.185 -19.822 -19.786  0.00  0.00    -0.268 N 
ATOM     10  N   UNL     1      33.631 -21.228 -18.042  0.00  0.00    -0.248 N 
ATOM     11  N   UNL     1      34.830 -22.528 -16.407  0.00  0.00    -0.222 NA
ATOM     12  C   UNL     1      34.694 -20.646 -18.751  0.00  0.00    +0.310 C 
ATOM     13  C   UNL     1      33.735 -22.100 -16.956  0.00  0.00    +0.167 C 
ATOM     14  C   UNL     1      33.130 -23.547 -15.162  0.00  0.00    +0.059 C 
ATOM     15  C   UNL     1      34.483 -23.367 -15.366  0.00  0.00    +0.108 C 
ATOM     16  H   UNL     1      33.203 -19.780 -19.854  0.00  0.00    +0.156 HD
ATOM     17  H   UNL     1      32.722 -20.999 -18.341  0.00  0.00    +0.158 HD
ENDBRANCH   4   9
BRANCH   1  18
ATOM     18  S   UNL     1      34.232 -17.509 -24.376  0.00  0.00    +0.063 S 
ATOM     19  O   UNL     1      35.233 -17.603 -25.416  0.00  0.00    -0.153 OA
ATOM     20  O   UNL     1      32.980 -18.229 -24.476  0.00  0.00    -0.153 OA
BRANCH  18  21
ATOM     21  N   UNL     1      33.900 -15.857 -24.068  0.00  0.00    -0.152 NA
ATOM     22  N   UNL     1      33.929 -13.040 -23.741  0.00  0.00    -0.290 N 
ATOM     23  C   UNL     1      34.676 -15.247 -22.951  0.00  0.00    +0.117 C 
ATOM     24  C   UNL     1      33.899 -14.970 -25.265  0.00  0.00    +0.117 C 
ATOM     25  C   UNL     1      34.046 -13.912 -22.564  0.00  0.00    +0.111 C 
ATOM     26  C   UNL     1      33.263 -13.629 -24.908  0.00  0.00    +0.111 C 
ATOM     27  N   UNL     1      33.289 -11.179 -22.373  0.00  0.00    -0.229 NA
ATOM     28  C   UNL     1      33.852 -11.659 -23.524  0.00  0.00    +0.132 C 
ATOM     29  C   UNL     1      34.362 -10.800 -24.505  0.00  0.00    +0.034 C 
ATOM     30  C   UNL     1      34.293  -9.426 -24.304  0.00  0.00    +0.004 C 
ATOM     31  C   UNL     1      33.240  -9.838 -22.212  0.00  0.00    +0.100 C 
ATOM     32  C   UNL     1      33.723  -8.927 -23.138  0.00  0.00    +0.021 C 
ENDBRANCH  18  21
ENDBRANCH   1  18
TORSDOF 3
ENDMDL
MODEL 6
REMARK VINA RESULT:     -10.2      4.373      6.977
REMARK  Name = 12087505
REMARK  3 active torsions:
REMARK  status: ('A' for Active; 'I' for Inactive)
REMARK    1  A    between atoms: C_1  and  S_18
REMARK    2  A    between atoms: C_4  and  N_9
REMARK    3  A    between atoms: S_18  and  N_21
REMARK                            x       y       z     vdW  Elec       q    Type
REMARK                         _______ _______ _______ _____ _____    ______ ____
ROOT
ATOM      1  C   UNL     1      35.069 -23.053 -14.592  0.00  0.00    +0.123 C 
ATOM      2  C   UNL     1      34.712 -22.491 -15.806  0.00  0.00    +0.035 C 
ATOM      3  C   UNL     1      36.370 -22.990 -14.122  0.00  0.00    +0.020 C 
ATOM      4  C   UNL     1      35.684 -21.847 -16.572  0.00  0.00    +0.053 C 
ATOM      5  C   UNL     1      37.343 -22.345 -14.887  0.00  0.00    +0.003 C 
ATOM      6  C   UNL     1      36.998 -21.773 -16.112  0.00  0.00    +0.015 C 
ENDROOT
BRANCH   4   9
ATOM      7  S   UNL     1      34.627 -18.962 -22.021  0.00  0.00    -0.051 S 
ATOM      8  O   UNL     1      37.089 -19.768 -18.186  0.00  0.00    -0.252 OA
ATOM      9  N   UNL     1      35.341 -21.274 -17.797  0.00  0.00    -0.268 N 
ATOM     10  N   UNL     1      35.331 -19.997 -19.719  0.00  0.00    -0.248 N 
ATOM     11  N   UNL     1      36.757 -18.323 -20.703  0.00  0.00    -0.222 NA
ATOM     12  C   UNL     1      36.034 -20.285 -18.538  0.00  0.00    +0.310 C 
ATOM     13  C   UNL     1      35.700 -19.077 -20.702  0.00  0.00    +0.167 C 
ATOM     14  C   UNL     1      35.661 -17.774 -22.697  0.00  0.00    +0.059 C 
ATOM     15  C   UNL     1      36.738 -17.566 -21.858  0.00  0.00    +0.108 C 
ATOM     16  H   UNL     1      34.503 -21.600 -18.200  0.00  0.00    +0.156 HD
ATOM     17  H   UNL     1      34.495 -20.494 -19.868  0.00  0.00    +0.158 HD
ENDBRANCH   4   9
BRANCH   1  18
ATOM     18  S   UNL     1      33.840 -23.872 -13.623  0.00  0.00    +0.063 S 
ATOM     19  O   UNL     1      33.882 -25.280 -13.951  0.00  0.00    -0.153 OA
ATOM     20  O   UNL     1      33.975 -23.418 -12.256  0.00  0.00    -0.153 OA
BRANCH  18  21
ATOM     21  N   UNL     1      32.424 -23.184 -14.300  0.00  0.00    -0.152 NA
ATOM     22  N   UNL     1      29.792 -22.438 -15.049  0.00  0.00    -0.290 N 
ATOM     23  C   UNL     1      31.596 -24.108 -15.125  0.00  0.00    +0.117 C 
ATOM     24  C   UNL     1      31.575 -22.407 -13.354  0.00  0.00    +0.117 C 
ATOM     25  C   UNL     1      30.585 -23.301 -15.934  0.00  0.00    +0.111 C 
ATOM     26  C   UNL     1      30.560 -21.579 -14.139  0.00  0.00    +0.111 C 
ATOM     27  N   UNL     1      28.313 -21.855 -16.842  0.00  0.00    -0.229 NA
ATOM     28  C   UNL     1      28.536 -22.018 -15.501  0.00  0.00    +0.132 C 
ATOM     29  C   UNL     1      27.533 -21.773 -14.555  0.00  0.00    +0.034 C 
ATOM     30  C   UNL     1      26.280 -21.355 -14.990  0.00  0.00    +0.004 C 
ATOM     31  C   UNL     1      27.082 -21.449 -17.226  0.00  0.00    +0.100 C 
ATOM     32  C   UNL     1      26.041 -21.188 -16.349  0.00  0.00    +0.021 C 
ENDBRANCH  18  21
ENDBRANCH   1  18
TORSDOF 3
ENDMDL
MODEL 7
REMARK VINA RESULT:     -10.2      4.620      8.048
REMARK  Name = 12087505
REMARK  3 active torsions:
REMARK  status: ('A' for Active; 'I' for Inactive)
REMARK    1  A    between atoms: C_1  and  S_18
REMARK    2  A    between atoms: C_4  and  N_9
REMARK    3  A    between atoms: S_18  and  N_21
REMARK                            x       y       z     vdW  Elec       q    Type
REMARK                         _______ _______ _______ _____ _____    ______ ____
ROOT
ATOM      1  C   UNL     1      33.989 -13.608 -22.955  0.00  0.00    +0.123 C 
ATOM      2  C   UNL     1      33.990 -12.336 -23.505  0.00  0.00    +0.035 C 
ATOM      3  C   UNL     1      33.489 -13.845 -21.686  0.00  0.00    +0.020 C 
ATOM      4  C   UNL     1      33.474 -11.273 -22.764  0.00  0.00    +0.053 C 
ATOM      5  C   UNL     1      32.972 -12.782 -20.945  0.00  0.00    +0.003 C 
ATOM      6  C   UNL     1      32.965 -11.495 -21.485  0.00  0.00    +0.015 C 
ENDROOT
BRANCH   4   9
ATOM      7  S   UNL     1      33.171  -5.332 -24.701  0.00  0.00    -0.051 S 
ATOM      8  O   UNL     1      32.408  -8.722 -21.643  0.00  0.00    -0.252 OA
ATOM      9  N   UNL     1      33.466  -9.986 -23.304  0.00  0.00    -0.268 N 
ATOM     10  N   UNL     1      33.152  -7.723 -23.628  0.00  0.00    -0.248 N 
ATOM     11  N   UNL     1      32.179  -5.905 -22.383  0.00  0.00    -0.222 NA
ATOM     12  C   UNL     1      32.950  -8.792 -22.742  0.00  0.00    +0.310 C 
ATOM     13  C   UNL     1      32.779  -6.393 -23.426  0.00  0.00    +0.167 C 
ATOM     14  C   UNL     1      32.471  -4.058 -23.791  0.00  0.00    +0.059 C 
ATOM     15  C   UNL     1      31.998  -4.551 -22.592  0.00  0.00    +0.108 C 
ATOM     16  H   UNL     1      33.874  -9.896 -24.196  0.00  0.00    +0.156 HD
ATOM     17  H   UNL     1      33.603  -7.933 -24.478  0.00  0.00    +0.158 HD
ENDBRANCH   4   9
BRANCH   1  18
ATOM     18  S   UNL     1      34.644 -14.954 -23.891  0.00  0.00    +0.063 S 
ATOM     19  O   UNL     1      33.673 -15.304 -24.905  0.00  0.00    -0.153 OA
ATOM     20  O   UNL     1      36.009 -14.628 -24.246  0.00  0.00    -0.153 OA
BRANCH  18  21
ATOM     21  N   UNL     1      34.658 -16.173 -22.688  0.00  0.00    -0.152 NA
ATOM     22  N   UNL     1      35.218 -18.341 -20.947  0.00  0.00    -0.290 N 
ATOM     23  C   UNL     1      34.579 -17.573 -23.194  0.00  0.00    +0.117 C 
ATOM     24  C   UNL     1      35.722 -16.039 -21.653  0.00  0.00    +0.117 C 
ATOM     25  C   UNL     1      34.251 -18.514 -22.039  0.00  0.00    +0.111 C 
ATOM     26  C   UNL     1      35.412 -16.963 -20.478  0.00  0.00    +0.111 C 
ATOM     27  N   UNL     1      34.352 -20.256 -19.796  0.00  0.00    -0.229 NA
ATOM     28  C   UNL     1      35.392 -19.406 -20.056  0.00  0.00    +0.132 C 
ATOM     29  C   UNL     1      36.644 -19.571 -19.449  0.00  0.00    +0.034 C 
ATOM     30  C   UNL     1      36.832 -20.625 -18.561  0.00  0.00    +0.004 C 
ATOM     31  C   UNL     1      34.573 -21.269 -18.929  0.00  0.00    +0.100 C 
ATOM     32  C   UNL     1      35.783 -21.495 -18.291  0.00  0.00    +0.021 C 
ENDBRANCH  18  21
ENDBRANCH   1  18
TORSDOF 3
ENDMDL
MODEL 8
REMARK VINA RESULT:     -10.1      3.225     10.871
REMARK  Name = 12087505
REMARK  3 active torsions:
REMARK  status: ('A' for Active; 'I' for Inactive)
REMARK    1  A    between atoms: C_1  and  S_18
REMARK    2  A    between atoms: C_4  and  N_9
REMARK    3  A    between atoms: S_18  and  N_21
REMARK                            x       y       z     vdW  Elec       q    Type
REMARK                         _______ _______ _______ _____ _____    ______ ____
ROOT
ATOM      1  C   UNL     1      34.802 -18.995 -20.482  0.00  0.00    +0.123 C 
ATOM      2  C   UNL     1      34.924 -19.769 -19.340  0.00  0.00    +0.035 C 
ATOM      3  C   UNL     1      33.663 -19.042 -21.268  0.00  0.00    +0.020 C 
ATOM      4  C   UNL     1      33.876 -20.614 -18.974  0.00  0.00    +0.053 C 
ATOM      5  C   UNL     1      32.614 -19.886 -20.902  0.00  0.00    +0.003 C 
ATOM      6  C   UNL     1      32.721 -20.671 -19.753  0.00  0.00    +0.015 C 
ENDROOT
BRANCH   4   9
ATOM      7  S   UNL     1      33.775 -24.115 -13.790  0.00  0.00    -0.051 S 
ATOM      8  O   UNL     1      31.754 -21.678 -17.167  0.00  0.00    -0.252 OA
ATOM      9  N   UNL     1      33.982 -21.399 -17.826  0.00  0.00    -0.268 N 
ATOM     10  N   UNL     1      33.504 -22.640 -15.940  0.00  0.00    -0.248 N 
ATOM     11  N   UNL     1      31.517 -23.298 -14.747  0.00  0.00    -0.222 NA
ATOM     12  C   UNL     1      32.949 -21.889 -16.988  0.00  0.00    +0.310 C 
ATOM     13  C   UNL     1      32.804 -23.281 -14.915  0.00  0.00    +0.167 C 
ATOM     14  C   UNL     1      32.343 -24.568 -12.963  0.00  0.00    +0.059 C 
ATOM     15  C   UNL     1      31.246 -24.044 -13.616  0.00  0.00    +0.108 C 
ATOM     16  H   UNL     1      34.898 -21.646 -17.561  0.00  0.00    +0.156 HD
ATOM     17  H   UNL     1      34.485 -22.723 -15.925  0.00  0.00    +0.158 HD
ENDBRANCH   4   9
BRANCH   1  18
ATOM     18  S   UNL     1      36.130 -17.928 -20.948  0.00  0.00    +0.063 S 
ATOM     19  O   UNL     1      36.970 -17.733 -19.787  0.00  0.00    -0.153 OA
ATOM     20  O   UNL     1      36.679 -18.417 -22.194  0.00  0.00    -0.153 OA
BRANCH  18  21
ATOM     21  N   UNL     1      35.258 -16.485 -21.253  0.00  0.00    -0.152 NA
ATOM     22  N   UNL     1      34.367 -13.838 -21.745  0.00  0.00    -0.290 N 
ATOM     23  C   UNL     1      35.289 -15.475 -20.158  0.00  0.00    +0.117 C 
ATOM     24  C   UNL     1      35.516 -15.848 -22.575  0.00  0.00    +0.117 C 
ATOM     25  C   UNL     1      34.213 -14.422 -20.406  0.00  0.00    +0.111 C 
ATOM     26  C   UNL     1      34.446 -14.796 -22.854  0.00  0.00    +0.111 C 
ATOM     27  N   UNL     1      32.724 -12.160 -21.268  0.00  0.00    -0.229 NA
ATOM     28  C   UNL     1      33.828 -12.565 -21.967  0.00  0.00    +0.132 C 
ATOM     29  C   UNL     1      34.445 -11.734 -22.911  0.00  0.00    +0.034 C 
ATOM     30  C   UNL     1      33.920 -10.467 -23.142  0.00  0.00    +0.004 C 
ATOM     31  C   UNL     1      32.244 -10.922 -21.519  0.00  0.00    +0.100 C 
ATOM     32  C   UNL     1      32.800 -10.045 -22.437  0.00  0.00    +0.021 C 
ENDBRANCH  18  21
ENDBRANCH   1  18
TORSDOF 3
ENDMDL
MODEL 9
REMARK VINA RESULT:     -10.1      7.639     11.710
REMARK  Name = 12087505
REMARK  3 active torsions:
REMARK  status: ('A' for Active; 'I' for Inactive)
REMARK    1  A    between atoms: C_1  and  S_18
REMARK    2  A    between atoms: C_4  and  N_9
REMARK    3  A    between atoms: S_18  and  N_21
REMARK                            x       y       z     vdW  Elec       q    Type
REMARK                         _______ _______ _______ _____ _____    ______ ____
ROOT
ATOM      1  C   UNL     1      32.006  -8.867 -20.414  0.00  0.00    +0.123 C 
ATOM      2  C   UNL     1      32.225  -8.251 -21.634  0.00  0.00    +0.035 C 
ATOM      3  C   UNL     1      32.569  -8.379 -19.247  0.00  0.00    +0.020 C 
ATOM      4  C   UNL     1      33.030  -7.113 -21.690  0.00  0.00    +0.053 C 
ATOM      5  C   UNL     1      33.374  -7.240 -19.301  0.00  0.00    +0.003 C 
ATOM      6  C   UNL     1      33.603  -6.607 -20.523  0.00  0.00    +0.015 C 
ENDROOT
BRANCH   4   9
ATOM      7  S   UNL     1      33.633  -3.908 -27.028  0.00  0.00    -0.051 S 
ATOM      8  O   UNL     1      31.685  -4.748 -22.914  0.00  0.00    -0.252 OA
ATOM      9  N   UNL     1      33.260  -6.479 -22.911  0.00  0.00    -0.268 N 
ATOM     10  N   UNL     1      33.150  -5.049 -24.719  0.00  0.00    -0.248 N 
ATOM     11  N   UNL     1      31.824  -3.139 -25.349  0.00  0.00    -0.222 NA
ATOM     12  C   UNL     1      32.600  -5.354 -23.464  0.00  0.00    +0.310 C 
ATOM     13  C   UNL     1      32.762  -4.010 -25.567  0.00  0.00    +0.167 C 
ATOM     14  C   UNL     1      32.674  -2.550 -27.449  0.00  0.00    +0.059 C 
ATOM     15  C   UNL     1      31.771  -2.291 -26.438  0.00  0.00    +0.108 C 
ATOM     16  H   UNL     1      33.976  -6.868 -23.465  0.00  0.00    +0.156 HD
ATOM     17  H   UNL     1      33.882  -5.627 -25.033  0.00  0.00    +0.158 HD
ENDBRANCH   4   9
BRANCH   1  18
ATOM     18  S   UNL     1      30.989 -10.310 -20.344  0.00  0.00    +0.063 S 
ATOM     19  O   UNL     1      30.468 -10.420 -18.998  0.00  0.00    -0.153 OA
ATOM     20  O   UNL     1      30.104 -10.287 -21.488  0.00  0.00    -0.153 OA
BRANCH  18  21
ATOM     21  N   UNL     1      32.177 -11.521 -20.583  0.00  0.00    -0.152 NA
ATOM     22  N   UNL     1      33.715 -13.783 -21.333  0.00  0.00    -0.290 N 
ATOM     23  C   UNL     1      31.839 -12.865 -20.034  0.00  0.00    +0.117 C 
ATOM     24  C   UNL     1      32.711 -11.630 -21.970  0.00  0.00    +0.117 C 
ATOM     25  C   UNL     1      33.094 -13.732 -20.003  0.00  0.00    +0.111 C 
ATOM     26  C   UNL     1      33.975 -12.484 -21.966  0.00  0.00    +0.111 C 
ATOM     27  N   UNL     1      35.240 -15.488 -20.622  0.00  0.00    -0.229 NA
ATOM     28  C   UNL     1      34.542 -14.874 -21.625  0.00  0.00    +0.132 C 
ATOM     29  C   UNL     1      34.630 -15.308 -22.954  0.00  0.00    +0.034 C 
ATOM     30  C   UNL     1      35.448 -16.390 -23.260  0.00  0.00    +0.004 C 
ATOM     31  C   UNL     1      36.024 -16.538 -20.957  0.00  0.00    +0.100 C 
ATOM     32  C   UNL     1      36.161 -17.023 -22.249  0.00  0.00    +0.021 C 
ENDBRANCH  18  21
ENDBRANCH   1  18
TORSDOF 3
ENDMDL
