MODEL 1
REMARK VINA RESULT:     -13.0      0.000      0.000
REMARK  Name = 9924495
REMARK  4 active torsions:
REMARK  status: ('A' for Active; 'I' for Inactive)
REMARK    1  A    between atoms: N_2  and  C_22
REMARK    2  A    between atoms: C_3  and  C_14
REMARK    3  A    between atoms: C_4  and  C_9
REMARK    4  A    between atoms: C_15  and  C_21
REMARK                            x       y       z     vdW  Elec       q    Type
REMARK                         _______ _______ _______ _____ _____    ______ ____
ROOT
ATOM      1  O   UNL     1      36.984 -22.327 -15.953  0.00  0.00    -0.269 OA
ATOM      2  N   UNL     1      34.732 -22.081 -16.601  0.00  0.00    -0.233 N 
ATOM      3  C   UNL     1      35.377 -23.197 -14.474  0.00  0.00    +0.055 C 
ATOM      4  C   UNL     1      33.059 -23.132 -15.221  0.00  0.00    +0.033 C 
ATOM      5  C   UNL     1      35.781 -22.476 -15.735  0.00  0.00    +0.257 C 
ATOM      6  C   UNL     1      34.085 -23.496 -14.272  0.00  0.00    +0.007 C 
ATOM      7  C   UNL     1      33.415 -22.442 -16.317  0.00  0.00    +0.074 C 
ENDROOT
BRANCH   4   9
ATOM      8  N   UNL     1      31.370 -24.497 -14.204  0.00  0.00    -0.244 NA
ATOM      9  C   UNL     1      31.631 -23.446 -15.012  0.00  0.00    +0.083 C 
ATOM     10  C   UNL     1      30.658 -22.680 -15.631  0.00  0.00    +0.019 C 
ATOM     11  C   UNL     1      29.327 -23.014 -15.405  0.00  0.00    +0.003 C 
ATOM     12  C   UNL     1      30.065 -24.792 -14.009  0.00  0.00    +0.099 C 
ATOM     13  C   UNL     1      29.017 -24.088 -14.580  0.00  0.00    +0.021 C 
ENDBRANCH   4   9
BRANCH   3  14
ATOM     14  C   UNL     1      36.380 -23.573 -13.461  0.00  0.00    +0.014 C 
ATOM     15  C   UNL     1      37.100 -24.765 -13.542  0.00  0.00    +0.069 C 
ATOM     16  C   UNL     1      36.601 -22.696 -12.399  0.00  0.00    +0.001 C 
ATOM     17  C   UNL     1      38.039 -25.081 -12.560  0.00  0.00    +0.010 C 
ATOM     18  C   UNL     1      37.541 -23.011 -11.418  0.00  0.00    +0.000 C 
ATOM     19  C   UNL     1      38.260 -24.203 -11.499  0.00  0.00    +0.001 C 
BRANCH  15  21
ATOM     20  N   UNL     1      36.740 -26.438 -15.487  0.00  0.00    -0.191 NA
ATOM     21  C   UNL     1      36.900 -25.690 -14.617  0.00  0.00    +0.100 C 
ENDBRANCH  15  21
ENDBRANCH   3  14
BRANCH   2  22
ATOM     22  C   UNL     1      35.040 -21.326 -17.801  0.00  0.00    +0.058 C 
ATOM     23  C   UNL     1      36.361 -21.014 -18.097  0.00  0.00    +0.015 C 
ATOM     24  C   UNL     1      34.009 -20.923 -18.643  0.00  0.00    +0.015 C 
ATOM     25  C   UNL     1      36.656 -20.288 -19.251  0.00  0.00    +0.001 C 
ATOM     26  C   UNL     1      34.305 -20.197 -19.796  0.00  0.00    +0.001 C 
ATOM     27  C   UNL     1      35.628 -19.880 -20.101  0.00  0.00    +0.000 C 
ENDBRANCH   2  22
TORSDOF 4
ENDMDL
MODEL 2
REMARK VINA RESULT:     -10.2      1.312      2.140
REMARK  Name = 9924495
REMARK  4 active torsions:
REMARK  status: ('A' for Active; 'I' for Inactive)
REMARK    1  A    between atoms: N_2  and  C_22
REMARK    2  A    between atoms: C_3  and  C_14
REMARK    3  A    between atoms: C_4  and  C_9
REMARK    4  A    between atoms: C_15  and  C_21
REMARK                            x       y       z     vdW  Elec       q    Type
REMARK                         _______ _______ _______ _____ _____    ______ ____
ROOT
ATOM      1  O   UNL     1      37.199 -22.199 -16.507  0.00  0.00    -0.269 OA
ATOM      2  N   UNL     1      34.868 -22.001 -16.791  0.00  0.00    -0.233 N 
ATOM      3  C   UNL     1      35.863 -23.193 -14.848  0.00  0.00    +0.055 C 
ATOM      4  C   UNL     1      33.456 -23.174 -15.229  0.00  0.00    +0.033 C 
ATOM      5  C   UNL     1      36.048 -22.400 -16.117  0.00  0.00    +0.257 C 
ATOM      6  C   UNL     1      34.625 -23.546 -14.468  0.00  0.00    +0.007 C 
ATOM      7  C   UNL     1      33.620 -22.420 -16.329  0.00  0.00    +0.074 C 
ENDROOT
BRANCH   4   9
ATOM      8  N   UNL     1      31.094 -23.127 -15.638  0.00  0.00    -0.244 NA
ATOM      9  C   UNL     1      32.086 -23.546 -14.822  0.00  0.00    +0.083 C 
ATOM     10  C   UNL     1      31.885 -24.278 -13.665  0.00  0.00    +0.019 C 
ATOM     11  C   UNL     1      30.577 -24.604 -13.321  0.00  0.00    +0.003 C 
ATOM     12  C   UNL     1      29.836 -23.462 -15.272  0.00  0.00    +0.099 C 
ATOM     13  C   UNL     1      29.528 -24.192 -14.135  0.00  0.00    +0.021 C 
ENDBRANCH   4   9
BRANCH   3  14
ATOM     14  C   UNL     1      37.019 -23.581 -14.021  0.00  0.00    +0.014 C 
ATOM     15  C   UNL     1      36.946 -23.639 -12.630  0.00  0.00    +0.069 C 
ATOM     16  C   UNL     1      38.213 -23.896 -14.670  0.00  0.00    +0.001 C 
ATOM     17  C   UNL     1      38.066 -24.010 -11.886  0.00  0.00    +0.010 C 
ATOM     18  C   UNL     1      39.334 -24.269 -13.927  0.00  0.00    +0.000 C 
ATOM     19  C   UNL     1      39.260 -24.326 -12.535  0.00  0.00    +0.001 C 
BRANCH  15  21
ATOM     20  N   UNL     1      34.760 -23.067 -11.361  0.00  0.00    -0.191 NA
ATOM     21  C   UNL     1      35.737 -23.322 -11.929  0.00  0.00    +0.100 C 
ENDBRANCH  15  21
ENDBRANCH   3  14
BRANCH   2  22
ATOM     22  C   UNL     1      34.967 -21.179 -17.983  0.00  0.00    +0.058 C 
ATOM     23  C   UNL     1      33.811 -20.790 -18.649  0.00  0.00    +0.015 C 
ATOM     24  C   UNL     1      36.218 -20.789 -18.446  0.00  0.00    +0.015 C 
ATOM     25  C   UNL     1      33.908 -20.000 -19.794  0.00  0.00    +0.001 C 
ATOM     26  C   UNL     1      36.315 -19.998 -19.591  0.00  0.00    +0.001 C 
ATOM     27  C   UNL     1      35.159 -19.604 -20.265  0.00  0.00    +0.000 C 
ENDBRANCH   2  22
TORSDOF 4
ENDMDL
MODEL 3
REMARK VINA RESULT:     -10.2      1.687      6.395
REMARK  Name = 9924495
REMARK  4 active torsions:
REMARK  status: ('A' for Active; 'I' for Inactive)
REMARK    1  A    between atoms: N_2  and  C_22
REMARK    2  A    between atoms: C_3  and  C_14
REMARK    3  A    between atoms: C_4  and  C_9
REMARK    4  A    between atoms: C_15  and  C_21
REMARK                            x       y       z     vdW  Elec       q    Type
REMARK                         _______ _______ _______ _____ _____    ______ ____
ROOT
ATOM      1  O   UNL     1      32.373 -22.059 -17.372  0.00  0.00    -0.269 OA
ATOM      2  N   UNL     1      32.620 -23.094 -15.270  0.00  0.00    -0.233 N 
ATOM      3  C   UNL     1      34.567 -22.216 -16.545  0.00  0.00    +0.055 C 
ATOM      4  C   UNL     1      34.864 -23.462 -14.471  0.00  0.00    +0.033 C 
ATOM      5  C   UNL     1      33.079 -22.428 -16.433  0.00  0.00    +0.257 C 
ATOM      6  C   UNL     1      35.376 -22.727 -15.604  0.00  0.00    +0.007 C 
ATOM      7  C   UNL     1      33.534 -23.600 -14.346  0.00  0.00    +0.074 C 
ENDROOT
BRANCH   4   9
ATOM      8  N   UNL     1      35.430 -23.683 -12.152  0.00  0.00    -0.244 NA
ATOM      9  C   UNL     1      35.739 -24.023 -13.422  0.00  0.00    +0.083 C 
ATOM     10  C   UNL     1      36.800 -24.841 -13.772  0.00  0.00    +0.019 C 
ATOM     11  C   UNL     1      37.596 -25.345 -12.750  0.00  0.00    +0.003 C 
ATOM     12  C   UNL     1      36.226 -24.192 -11.185  0.00  0.00    +0.099 C 
ATOM     13  C   UNL     1      37.310 -25.019 -11.429  0.00  0.00    +0.021 C 
ENDBRANCH   4   9
BRANCH   3  14
ATOM     14  C   UNL     1      35.143 -21.456 -17.668  0.00  0.00    +0.014 C 
ATOM     15  C   UNL     1      36.461 -21.001 -17.654  0.00  0.00    +0.069 C 
ATOM     16  C   UNL     1      34.327 -21.194 -18.770  0.00  0.00    +0.001 C 
ATOM     17  C   UNL     1      36.964 -20.284 -18.740  0.00  0.00    +0.010 C 
ATOM     18  C   UNL     1      34.829 -20.478 -19.856  0.00  0.00    +0.000 C 
ATOM     19  C   UNL     1      36.148 -20.023 -19.841  0.00  0.00    +0.001 C 
BRANCH  15  21
ATOM     20  N   UNL     1      38.028 -21.450 -15.640  0.00  0.00    -0.191 NA
ATOM     21  C   UNL     1      37.328 -21.250 -16.541  0.00  0.00    +0.100 C 
ENDBRANCH  15  21
ENDBRANCH   3  14
BRANCH   2  22
ATOM     22  C   UNL     1      31.196 -23.275 -15.063  0.00  0.00    +0.058 C 
ATOM     23  C   UNL     1      30.320 -22.237 -15.360  0.00  0.00    +0.015 C 
ATOM     24  C   UNL     1      30.721 -24.485 -14.570  0.00  0.00    +0.015 C 
ATOM     25  C   UNL     1      28.951 -22.411 -15.161  0.00  0.00    +0.001 C 
ATOM     26  C   UNL     1      29.351 -24.659 -14.371  0.00  0.00    +0.001 C 
ATOM     27  C   UNL     1      28.466 -23.622 -14.667  0.00  0.00    +0.000 C 
ENDBRANCH   2  22
TORSDOF 4
ENDMDL
