MODEL 1
REMARK VINA RESULT:     -12.4      0.000      0.000
REMARK  Name = 60870
REMARK  7 active torsions:
REMARK  status: ('A' for Active; 'I' for Inactive)
REMARK    1  A    between atoms: C_2  and  C_4
REMARK    2  A    between atoms: C_2  and  C_18
REMARK    3  A    between atoms: C_3  and  C_9
REMARK    4  A    between atoms: C_9  and  C_14
REMARK    5  A    between atoms: C_18  and  C_19
REMARK    6  A    between atoms: C_19  and  C_22
REMARK    7  A    between atoms: C_24  and  C_26
REMARK                            x       y       z     vdW  Elec       q    Type
REMARK                         _______ _______ _______ _____ _____    ______ ____
ROOT
ATOM      1  O   UNL     1      33.853 -23.510 -18.160  0.00  0.00    -0.291 OA
ATOM      2  C   UNL     1      33.642 -22.301 -17.931  0.00  0.00    +0.173 C 
ENDROOT
BRANCH   2   4
ATOM      3  C   UNL     1      35.324 -19.305 -20.395  0.00  0.00    -0.021 C 
ATOM      4  C   UNL     1      34.221 -21.271 -18.780  0.00  0.00    +0.035 C 
ATOM      5  C   UNL     1      36.161 -20.168 -19.705  0.00  0.00    -0.004 C 
ATOM      6  C   UNL     1      33.945 -19.407 -20.292  0.00  0.00    -0.004 C 
ATOM      7  C   UNL     1      35.606 -21.158 -18.892  0.00  0.00    +0.003 C 
ATOM      8  C   UNL     1      33.390 -20.396 -19.479  0.00  0.00    +0.003 C 
BRANCH   3   9
ATOM      9  C   UNL     1      35.924 -18.237 -21.274  0.00  0.00    +0.047 C 
BRANCH   9  14
ATOM     10  S   UNL     1      34.690 -17.727 -23.683  0.00  0.00    -0.048 S 
ATOM     11  O   UNL     1      35.459 -15.315 -20.770  0.00  0.00    -0.274 OA
ATOM     12  O   UNL     1      34.993 -15.715 -25.348  0.00  0.00    -0.263 OA
ATOM     13  N   UNL     1      35.255 -15.312 -23.074  0.00  0.00    -0.246 N 
ATOM     14  C   UNL     1      34.859 -17.361 -21.909  0.00  0.00    +0.137 C 
ATOM     15  C   UNL     1      35.225 -15.896 -21.824  0.00  0.00    +0.239 C 
ATOM     16  C   UNL     1      35.002 -16.078 -24.181  0.00  0.00    +0.279 C 
ATOM     17  H   UNL     1      35.455 -14.353 -23.169  0.00  0.00    +0.158 HD
ENDBRANCH   9  14
ENDBRANCH   3   9
ENDBRANCH   2   4
BRANCH   2  18
ATOM     18  C   UNL     1      32.755 -21.905 -16.736  0.00  0.00    +0.076 C 
BRANCH  18  19
ATOM     19  C   UNL     1      32.279 -23.100 -15.905  0.00  0.00    +0.066 C 
BRANCH  19  22
ATOM     20  O   UNL     1      33.675 -23.451 -12.549  0.00  0.00    -0.449 OA
ATOM     21  N   UNL     1      34.412 -23.392 -14.687  0.00  0.00    -0.373 NA
ATOM     22  C   UNL     1      33.063 -23.258 -14.636  0.00  0.00    +0.130 C 
ATOM     23  C   UNL     1      32.596 -23.290 -13.366  0.00  0.00    +0.216 C 
ATOM     24  C   UNL     1      34.724 -23.503 -13.415  0.00  0.00    +0.277 C 
ATOM     25  C   UNL     1      31.281 -23.198 -12.722  0.00  0.00    +0.055 C 
BRANCH  24  26
ATOM     26  C   UNL     1      36.013 -23.672 -12.804  0.00  0.00    +0.066 C 
ATOM     27  C   UNL     1      36.847 -24.722 -13.200  0.00  0.00    +0.006 C 
ATOM     28  C   UNL     1      36.440 -22.789 -11.808  0.00  0.00    +0.006 C 
ATOM     29  C   UNL     1      38.099 -24.887 -12.606  0.00  0.00    +0.000 C 
ATOM     30  C   UNL     1      37.692 -22.954 -11.214  0.00  0.00    +0.000 C 
ATOM     31  C   UNL     1      38.521 -24.003 -11.613  0.00  0.00    +0.000 C 
ENDBRANCH  24  26
ENDBRANCH  19  22
ENDBRANCH  18  19
ENDBRANCH   2  18
TORSDOF 7
ENDMDL
MODEL 2
REMARK VINA RESULT:     -12.3      3.744      9.880
REMARK  Name = 60870
REMARK  7 active torsions:
REMARK  status: ('A' for Active; 'I' for Inactive)
REMARK    1  A    between atoms: C_2  and  C_4
REMARK    2  A    between atoms: C_2  and  C_18
REMARK    3  A    between atoms: C_3  and  C_9
REMARK    4  A    between atoms: C_9  and  C_14
REMARK    5  A    between atoms: C_18  and  C_19
REMARK    6  A    between atoms: C_19  and  C_22
REMARK    7  A    between atoms: C_24  and  C_26
REMARK                            x       y       z     vdW  Elec       q    Type
REMARK                         _______ _______ _______ _____ _____    ______ ____
ROOT
ATOM      1  O   UNL     1      32.264 -23.265 -15.095  0.00  0.00    -0.291 OA
ATOM      2  C   UNL     1      33.275 -22.821 -15.676  0.00  0.00    +0.173 C 
ENDROOT
BRANCH   2   4
ATOM      3  C   UNL     1      37.140 -23.493 -14.098  0.00  0.00    -0.021 C 
ATOM      4  C   UNL     1      34.606 -23.052 -15.134  0.00  0.00    +0.035 C 
ATOM      5  C   UNL     1      36.428 -24.556 -14.633  0.00  0.00    -0.004 C 
ATOM      6  C   UNL     1      36.607 -22.213 -14.073  0.00  0.00    -0.004 C 
ATOM      7  C   UNL     1      35.153 -24.334 -15.154  0.00  0.00    +0.003 C 
ATOM      8  C   UNL     1      35.332 -21.991 -14.594  0.00  0.00    +0.003 C 
BRANCH   3   9
ATOM      9  C   UNL     1      38.518 -23.732 -13.536  0.00  0.00    +0.047 C 
BRANCH   9  14
ATOM     10  S   UNL     1      37.232 -25.240 -11.623  0.00  0.00    -0.048 S 
ATOM     11  O   UNL     1      38.697 -21.679 -11.354  0.00  0.00    -0.274 OA
ATOM     12  O   UNL     1      35.393 -24.548  -9.877  0.00  0.00    -0.263 OA
ATOM     13  N   UNL     1      36.983 -22.966 -10.487  0.00  0.00    -0.246 N 
ATOM     14  C   UNL     1      38.485 -23.987 -12.040  0.00  0.00    +0.137 C 
ATOM     15  C   UNL     1      38.092 -22.743 -11.275  0.00  0.00    +0.239 C 
ATOM     16  C   UNL     1      36.377 -24.195 -10.509  0.00  0.00    +0.279 C 
ATOM     17  H   UNL     1      36.629 -22.249  -9.913  0.00  0.00    +0.158 HD
ENDBRANCH   9  14
ENDBRANCH   3   9
ENDBRANCH   2   4
BRANCH   2  18
ATOM     18  C   UNL     1      33.105 -22.022 -16.982  0.00  0.00    +0.076 C 
BRANCH  18  19
ATOM     19  C   UNL     1      34.070 -22.451 -18.090  0.00  0.00    +0.066 C 
BRANCH  19  22
ATOM     20  O   UNL     1      36.290 -19.749 -19.144  0.00  0.00    -0.449 OA
ATOM     21  N   UNL     1      34.254 -20.572 -19.689  0.00  0.00    -0.373 NA
ATOM     22  C   UNL     1      34.812 -21.288 -18.679  0.00  0.00    +0.130 C 
ATOM     23  C   UNL     1      36.032 -20.814 -18.334  0.00  0.00    +0.216 C 
ATOM     24  C   UNL     1      35.179 -19.668 -19.925  0.00  0.00    +0.277 C 
ATOM     25  C   UNL     1      37.063 -21.170 -17.353  0.00  0.00    +0.055 C 
BRANCH  24  26
ATOM     26  C   UNL     1      35.187 -18.606 -20.892  0.00  0.00    +0.066 C 
ATOM     27  C   UNL     1      34.842 -18.861 -22.222  0.00  0.00    +0.006 C 
ATOM     28  C   UNL     1      35.542 -17.309 -20.508  0.00  0.00    +0.006 C 
ATOM     29  C   UNL     1      34.852 -17.829 -23.161  0.00  0.00    +0.000 C 
ATOM     30  C   UNL     1      35.552 -16.277 -21.447  0.00  0.00    +0.000 C 
ATOM     31  C   UNL     1      35.207 -16.537 -22.773  0.00  0.00    +0.000 C 
ENDBRANCH  24  26
ENDBRANCH  19  22
ENDBRANCH  18  19
ENDBRANCH   2  18
TORSDOF 7
ENDMDL
MODEL 3
REMARK VINA RESULT:     -12.2      3.519     11.109
REMARK  Name = 60870
REMARK  7 active torsions:
REMARK  status: ('A' for Active; 'I' for Inactive)
REMARK    1  A    between atoms: C_2  and  C_4
REMARK    2  A    between atoms: C_2  and  C_18
REMARK    3  A    between atoms: C_3  and  C_9
REMARK    4  A    between atoms: C_9  and  C_14
REMARK    5  A    between atoms: C_18  and  C_19
REMARK    6  A    between atoms: C_19  and  C_22
REMARK    7  A    between atoms: C_24  and  C_26
REMARK                            x       y       z     vdW  Elec       q    Type
REMARK                         _______ _______ _______ _____ _____    ______ ____
ROOT
ATOM      1  O   UNL     1      34.785 -18.765 -22.278  0.00  0.00    -0.291 OA
ATOM      2  C   UNL     1      34.969 -18.604 -21.054  0.00  0.00    +0.173 C 
ENDROOT
BRANCH   2   4
ATOM      3  C   UNL     1      33.982 -21.654 -18.297  0.00  0.00    -0.021 C 
ATOM      4  C   UNL     1      34.629 -19.654 -20.106  0.00  0.00    +0.035 C 
ATOM      5  C   UNL     1      32.967 -20.925 -18.898  0.00  0.00    -0.004 C 
ATOM      6  C   UNL     1      35.314 -21.401 -18.584  0.00  0.00    -0.004 C 
ATOM      7  C   UNL     1      33.293 -19.919 -19.809  0.00  0.00    +0.003 C 
ATOM      8  C   UNL     1      35.640 -20.395 -19.495  0.00  0.00    +0.003 C 
BRANCH   3   9
ATOM      9  C   UNL     1      33.630 -22.742 -17.314  0.00  0.00    +0.047 C 
BRANCH   9  14
ATOM     10  S   UNL     1      34.129 -22.945 -14.613  0.00  0.00    -0.048 S 
ATOM     11  O   UNL     1      30.824 -22.139 -16.436  0.00  0.00    -0.274 OA
ATOM     12  O   UNL     1      32.728 -24.105 -12.716  0.00  0.00    -0.263 OA
ATOM     13  N   UNL     1      31.586 -23.158 -14.505  0.00  0.00    -0.246 N 
ATOM     14  C   UNL     1      33.196 -22.177 -15.973  0.00  0.00    +0.137 C 
ATOM     15  C   UNL     1      31.740 -22.474 -15.693  0.00  0.00    +0.239 C 
ATOM     16  C   UNL     1      32.695 -23.502 -13.777  0.00  0.00    +0.279 C 
ATOM     17  H   UNL     1      30.688 -23.397 -14.183  0.00  0.00    +0.158 HD
ENDBRANCH   9  14
ENDBRANCH   3   9
ENDBRANCH   2   4
BRANCH   2  18
ATOM     18  C   UNL     1      35.564 -17.276 -20.549  0.00  0.00    +0.076 C 
BRANCH  18  19
ATOM     19  C   UNL     1      36.054 -16.360 -21.675  0.00  0.00    +0.066 C 
BRANCH  19  22
ATOM     20  O   UNL     1      33.717 -13.870 -22.968  0.00  0.00    -0.449 OA
ATOM     21  N   UNL     1      34.615 -14.471 -20.981  0.00  0.00    -0.373 NA
ATOM     22  C   UNL     1      35.078 -15.263 -21.981  0.00  0.00    +0.130 C 
ATOM     23  C   UNL     1      34.554 -14.923 -23.182  0.00  0.00    +0.216 C 
ATOM     24  C   UNL     1      33.808 -13.659 -21.627  0.00  0.00    +0.277 C 
ATOM     25  C   UNL     1      34.681 -15.405 -24.563  0.00  0.00    +0.055 C 
BRANCH  24  26
ATOM     26  C   UNL     1      33.007 -12.580 -21.122  0.00  0.00    +0.066 C 
ATOM     27  C   UNL     1      32.405 -12.678 -19.864  0.00  0.00    +0.006 C 
ATOM     28  C   UNL     1      32.821 -11.424 -21.887  0.00  0.00    +0.006 C 
ATOM     29  C   UNL     1      31.625 -11.630 -19.374  0.00  0.00    +0.000 C 
ATOM     30  C   UNL     1      32.042 -10.376 -21.397  0.00  0.00    +0.000 C 
ATOM     31  C   UNL     1      31.443 -10.479 -20.141  0.00  0.00    +0.000 C 
ENDBRANCH  24  26
ENDBRANCH  19  22
ENDBRANCH  18  19
ENDBRANCH   2  18
TORSDOF 7
ENDMDL
MODEL 4
REMARK VINA RESULT:     -12.0      5.957     10.195
REMARK  Name = 60870
REMARK  7 active torsions:
REMARK  status: ('A' for Active; 'I' for Inactive)
REMARK    1  A    between atoms: C_2  and  C_4
REMARK    2  A    between atoms: C_2  and  C_18
REMARK    3  A    between atoms: C_3  and  C_9
REMARK    4  A    between atoms: C_9  and  C_14
REMARK    5  A    between atoms: C_18  and  C_19
REMARK    6  A    between atoms: C_19  and  C_22
REMARK    7  A    between atoms: C_24  and  C_26
REMARK                            x       y       z     vdW  Elec       q    Type
REMARK                         _______ _______ _______ _____ _____    ______ ____
ROOT
ATOM      1  O   UNL     1      33.610 -14.061 -24.161  0.00  0.00    -0.291 OA
ATOM      2  C   UNL     1      33.884 -13.573 -23.045  0.00  0.00    +0.173 C 
ENDROOT
BRANCH   2   4
ATOM      3  C   UNL     1      32.337  -9.810 -21.895  0.00  0.00    -0.021 C 
ATOM      4  C   UNL     1      33.353 -12.278 -22.649  0.00  0.00    +0.035 C 
ATOM      5  C   UNL     1      31.842 -10.961 -21.300  0.00  0.00    -0.004 C 
ATOM      6  C   UNL     1      33.331  -9.872 -22.860  0.00  0.00    -0.004 C 
ATOM      7  C   UNL     1      32.354 -12.202 -21.679  0.00  0.00    +0.003 C 
ATOM      8  C   UNL     1      33.842 -11.114 -23.239  0.00  0.00    +0.003 C 
BRANCH   3   9
ATOM      9  C   UNL     1      31.786  -8.468 -21.485  0.00  0.00    +0.047 C 
BRANCH   9  14
ATOM     10  S   UNL     1      32.908  -7.591 -19.127  0.00  0.00    -0.048 S 
ATOM     11  O   UNL     1      32.476  -5.721 -22.476  0.00  0.00    -0.274 OA
ATOM     12  O   UNL     1      32.646  -5.292 -17.881  0.00  0.00    -0.263 OA
ATOM     13  N   UNL     1      32.546  -5.302 -20.203  0.00  0.00    -0.246 N 
ATOM     14  C   UNL     1      32.869  -7.551 -20.946  0.00  0.00    +0.137 C 
ATOM     15  C   UNL     1      32.608  -6.109 -21.320  0.00  0.00    +0.239 C 
ATOM     16  C   UNL     1      32.680  -5.863 -18.960  0.00  0.00    +0.279 C 
ATOM     17  H   UNL     1      32.406  -4.333 -20.297  0.00  0.00    +0.158 HD
ENDBRANCH   9  14
ENDBRANCH   3   9
ENDBRANCH   2   4
BRANCH   2  18
ATOM     18  C   UNL     1      34.794 -14.359 -22.082  0.00  0.00    +0.076 C 
BRANCH  18  19
ATOM     19  C   UNL     1      35.654 -15.417 -22.780  0.00  0.00    +0.066 C 
BRANCH  19  22
ATOM     20  O   UNL     1      34.494 -18.859 -22.411  0.00  0.00    -0.449 OA
ATOM     21  N   UNL     1      35.483 -17.265 -21.146  0.00  0.00    -0.373 NA
ATOM     22  C   UNL     1      35.254 -16.813 -22.405  0.00  0.00    +0.130 C 
ATOM     23  C   UNL     1      34.662 -17.749 -23.182  0.00  0.00    +0.216 C 
ATOM     24  C   UNL     1      35.010 -18.490 -21.207  0.00  0.00    +0.277 C 
ATOM     25  C   UNL     1      34.196 -17.826 -24.571  0.00  0.00    +0.055 C 
BRANCH  24  26
ATOM     26  C   UNL     1      34.959 -19.498 -20.185  0.00  0.00    +0.066 C 
ATOM     27  C   UNL     1      36.139 -19.983 -19.614  0.00  0.00    +0.006 C 
ATOM     28  C   UNL     1      33.728 -20.003 -19.756  0.00  0.00    +0.006 C 
ATOM     29  C   UNL     1      36.090 -20.963 -18.622  0.00  0.00    +0.000 C 
ATOM     30  C   UNL     1      33.678 -20.983 -18.764  0.00  0.00    +0.000 C 
ATOM     31  C   UNL     1      34.859 -21.463 -18.198  0.00  0.00    +0.000 C 
ENDBRANCH  24  26
ENDBRANCH  19  22
ENDBRANCH  18  19
ENDBRANCH   2  18
TORSDOF 7
ENDMDL
MODEL 5
REMARK VINA RESULT:     -11.8      3.345     10.271
REMARK  Name = 60870
REMARK  7 active torsions:
REMARK  status: ('A' for Active; 'I' for Inactive)
REMARK    1  A    between atoms: C_2  and  C_4
REMARK    2  A    between atoms: C_2  and  C_18
REMARK    3  A    between atoms: C_3  and  C_9
REMARK    4  A    between atoms: C_9  and  C_14
REMARK    5  A    between atoms: C_18  and  C_19
REMARK    6  A    between atoms: C_19  and  C_22
REMARK    7  A    between atoms: C_24  and  C_26
REMARK                            x       y       z     vdW  Elec       q    Type
REMARK                         _______ _______ _______ _____ _____    ______ ____
ROOT
ATOM      1  O   UNL     1      32.558 -23.066 -16.147  0.00  0.00    -0.291 OA
ATOM      2  C   UNL     1      33.753 -22.758 -16.337  0.00  0.00    +0.173 C 
ENDROOT
BRANCH   2   4
ATOM      3  C   UNL     1      36.499 -22.661 -13.123  0.00  0.00    -0.021 C 
ATOM      4  C   UNL     1      34.698 -22.726 -15.232  0.00  0.00    +0.035 C 
ATOM      5  C   UNL     1      35.207 -23.114 -12.902  0.00  0.00    -0.004 C 
ATOM      6  C   UNL     1      36.906 -22.240 -14.381  0.00  0.00    -0.004 C 
ATOM      7  C   UNL     1      34.301 -23.147 -13.963  0.00  0.00    +0.003 C 
ATOM      8  C   UNL     1      36.000 -22.273 -15.441  0.00  0.00    +0.003 C 
BRANCH   3   9
ATOM      9  C   UNL     1      37.478 -22.627 -11.978  0.00  0.00    +0.047 C 
BRANCH   9  14
ATOM     10  S   UNL     1      39.067 -24.448 -13.299  0.00  0.00    -0.048 S 
ATOM     11  O   UNL     1      36.382 -25.053 -10.594  0.00  0.00    -0.274 OA
ATOM     12  O   UNL     1      38.459 -26.785 -14.338  0.00  0.00    -0.263 OA
ATOM     13  N   UNL     1      37.310 -26.091 -12.440  0.00  0.00    -0.246 N 
ATOM     14  C   UNL     1      38.177 -23.961 -11.789  0.00  0.00    +0.137 C 
ATOM     15  C   UNL     1      37.185 -25.071 -11.520  0.00  0.00    +0.239 C 
ATOM     16  C   UNL     1      38.230 -25.978 -13.450  0.00  0.00    +0.279 C 
ATOM     17  H   UNL     1      36.744 -26.893 -12.373  0.00  0.00    +0.158 HD
ENDBRANCH   9  14
ENDBRANCH   3   9
ENDBRANCH   2   4
BRANCH   2  18
ATOM     18  C   UNL     1      34.224 -22.413 -17.763  0.00  0.00    +0.076 C 
BRANCH  18  19
ATOM     19  C   UNL     1      33.452 -21.252 -18.396  0.00  0.00    +0.066 C 
BRANCH  19  22
ATOM     20  O   UNL     1      36.013 -19.411 -20.237  0.00  0.00    -0.449 OA
ATOM     21  N   UNL     1      33.759 -19.605 -20.216  0.00  0.00    -0.373 NA
ATOM     22  C   UNL     1      34.323 -20.401 -19.273  0.00  0.00    +0.130 C 
ATOM     23  C   UNL     1      35.673 -20.303 -19.265  0.00  0.00    +0.216 C 
ATOM     24  C   UNL     1      34.813 -19.038 -20.759  0.00  0.00    +0.277 C 
ATOM     25  C   UNL     1      36.770 -20.904 -18.498  0.00  0.00    +0.055 C 
BRANCH  24  26
ATOM     26  C   UNL     1      34.883 -18.080 -21.828  0.00  0.00    +0.066 C 
ATOM     27  C   UNL     1      34.478 -18.434 -23.118  0.00  0.00    +0.006 C 
ATOM     28  C   UNL     1      35.359 -16.788 -21.584  0.00  0.00    +0.006 C 
ATOM     29  C   UNL     1      34.547 -17.504 -24.156  0.00  0.00    +0.000 C 
ATOM     30  C   UNL     1      35.428 -15.858 -22.622  0.00  0.00    +0.000 C 
ATOM     31  C   UNL     1      35.022 -16.217 -23.908  0.00  0.00    +0.000 C 
ENDBRANCH  24  26
ENDBRANCH  19  22
ENDBRANCH  18  19
ENDBRANCH   2  18
TORSDOF 7
ENDMDL
MODEL 6
REMARK VINA RESULT:     -11.6      5.205     12.254
REMARK  Name = 60870
REMARK  7 active torsions:
REMARK  status: ('A' for Active; 'I' for Inactive)
REMARK    1  A    between atoms: C_2  and  C_4
REMARK    2  A    between atoms: C_2  and  C_18
REMARK    3  A    between atoms: C_3  and  C_9
REMARK    4  A    between atoms: C_9  and  C_14
REMARK    5  A    between atoms: C_18  and  C_19
REMARK    6  A    between atoms: C_19  and  C_22
REMARK    7  A    between atoms: C_24  and  C_26
REMARK                            x       y       z     vdW  Elec       q    Type
REMARK                         _______ _______ _______ _____ _____    ______ ____
ROOT
ATOM      1  O   UNL     1      35.027 -14.986 -24.515  0.00  0.00    -0.291 OA
ATOM      2  C   UNL     1      34.926 -15.049 -23.273  0.00  0.00    +0.173 C 
ENDROOT
BRANCH   2   4
ATOM      3  C   UNL     1      35.393 -18.731 -21.247  0.00  0.00    -0.021 C 
ATOM      4  C   UNL     1      35.088 -16.316 -22.576  0.00  0.00    +0.035 C 
ATOM      5  C   UNL     1      35.018 -18.730 -22.582  0.00  0.00    -0.004 C 
ATOM      6  C   UNL     1      35.620 -17.544 -20.565  0.00  0.00    -0.004 C 
ATOM      7  C   UNL     1      34.864 -17.515 -23.250  0.00  0.00    +0.003 C 
ATOM      8  C   UNL     1      35.466 -16.329 -21.234  0.00  0.00    +0.003 C 
BRANCH   3   9
ATOM      9  C   UNL     1      35.561 -20.043 -20.525  0.00  0.00    +0.047 C 
BRANCH   9  14
ATOM     10  S   UNL     1      35.513 -21.271 -18.059  0.00  0.00    -0.048 S 
ATOM     11  O   UNL     1      32.577 -19.983 -20.208  0.00  0.00    -0.274 OA
ATOM     12  O   UNL     1      33.930 -23.156 -17.138  0.00  0.00    -0.263 OA
ATOM     13  N   UNL     1      33.060 -21.640 -18.670  0.00  0.00    -0.246 N 
ATOM     14  C   UNL     1      34.782 -20.077 -19.222  0.00  0.00    +0.137 C 
ATOM     15  C   UNL     1      33.357 -20.536 -19.441  0.00  0.00    +0.239 C 
ATOM     16  C   UNL     1      34.032 -22.186 -17.872  0.00  0.00    +0.279 C 
ATOM     17  H   UNL     1      32.159 -22.033 -18.692  0.00  0.00    +0.158 HD
ENDBRANCH   9  14
ENDBRANCH   3   9
ENDBRANCH   2   4
BRANCH   2  18
ATOM     18  C   UNL     1      34.629 -13.765 -22.476  0.00  0.00    +0.076 C 
BRANCH  18  19
ATOM     19  C   UNL     1      33.529 -12.900 -23.098  0.00  0.00    +0.066 C 
BRANCH  19  22
ATOM     20  O   UNL     1      32.209 -10.784 -20.431  0.00  0.00    -0.449 OA
ATOM     21  N   UNL     1      33.030 -10.547 -22.525  0.00  0.00    -0.373 NA
ATOM     22  C   UNL     1      33.026 -11.851 -22.152  0.00  0.00    +0.130 C 
ATOM     23  C   UNL     1      32.539 -12.020 -20.900  0.00  0.00    +0.216 C 
ATOM     24  C   UNL     1      32.532  -9.957 -21.462  0.00  0.00    +0.277 C 
ATOM     25  C   UNL     1      32.305 -13.158 -20.004  0.00  0.00    +0.055 C 
BRANCH  24  26
ATOM     26  C   UNL     1      32.280  -8.562 -21.228  0.00  0.00    +0.066 C 
ATOM     27  C   UNL     1      31.722  -7.768 -22.234  0.00  0.00    +0.006 C 
ATOM     28  C   UNL     1      32.594  -7.988 -19.992  0.00  0.00    +0.006 C 
ATOM     29  C   UNL     1      31.478  -6.414 -22.007  0.00  0.00    +0.000 C 
ATOM     30  C   UNL     1      32.350  -6.633 -19.765  0.00  0.00    +0.000 C 
ATOM     31  C   UNL     1      31.793  -5.846 -20.773  0.00  0.00    +0.000 C 
ENDBRANCH  24  26
ENDBRANCH  19  22
ENDBRANCH  18  19
ENDBRANCH   2  18
TORSDOF 7
ENDMDL
MODEL 7
REMARK VINA RESULT:     -11.5      6.188     10.449
REMARK  Name = 60870
REMARK  7 active torsions:
REMARK  status: ('A' for Active; 'I' for Inactive)
REMARK    1  A    between atoms: C_2  and  C_4
REMARK    2  A    between atoms: C_2  and  C_18
REMARK    3  A    between atoms: C_3  and  C_9
REMARK    4  A    between atoms: C_9  and  C_14
REMARK    5  A    between atoms: C_18  and  C_19
REMARK    6  A    between atoms: C_19  and  C_22
REMARK    7  A    between atoms: C_24  and  C_26
REMARK                            x       y       z     vdW  Elec       q    Type
REMARK                         _______ _______ _______ _____ _____    ______ ____
ROOT
ATOM      1  O   UNL     1      33.259 -13.687 -24.376  0.00  0.00    -0.291 OA
ATOM      2  C   UNL     1      33.740 -13.238 -23.316  0.00  0.00    +0.173 C 
ENDROOT
BRANCH   2   4
ATOM      3  C   UNL     1      33.582  -9.103 -22.451  0.00  0.00    -0.021 C 
ATOM      4  C   UNL     1      33.687 -11.815 -23.018  0.00  0.00    +0.035 C 
ATOM      5  C   UNL     1      32.773  -9.978 -21.742  0.00  0.00    -0.004 C 
ATOM      6  C   UNL     1      34.442  -9.560 -23.438  0.00  0.00    -0.004 C 
ATOM      7  C   UNL     1      32.826 -11.343 -22.027  0.00  0.00    +0.003 C 
ATOM      8  C   UNL     1      34.495 -10.924 -23.723  0.00  0.00    +0.003 C 
BRANCH   3   9
ATOM      9  C   UNL     1      33.526  -7.628 -22.143  0.00  0.00    +0.047 C 
BRANCH   9  14
ATOM     10  S   UNL     1      31.251  -6.075 -22.182  0.00  0.00    -0.048 S 
ATOM     11  O   UNL     1      33.461  -7.101 -19.189  0.00  0.00    -0.274 OA
ATOM     12  O   UNL     1      30.718  -3.822 -20.936  0.00  0.00    -0.263 OA
ATOM     13  N   UNL     1      32.112  -5.358 -19.887  0.00  0.00    -0.246 N 
ATOM     14  C   UNL     1      32.309  -7.269 -21.307  0.00  0.00    +0.137 C 
ATOM     15  C   UNL     1      32.708  -6.595 -20.013  0.00  0.00    +0.239 C 
ATOM     16  C   UNL     1      31.311  -4.890 -20.895  0.00  0.00    +0.279 C 
ATOM     17  H   UNL     1      32.262  -4.815 -19.080  0.00  0.00    +0.158 HD
ENDBRANCH   9  14
ENDBRANCH   3   9
ENDBRANCH   2   4
BRANCH   2  18
ATOM     18  C   UNL     1      34.395 -14.210 -22.316  0.00  0.00    +0.076 C 
BRANCH  18  19
ATOM     19  C   UNL     1      35.399 -15.168 -22.964  0.00  0.00    +0.066 C 
BRANCH  19  22
ATOM     20  O   UNL     1      34.607 -18.707 -22.535  0.00  0.00    -0.449 OA
ATOM     21  N   UNL     1      35.495 -17.016 -21.323  0.00  0.00    -0.373 NA
ATOM     22  C   UNL     1      35.159 -16.595 -22.568  0.00  0.00    +0.130 C 
ATOM     23  C   UNL     1      34.624 -17.590 -23.314  0.00  0.00    +0.216 C 
ATOM     24  C   UNL     1      35.143 -18.282 -21.359  0.00  0.00    +0.277 C 
ATOM     25  C   UNL     1      34.100 -17.720 -24.678  0.00  0.00    +0.055 C 
BRANCH  24  26
ATOM     26  C   UNL     1      35.244 -19.285 -20.335  0.00  0.00    +0.066 C 
ATOM     27  C   UNL     1      36.493 -19.639 -19.816  0.00  0.00    +0.006 C 
ATOM     28  C   UNL     1      34.093 -19.915 -19.852  0.00  0.00    +0.006 C 
ATOM     29  C   UNL     1      36.591 -20.614 -18.823  0.00  0.00    +0.000 C 
ATOM     30  C   UNL     1      34.191 -20.890 -18.859  0.00  0.00    +0.000 C 
ATOM     31  C   UNL     1      35.440 -21.239 -18.345  0.00  0.00    +0.000 C 
ENDBRANCH  24  26
ENDBRANCH  19  22
ENDBRANCH  18  19
ENDBRANCH   2  18
TORSDOF 7
ENDMDL
MODEL 8
REMARK VINA RESULT:     -11.3      6.419     10.672
REMARK  Name = 60870
REMARK  7 active torsions:
REMARK  status: ('A' for Active; 'I' for Inactive)
REMARK    1  A    between atoms: C_2  and  C_4
REMARK    2  A    between atoms: C_2  and  C_18
REMARK    3  A    between atoms: C_3  and  C_9
REMARK    4  A    between atoms: C_9  and  C_14
REMARK    5  A    between atoms: C_18  and  C_19
REMARK    6  A    between atoms: C_19  and  C_22
REMARK    7  A    between atoms: C_24  and  C_26
REMARK                            x       y       z     vdW  Elec       q    Type
REMARK                         _______ _______ _______ _____ _____    ______ ____
ROOT
ATOM      1  O   UNL     1      32.235 -13.873 -20.204  0.00  0.00    -0.291 OA
ATOM      2  C   UNL     1      33.072 -13.037 -20.604  0.00  0.00    +0.173 C 
ENDROOT
BRANCH   2   4
ATOM      3  C   UNL     1      31.896  -9.098 -21.591  0.00  0.00    -0.021 C 
ATOM      4  C   UNL     1      32.667 -11.682 -20.944  0.00  0.00    +0.035 C 
ATOM      5  C   UNL     1      32.806  -9.761 -22.401  0.00  0.00    -0.004 C 
ATOM      6  C   UNL     1      31.365  -9.705 -20.463  0.00  0.00    -0.004 C 
ATOM      7  C   UNL     1      33.193 -11.061 -22.076  0.00  0.00    +0.003 C 
ATOM      8  C   UNL     1      31.752 -11.005 -20.138  0.00  0.00    +0.003 C 
BRANCH   3   9
ATOM      9  C   UNL     1      31.476  -7.694 -21.943  0.00  0.00    +0.047 C 
BRANCH   9  14
ATOM     10  S   UNL     1      33.048  -7.106 -19.759  0.00  0.00    -0.048 S 
ATOM     11  O   UNL     1      31.259  -4.712 -22.202  0.00  0.00    -0.274 OA
ATOM     12  O   UNL     1      32.705  -5.323 -17.858  0.00  0.00    -0.263 OA
ATOM     13  N   UNL     1      31.918  -4.826 -19.988  0.00  0.00    -0.246 N 
ATOM     14  C   UNL     1      32.459  -6.660 -21.422  0.00  0.00    +0.137 C 
ATOM     15  C   UNL     1      31.808  -5.302 -21.278  0.00  0.00    +0.239 C 
ATOM     16  C   UNL     1      32.531  -5.598 -19.035  0.00  0.00    +0.279 C 
ATOM     17  H   UNL     1      31.561  -3.940 -19.754  0.00  0.00    +0.158 HD
ENDBRANCH   9  14
ENDBRANCH   3   9
ENDBRANCH   2   4
BRANCH   2  18
ATOM     18  C   UNL     1      34.549 -13.454 -20.733  0.00  0.00    +0.076 C 
BRANCH  18  19
ATOM     19  C   UNL     1      34.903 -14.031 -22.107  0.00  0.00    +0.066 C 
BRANCH  19  22
ATOM     20  O   UNL     1      35.091 -17.640 -22.627  0.00  0.00    -0.449 OA
ATOM     21  N   UNL     1      35.197 -16.174 -20.908  0.00  0.00    -0.373 NA
ATOM     22  C   UNL     1      35.009 -15.527 -22.085  0.00  0.00    +0.130 C 
ATOM     23  C   UNL     1      34.943 -16.383 -23.132  0.00  0.00    +0.216 C 
ATOM     24  C   UNL     1      35.237 -17.431 -21.291  0.00  0.00    +0.277 C 
ATOM     25  C   UNL     1      34.760 -16.264 -24.583  0.00  0.00    +0.055 C 
BRANCH  24  26
ATOM     26  C   UNL     1      35.415 -18.618 -20.502  0.00  0.00    +0.066 C 
ATOM     27  C   UNL     1      34.311 -19.391 -20.133  0.00  0.00    +0.006 C 
ATOM     28  C   UNL     1      36.696 -19.006 -20.096  0.00  0.00    +0.006 C 
ATOM     29  C   UNL     1      34.485 -20.544 -19.366  0.00  0.00    +0.000 C 
ATOM     30  C   UNL     1      36.870 -20.158 -19.328  0.00  0.00    +0.000 C 
ATOM     31  C   UNL     1      35.763 -20.927 -18.964  0.00  0.00    +0.000 C 
ENDBRANCH  24  26
ENDBRANCH  19  22
ENDBRANCH  18  19
ENDBRANCH   2  18
TORSDOF 7
ENDMDL
MODEL 9
REMARK VINA RESULT:     -11.3      5.271     12.763
REMARK  Name = 60870
REMARK  7 active torsions:
REMARK  status: ('A' for Active; 'I' for Inactive)
REMARK    1  A    between atoms: C_2  and  C_4
REMARK    2  A    between atoms: C_2  and  C_18
REMARK    3  A    between atoms: C_3  and  C_9
REMARK    4  A    between atoms: C_9  and  C_14
REMARK    5  A    between atoms: C_18  and  C_19
REMARK    6  A    between atoms: C_19  and  C_22
REMARK    7  A    between atoms: C_24  and  C_26
REMARK                            x       y       z     vdW  Elec       q    Type
REMARK                         _______ _______ _______ _____ _____    ______ ____
ROOT
ATOM      1  O   UNL     1      34.367 -15.228 -25.718  0.00  0.00    -0.291 OA
ATOM      2  C   UNL     1      34.188 -14.910 -24.524  0.00  0.00    +0.173 C 
ENDROOT
BRANCH   2   4
ATOM      3  C   UNL     1      35.460 -17.455 -21.397  0.00  0.00    -0.021 C 
ATOM      4  C   UNL     1      34.624 -15.786 -23.448  0.00  0.00    +0.035 C 
ATOM      5  C   UNL     1      35.361 -16.091 -21.167  0.00  0.00    -0.004 C 
ATOM      6  C   UNL     1      35.148 -18.000 -22.634  0.00  0.00    -0.004 C 
ATOM      7  C   UNL     1      34.940 -15.252 -22.199  0.00  0.00    +0.003 C 
ATOM      8  C   UNL     1      34.728 -17.160 -23.665  0.00  0.00    +0.003 C 
BRANCH   3   9
ATOM      9  C   UNL     1      35.913 -18.363 -20.282  0.00  0.00    +0.047 C 
BRANCH   9  14
ATOM     10  S   UNL     1      33.540 -19.744 -20.059  0.00  0.00    -0.048 S 
ATOM     11  O   UNL     1      37.139 -20.930 -19.324  0.00  0.00    -0.274 OA
ATOM     12  O   UNL     1      32.689 -21.352 -18.162  0.00  0.00    -0.263 OA
ATOM     13  N   UNL     1      34.968 -21.289 -18.611  0.00  0.00    -0.246 N 
ATOM     14  C   UNL     1      35.325 -19.757 -20.410  0.00  0.00    +0.137 C 
ATOM     15  C   UNL     1      35.935 -20.709 -19.406  0.00  0.00    +0.239 C 
ATOM     16  C   UNL     1      33.656 -20.935 -18.782  0.00  0.00    +0.279 C 
ATOM     17  H   UNL     1      35.219 -21.950 -17.927  0.00  0.00    +0.158 HD
ENDBRANCH   9  14
ENDBRANCH   3   9
ENDBRANCH   2   4
BRANCH   2  18
ATOM     18  C   UNL     1      33.498 -13.573 -24.196  0.00  0.00    +0.076 C 
BRANCH  18  19
ATOM     19  C   UNL     1      34.429 -12.550 -23.539  0.00  0.00    +0.066 C 
BRANCH  19  22
ATOM     20  O   UNL     1      32.400 -10.301 -21.500  0.00  0.00    -0.449 OA
ATOM     21  N   UNL     1      33.771 -10.178 -23.296  0.00  0.00    -0.373 NA
ATOM     22  C   UNL     1      33.673 -11.455 -22.847  0.00  0.00    +0.130 C 
ATOM     23  C   UNL     1      32.858 -11.555 -21.771  0.00  0.00    +0.216 C 
ATOM     24  C   UNL     1      32.991  -9.534 -22.456  0.00  0.00    +0.277 C 
ATOM     25  C   UNL     1      32.393 -12.638 -20.897  0.00  0.00    +0.055 C 
BRANCH  24  26
ATOM     26  C   UNL     1      32.672  -8.134 -22.401  0.00  0.00    +0.066 C 
ATOM     27  C   UNL     1      32.064  -7.507 -23.492  0.00  0.00    +0.006 C 
ATOM     28  C   UNL     1      32.971  -7.390 -21.255  0.00  0.00    +0.006 C 
ATOM     29  C   UNL     1      31.756  -6.147 -23.438  0.00  0.00    +0.000 C 
ATOM     30  C   UNL     1      32.663  -6.031 -21.201  0.00  0.00    +0.000 C 
ATOM     31  C   UNL     1      32.055  -5.409 -22.293  0.00  0.00    +0.000 C 
ENDBRANCH  24  26
ENDBRANCH  19  22
ENDBRANCH  18  19
ENDBRANCH   2  18
TORSDOF 7
ENDMDL
