MODEL 1
REMARK VINA RESULT:     -11.5      0.000      0.000
REMARK  Name = 25065981
REMARK  7 active torsions:
REMARK  status: ('A' for Active; 'I' for Inactive)
REMARK    1  A    between atoms: C_1  and  C_3
REMARK    2  A    between atoms: C_1  and  C_16
REMARK    3  A    between atoms: C_11  and  O_13
REMARK    4  A    between atoms: C_16  and  O_17
REMARK    5  A    between atoms: O_17  and  C_18
REMARK    6  A    between atoms: C_21  and  C_25
REMARK    7  A    between atoms: C_25  and  N_26
REMARK                            x       y       z     vdW  Elec       q    Type
REMARK                         _______ _______ _______ _____ _____    ______ ____
ROOT
ATOM      1  C   UNL     1      35.749 -16.932 -22.207  0.00  0.00    +0.122 C 
ATOM      2  C   UNL     1      34.848 -17.215 -23.425  0.00  0.00    +0.016 C 
ENDROOT
BRANCH   1   3
ATOM      3  C   UNL     1      35.754 -18.037 -21.206  0.00  0.00    -0.012 C 
ATOM      4  C   UNL     1      34.540 -19.674 -19.878  0.00  0.00    -0.000 C 
ATOM      5  C   UNL     1      34.553 -18.633 -20.820  0.00  0.00    -0.004 C 
ATOM      6  C   UNL     1      35.763 -20.118 -19.320  0.00  0.00    +0.003 C 
ATOM      7  C   UNL     1      36.957 -18.473 -20.657  0.00  0.00    -0.004 C 
ATOM      8  C   UNL     1      36.963 -19.507 -19.721  0.00  0.00    -0.000 C 
ATOM      9  C   UNL     1      33.341 -20.286 -19.478  0.00  0.00    +0.003 C 
ATOM     10  C   UNL     1      35.750 -21.160 -18.378  0.00  0.00    +0.037 C 
ATOM     11  C   UNL     1      34.550 -21.756 -17.993  0.00  0.00    +0.139 C 
ATOM     12  C   UNL     1      33.348 -21.319 -18.541  0.00  0.00    +0.037 C 
BRANCH  11  13
ATOM     13  O   UNL     1      34.554 -22.765 -17.079  0.00  0.00    -0.471 OA
ATOM     14  C   UNL     1      33.513 -22.763 -16.104  0.00  0.00    +0.252 C 
ENDBRANCH  11  13
ENDBRANCH   1   3
BRANCH   1  16
ATOM     15  O   UNL     1      35.291 -15.362 -20.390  0.00  0.00    -0.249 OA
ATOM     16  C   UNL     1      35.365 -15.579 -21.593  0.00  0.00    +0.325 C 
BRANCH  16  17
ATOM     17  O   UNL     1      35.146 -14.648 -22.608  0.00  0.00    -0.424 OA
BRANCH  17  18
ATOM     18  C   UNL     1      34.288 -13.614 -22.227  0.00  0.00    +0.148 C 
ATOM     19  C   UNL     1      34.304 -12.403 -22.920  0.00  0.00    +0.038 C 
ATOM     20  C   UNL     1      33.417 -13.791 -21.152  0.00  0.00    +0.038 C 
ATOM     21  C   UNL     1      32.578 -11.547 -21.462  0.00  0.00    +0.020 C 
ATOM     22  C   UNL     1      33.449 -11.370 -22.537  0.00  0.00    +0.005 C 
ATOM     23  C   UNL     1      32.562 -12.757 -20.770  0.00  0.00    +0.005 C 
BRANCH  21  25
ATOM     24  S   UNL     1      31.993  -8.821 -21.293  0.00  0.00    -0.035 S 
ATOM     25  C   UNL     1      31.687 -10.470 -21.064  0.00  0.00    +0.078 C 
BRANCH  25  26
ATOM     26  N   UNL     1      30.496 -10.849 -20.457  0.00  0.00    -0.352 N 
ATOM     27  H   UNL     1      30.464 -11.662 -19.902  0.00  0.00    +0.143 HD
ATOM     28  H   UNL     1      29.684 -10.307 -20.582  0.00  0.00    +0.143 HD
ENDBRANCH  25  26
ENDBRANCH  21  25
ENDBRANCH  17  18
ENDBRANCH  16  17
ENDBRANCH   1  16
TORSDOF 7
ENDMDL
MODEL 2
REMARK VINA RESULT:     -11.2      2.323      3.523
REMARK  Name = 25065981
REMARK  7 active torsions:
REMARK  status: ('A' for Active; 'I' for Inactive)
REMARK    1  A    between atoms: C_1  and  C_3
REMARK    2  A    between atoms: C_1  and  C_16
REMARK    3  A    between atoms: C_11  and  O_13
REMARK    4  A    between atoms: C_16  and  O_17
REMARK    5  A    between atoms: O_17  and  C_18
REMARK    6  A    between atoms: C_21  and  C_25
REMARK    7  A    between atoms: C_25  and  N_26
REMARK                            x       y       z     vdW  Elec       q    Type
REMARK                         _______ _______ _______ _____ _____    ______ ____
ROOT
ATOM      1  C   UNL     1      35.617 -19.624 -20.536  0.00  0.00    +0.122 C 
ATOM      2  C   UNL     1      34.209 -19.259 -21.047  0.00  0.00    +0.016 C 
ENDROOT
BRANCH   1   3
ATOM      3  C   UNL     1      35.602 -20.361 -19.240  0.00  0.00    -0.012 C 
ATOM      4  C   UNL     1      34.389 -21.647 -17.568  0.00  0.00    -0.000 C 
ATOM      5  C   UNL     1      34.420 -20.948 -18.786  0.00  0.00    -0.004 C 
ATOM      6  C   UNL     1      35.573 -21.751 -16.800  0.00  0.00    +0.003 C 
ATOM      7  C   UNL     1      36.766 -20.464 -18.485  0.00  0.00    -0.004 C 
ATOM      8  C   UNL     1      36.754 -21.154 -17.272  0.00  0.00    -0.000 C 
ATOM      9  C   UNL     1      33.209 -22.243 -17.095  0.00  0.00    +0.003 C 
ATOM     10  C   UNL     1      35.542 -22.449 -15.581  0.00  0.00    +0.037 C 
ATOM     11  C   UNL     1      34.361 -23.036 -15.128  0.00  0.00    +0.139 C 
ATOM     12  C   UNL     1      33.197 -22.933 -15.883  0.00  0.00    +0.037 C 
BRANCH  11  13
ATOM     13  O   UNL     1      34.347 -23.710 -13.945  0.00  0.00    -0.471 OA
ATOM     14  C   UNL     1      35.465 -23.527 -13.079  0.00  0.00    +0.252 C 
ENDBRANCH  11  13
ENDBRANCH   1   3
BRANCH   1  16
ATOM     15  O   UNL     1      37.597 -18.265 -20.991  0.00  0.00    -0.249 OA
ATOM     16  C   UNL     1      36.485 -18.359 -20.487  0.00  0.00    +0.325 C 
BRANCH  16  17
ATOM     17  O   UNL     1      35.803 -17.347 -19.812  0.00  0.00    -0.424 OA
BRANCH  17  18
ATOM     18  C   UNL     1      35.424 -16.293 -20.645  0.00  0.00    +0.148 C 
ATOM     19  C   UNL     1      35.546 -16.419 -22.029  0.00  0.00    +0.038 C 
ATOM     20  C   UNL     1      34.925 -15.113 -20.093  0.00  0.00    +0.038 C 
ATOM     21  C   UNL     1      34.671 -14.184 -22.309  0.00  0.00    +0.020 C 
ATOM     22  C   UNL     1      35.169 -15.364 -22.861  0.00  0.00    +0.005 C 
ATOM     23  C   UNL     1      34.549 -14.058 -20.925  0.00  0.00    +0.005 C 
BRANCH  21  25
ATOM     24  S   UNL     1      33.570 -13.259 -24.704  0.00  0.00    -0.035 S 
ATOM     25  C   UNL     1      34.279 -13.085 -23.176  0.00  0.00    +0.078 C 
BRANCH  25  26
ATOM     26  N   UNL     1      34.508 -11.805 -22.688  0.00  0.00    -0.352 N 
ATOM     27  H   UNL     1      34.390 -11.616 -21.729  0.00  0.00    +0.143 HD
ATOM     28  H   UNL     1      34.788 -11.087 -23.301  0.00  0.00    +0.143 HD
ENDBRANCH  25  26
ENDBRANCH  21  25
ENDBRANCH  17  18
ENDBRANCH  16  17
ENDBRANCH   1  16
TORSDOF 7
ENDMDL
MODEL 3
REMARK VINA RESULT:     -11.2      1.023      1.393
REMARK  Name = 25065981
REMARK  7 active torsions:
REMARK  status: ('A' for Active; 'I' for Inactive)
REMARK    1  A    between atoms: C_1  and  C_3
REMARK    2  A    between atoms: C_1  and  C_16
REMARK    3  A    between atoms: C_11  and  O_13
REMARK    4  A    between atoms: C_16  and  O_17
REMARK    5  A    between atoms: O_17  and  C_18
REMARK    6  A    between atoms: C_21  and  C_25
REMARK    7  A    between atoms: C_25  and  N_26
REMARK                            x       y       z     vdW  Elec       q    Type
REMARK                         _______ _______ _______ _____ _____    ______ ____
ROOT
ATOM      1  C   UNL     1      35.475 -16.591 -22.812  0.00  0.00    +0.122 C 
ATOM      2  C   UNL     1      34.589 -17.008 -24.003  0.00  0.00    +0.016 C 
ENDROOT
BRANCH   1   3
ATOM      3  C   UNL     1      35.593 -17.645 -21.764  0.00  0.00    -0.012 C 
ATOM      4  C   UNL     1      34.550 -19.333 -20.356  0.00  0.00    -0.000 C 
ATOM      5  C   UNL     1      34.457 -18.338 -21.343  0.00  0.00    -0.004 C 
ATOM      6  C   UNL     1      35.813 -19.630 -19.790  0.00  0.00    +0.003 C 
ATOM      7  C   UNL     1      36.834 -17.937 -21.208  0.00  0.00    -0.004 C 
ATOM      8  C   UNL     1      36.945 -18.923 -20.227  0.00  0.00    -0.000 C 
ATOM      9  C   UNL     1      33.419 -20.040 -19.920  0.00  0.00    +0.003 C 
ATOM     10  C   UNL     1      35.907 -20.626 -18.804  0.00  0.00    +0.037 C 
ATOM     11  C   UNL     1      34.772 -21.319 -18.383  0.00  0.00    +0.139 C 
ATOM     12  C   UNL     1      33.530 -21.026 -18.940  0.00  0.00    +0.037 C 
BRANCH  11  13
ATOM     13  O   UNL     1      34.878 -22.281 -17.426  0.00  0.00    -0.471 OA
ATOM     14  C   UNL     1      33.698 -22.602 -16.693  0.00  0.00    +0.252 C 
ENDBRANCH  11  13
ENDBRANCH   1   3
BRANCH   1  16
ATOM     15  O   UNL     1      35.210 -14.847 -21.119  0.00  0.00    -0.249 OA
ATOM     16  C   UNL     1      34.977 -15.252 -22.252  0.00  0.00    +0.325 C 
BRANCH  16  17
ATOM     17  O   UNL     1      34.254 -14.572 -23.231  0.00  0.00    -0.424 OA
BRANCH  17  18
ATOM     18  C   UNL     1      33.772 -13.336 -22.797  0.00  0.00    +0.148 C 
ATOM     19  C   UNL     1      32.828 -13.276 -21.771  0.00  0.00    +0.038 C 
ATOM     20  C   UNL     1      34.233 -12.161 -23.390  0.00  0.00    +0.038 C 
ATOM     21  C   UNL     1      32.806 -10.865 -21.933  0.00  0.00    +0.020 C 
ATOM     22  C   UNL     1      32.346 -12.041 -21.339  0.00  0.00    +0.005 C 
ATOM     23  C   UNL     1      33.750 -10.925 -22.958  0.00  0.00    +0.005 C 
BRANCH  21  25
ATOM     24  S   UNL     1      31.994  -9.167 -19.870  0.00  0.00    -0.035 S 
ATOM     25  C   UNL     1      32.303  -9.578 -21.482  0.00  0.00    +0.078 C 
BRANCH  25  26
ATOM     26  N   UNL     1      32.072  -8.629 -22.470  0.00  0.00    -0.352 N 
ATOM     27  H   UNL     1      32.001  -7.676 -22.230  0.00  0.00    +0.143 HD
ATOM     28  H   UNL     1      31.980  -8.908 -23.409  0.00  0.00    +0.143 HD
ENDBRANCH  25  26
ENDBRANCH  21  25
ENDBRANCH  17  18
ENDBRANCH  16  17
ENDBRANCH   1  16
TORSDOF 7
ENDMDL
MODEL 4
REMARK VINA RESULT:     -11.1      1.107      1.981
REMARK  Name = 25065981
REMARK  7 active torsions:
REMARK  status: ('A' for Active; 'I' for Inactive)
REMARK    1  A    between atoms: C_1  and  C_3
REMARK    2  A    between atoms: C_1  and  C_16
REMARK    3  A    between atoms: C_11  and  O_13
REMARK    4  A    between atoms: C_16  and  O_17
REMARK    5  A    between atoms: O_17  and  C_18
REMARK    6  A    between atoms: C_21  and  C_25
REMARK    7  A    between atoms: C_25  and  N_26
REMARK                            x       y       z     vdW  Elec       q    Type
REMARK                         _______ _______ _______ _____ _____    ______ ____
ROOT
ATOM      1  C   UNL     1      35.586 -18.227 -21.608  0.00  0.00    +0.122 C 
ATOM      2  C   UNL     1      34.899 -18.263 -22.988  0.00  0.00    +0.016 C 
ENDROOT
BRANCH   1   3
ATOM      3  C   UNL     1      34.968 -19.154 -20.617  0.00  0.00    -0.012 C 
ATOM      4  C   UNL     1      35.197 -20.639 -18.703  0.00  0.00    -0.000 C 
ATOM      5  C   UNL     1      35.762 -19.764 -19.645  0.00  0.00    -0.004 C 
ATOM      6  C   UNL     1      33.806 -20.899 -18.748  0.00  0.00    +0.003 C 
ATOM      7  C   UNL     1      33.601 -19.410 -20.661  0.00  0.00    -0.004 C 
ATOM      8  C   UNL     1      33.022 -20.277 -19.734  0.00  0.00    -0.000 C 
ATOM      9  C   UNL     1      35.980 -21.262 -17.718  0.00  0.00    +0.003 C 
ATOM     10  C   UNL     1      33.240 -21.775 -17.807  0.00  0.00    +0.037 C 
ATOM     11  C   UNL     1      34.034 -22.384 -16.835  0.00  0.00    +0.139 C 
ATOM     12  C   UNL     1      35.401 -22.128 -16.791  0.00  0.00    +0.037 C 
BRANCH  11  13
ATOM     13  O   UNL     1      33.471 -23.230 -15.929  0.00  0.00    -0.471 OA
ATOM     14  C   UNL     1      32.394 -22.720 -15.146  0.00  0.00    +0.252 C 
ENDBRANCH  11  13
ENDBRANCH   1   3
BRANCH   1  16
ATOM     15  O   UNL     1      35.659 -16.456 -19.924  0.00  0.00    -0.249 OA
ATOM     16  C   UNL     1      35.647 -16.778 -21.106  0.00  0.00    +0.325 C 
BRANCH  16  17
ATOM     17  O   UNL     1      35.712 -15.907 -22.194  0.00  0.00    -0.424 OA
BRANCH  17  18
ATOM     18  C   UNL     1      34.900 -14.781 -22.042  0.00  0.00    +0.148 C 
ATOM     19  C   UNL     1      34.368 -14.148 -23.166  0.00  0.00    +0.038 C 
ATOM     20  C   UNL     1      34.623 -14.288 -20.767  0.00  0.00    +0.038 C 
ATOM     21  C   UNL     1      33.282 -12.529 -21.739  0.00  0.00    +0.020 C 
ATOM     22  C   UNL     1      33.559 -13.022 -23.014  0.00  0.00    +0.005 C 
ATOM     23  C   UNL     1      33.813 -13.162 -20.616  0.00  0.00    +0.005 C 
BRANCH  21  25
ATOM     24  S   UNL     1      32.754  -9.835 -22.256  0.00  0.00    -0.035 S 
ATOM     25  C   UNL     1      32.439 -11.355 -21.582  0.00  0.00    +0.078 C 
BRANCH  25  26
ATOM     26  N   UNL     1      31.289 -11.522 -20.821  0.00  0.00    -0.352 N 
ATOM     27  H   UNL     1      30.465 -11.861 -21.241  0.00  0.00    +0.143 HD
ATOM     28  H   UNL     1      31.296 -11.302 -19.861  0.00  0.00    +0.143 HD
ENDBRANCH  25  26
ENDBRANCH  21  25
ENDBRANCH  17  18
ENDBRANCH  16  17
ENDBRANCH   1  16
TORSDOF 7
ENDMDL
MODEL 5
REMARK VINA RESULT:     -11.1      5.187      8.422
REMARK  Name = 25065981
REMARK  7 active torsions:
REMARK  status: ('A' for Active; 'I' for Inactive)
REMARK    1  A    between atoms: C_1  and  C_3
REMARK    2  A    between atoms: C_1  and  C_16
REMARK    3  A    between atoms: C_11  and  O_13
REMARK    4  A    between atoms: C_16  and  O_17
REMARK    5  A    between atoms: O_17  and  C_18
REMARK    6  A    between atoms: C_21  and  C_25
REMARK    7  A    between atoms: C_25  and  N_26
REMARK                            x       y       z     vdW  Elec       q    Type
REMARK                         _______ _______ _______ _____ _____    ______ ____
ROOT
ATOM      1  C   UNL     1      32.819 -23.097 -15.258  0.00  0.00    +0.122 C 
ATOM      2  C   UNL     1      31.979 -22.319 -14.225  0.00  0.00    +0.016 C 
ENDROOT
BRANCH   1   3
ATOM      3  C   UNL     1      34.250 -23.242 -14.867  0.00  0.00    -0.012 C 
ATOM      4  C   UNL     1      36.163 -24.668 -14.391  0.00  0.00    -0.000 C 
ATOM      5  C   UNL     1      34.817 -24.513 -14.759  0.00  0.00    -0.004 C 
ATOM      6  C   UNL     1      36.946 -23.519 -14.130  0.00  0.00    +0.003 C 
ATOM      7  C   UNL     1      35.020 -22.112 -14.610  0.00  0.00    -0.004 C 
ATOM      8  C   UNL     1      36.359 -22.247 -14.244  0.00  0.00    -0.000 C 
ATOM      9  C   UNL     1      36.750 -25.938 -14.278  0.00  0.00    +0.003 C 
ATOM     10  C   UNL     1      38.293 -23.673 -13.762  0.00  0.00    +0.037 C 
ATOM     11  C   UNL     1      38.859 -24.943 -13.655  0.00  0.00    +0.139 C 
ATOM     12  C   UNL     1      38.089 -26.074 -13.912  0.00  0.00    +0.037 C 
BRANCH  11  13
ATOM     13  O   UNL     1      40.166 -25.077 -13.298  0.00  0.00    -0.471 OA
ATOM     14  C   UNL     1      41.021 -25.766 -14.208  0.00  0.00    +0.252 C 
ENDBRANCH  11  13
ENDBRANCH   1   3
BRANCH   1  16
ATOM     15  O   UNL     1      31.694 -21.755 -16.965  0.00  0.00    -0.249 OA
ATOM     16  C   UNL     1      32.645 -22.456 -16.642  0.00  0.00    +0.325 C 
BRANCH  16  17
ATOM     17  O   UNL     1      33.740 -22.773 -17.446  0.00  0.00    -0.424 OA
BRANCH  17  18
ATOM     18  C   UNL     1      34.133 -21.720 -18.275  0.00  0.00    +0.148 C 
ATOM     19  C   UNL     1      33.186 -21.056 -19.056  0.00  0.00    +0.038 C 
ATOM     20  C   UNL     1      35.472 -21.334 -18.323  0.00  0.00    +0.038 C 
ATOM     21  C   UNL     1      34.920 -19.620 -19.934  0.00  0.00    +0.020 C 
ATOM     22  C   UNL     1      33.580 -20.007 -19.885  0.00  0.00    +0.005 C 
ATOM     23  C   UNL     1      35.865 -20.284 -19.153  0.00  0.00    +0.005 C 
BRANCH  21  25
ATOM     24  S   UNL     1      35.048 -18.449 -22.467  0.00  0.00    -0.035 S 
ATOM     25  C   UNL     1      35.329 -18.526 -20.799  0.00  0.00    +0.078 C 
BRANCH  25  26
ATOM     26  N   UNL     1      35.992 -17.472 -20.184  0.00  0.00    -0.352 N 
ATOM     27  H   UNL     1      35.535 -16.937 -19.495  0.00  0.00    +0.143 HD
ATOM     28  H   UNL     1      36.919 -17.258 -20.437  0.00  0.00    +0.143 HD
ENDBRANCH  25  26
ENDBRANCH  21  25
ENDBRANCH  17  18
ENDBRANCH  16  17
ENDBRANCH   1  16
TORSDOF 7
ENDMDL
MODEL 6
REMARK VINA RESULT:     -11.0      4.995      9.280
REMARK  Name = 25065981
REMARK  7 active torsions:
REMARK  status: ('A' for Active; 'I' for Inactive)
REMARK    1  A    between atoms: C_1  and  C_3
REMARK    2  A    between atoms: C_1  and  C_16
REMARK    3  A    between atoms: C_11  and  O_13
REMARK    4  A    between atoms: C_16  and  O_17
REMARK    5  A    between atoms: O_17  and  C_18
REMARK    6  A    between atoms: C_21  and  C_25
REMARK    7  A    between atoms: C_25  and  N_26
REMARK                            x       y       z     vdW  Elec       q    Type
REMARK                         _______ _______ _______ _____ _____    ______ ____
ROOT
ATOM      1  C   UNL     1      35.747 -20.256 -19.899  0.00  0.00    +0.122 C 
ATOM      2  C   UNL     1      36.817 -20.041 -18.810  0.00  0.00    +0.016 C 
ENDROOT
BRANCH   1   3
ATOM      3  C   UNL     1      35.565 -19.075 -20.790  0.00  0.00    -0.012 C 
ATOM      4  C   UNL     1      34.785 -18.129 -22.892  0.00  0.00    -0.000 C 
ATOM      5  C   UNL     1      34.964 -19.231 -22.040  0.00  0.00    -0.004 C 
ATOM      6  C   UNL     1      35.221 -16.851 -22.470  0.00  0.00    +0.003 C 
ATOM      7  C   UNL     1      35.993 -17.817 -20.375  0.00  0.00    -0.004 C 
ATOM      8  C   UNL     1      35.823 -16.712 -21.208  0.00  0.00    -0.000 C 
ATOM      9  C   UNL     1      34.183 -18.268 -24.153  0.00  0.00    +0.003 C 
ATOM     10  C   UNL     1      35.042 -15.748 -23.322  0.00  0.00    +0.037 C 
ATOM     11  C   UNL     1      34.442 -15.905 -24.571  0.00  0.00    +0.139 C 
ATOM     12  C   UNL     1      34.013 -17.162 -24.986  0.00  0.00    +0.037 C 
BRANCH  11  13
ATOM     13  O   UNL     1      34.275 -14.827 -25.386  0.00  0.00    -0.471 OA
ATOM     14  C   UNL     1      33.585 -13.703 -24.843  0.00  0.00    +0.252 C 
ENDBRANCH  11  13
ENDBRANCH   1   3
BRANCH   1  16
ATOM     15  O   UNL     1      33.446 -20.000 -19.113  0.00  0.00    -0.249 OA
ATOM     16  C   UNL     1      34.436 -20.710 -19.242  0.00  0.00    +0.325 C 
BRANCH  16  17
ATOM     17  O   UNL     1      34.545 -22.043 -18.848  0.00  0.00    -0.424 OA
BRANCH  17  18
ATOM     18  C   UNL     1      34.137 -22.259 -17.530  0.00  0.00    +0.148 C 
ATOM     19  C   UNL     1      35.084 -22.309 -16.506  0.00  0.00    +0.038 C 
ATOM     20  C   UNL     1      32.784 -22.428 -17.238  0.00  0.00    +0.038 C 
ATOM     21  C   UNL     1      33.322 -22.696 -14.898  0.00  0.00    +0.020 C 
ATOM     22  C   UNL     1      34.676 -22.527 -15.190  0.00  0.00    +0.005 C 
ATOM     23  C   UNL     1      32.377 -22.646 -15.921  0.00  0.00    +0.005 C 
BRANCH  21  25
ATOM     24  S   UNL     1      31.296 -23.146 -13.028  0.00  0.00    -0.035 S 
ATOM     25  C   UNL     1      32.899 -22.923 -13.526  0.00  0.00    +0.078 C 
BRANCH  25  26
ATOM     26  N   UNL     1      33.906 -22.963 -12.571  0.00  0.00    -0.352 N 
ATOM     27  H   UNL     1      34.210 -23.828 -12.211  0.00  0.00    +0.143 HD
ATOM     28  H   UNL     1      34.317 -22.127 -12.252  0.00  0.00    +0.143 HD
ENDBRANCH  25  26
ENDBRANCH  21  25
ENDBRANCH  17  18
ENDBRANCH  16  17
ENDBRANCH   1  16
TORSDOF 7
ENDMDL
MODEL 7
REMARK VINA RESULT:     -10.9      2.253      3.731
REMARK  Name = 25065981
REMARK  7 active torsions:
REMARK  status: ('A' for Active; 'I' for Inactive)
REMARK    1  A    between atoms: C_1  and  C_3
REMARK    2  A    between atoms: C_1  and  C_16
REMARK    3  A    between atoms: C_11  and  O_13
REMARK    4  A    between atoms: C_16  and  O_17
REMARK    5  A    between atoms: O_17  and  C_18
REMARK    6  A    between atoms: C_21  and  C_25
REMARK    7  A    between atoms: C_25  and  N_26
REMARK                            x       y       z     vdW  Elec       q    Type
REMARK                         _______ _______ _______ _____ _____    ______ ____
ROOT
ATOM      1  C   UNL     1      35.601 -19.505 -20.750  0.00  0.00    +0.122 C 
ATOM      2  C   UNL     1      34.260 -19.081 -21.382  0.00  0.00    +0.016 C 
ENDROOT
BRANCH   1   3
ATOM      3  C   UNL     1      35.441 -20.266 -19.478  0.00  0.00    -0.012 C 
ATOM      4  C   UNL     1      36.393 -21.126 -17.410  0.00  0.00    -0.000 C 
ATOM      5  C   UNL     1      36.526 -20.412 -18.613  0.00  0.00    -0.004 C 
ATOM      6  C   UNL     1      35.141 -21.697 -17.080  0.00  0.00    +0.003 C 
ATOM      7  C   UNL     1      34.210 -20.828 -19.153  0.00  0.00    -0.004 C 
ATOM      8  C   UNL     1      34.059 -21.540 -17.963  0.00  0.00    -0.000 C 
ATOM      9  C   UNL     1      37.473 -21.283 -16.528  0.00  0.00    +0.003 C 
ATOM     10  C   UNL     1      35.007 -22.411 -15.878  0.00  0.00    +0.037 C 
ATOM     11  C   UNL     1      36.092 -22.557 -15.013  0.00  0.00    +0.139 C 
ATOM     12  C   UNL     1      37.322 -21.995 -15.338  0.00  0.00    +0.037 C 
BRANCH  11  13
ATOM     13  O   UNL     1      35.947 -23.251 -13.851  0.00  0.00    -0.471 OA
ATOM     14  C   UNL     1      34.643 -23.740 -13.544  0.00  0.00    +0.252 C 
ENDBRANCH  11  13
ENDBRANCH   1   3
BRANCH   1  16
ATOM     15  O   UNL     1      37.644 -18.193 -21.033  0.00  0.00    -0.249 OA
ATOM     16  C   UNL     1      36.503 -18.274 -20.594  0.00  0.00    +0.325 C 
BRANCH  16  17
ATOM     17  O   UNL     1      35.815 -17.272 -19.909  0.00  0.00    -0.424 OA
BRANCH  17  18
ATOM     18  C   UNL     1      35.394 -16.231 -20.740  0.00  0.00    +0.148 C 
ATOM     19  C   UNL     1      34.820 -15.086 -20.186  0.00  0.00    +0.038 C 
ATOM     20  C   UNL     1      35.547 -16.337 -22.122  0.00  0.00    +0.038 C 
ATOM     21  C   UNL     1      34.550 -14.153 -22.398  0.00  0.00    +0.020 C 
ATOM     22  C   UNL     1      34.398 -14.048 -21.015  0.00  0.00    +0.005 C 
ATOM     23  C   UNL     1      35.125 -15.297 -22.951  0.00  0.00    +0.005 C 
BRANCH  21  25
ATOM     24  S   UNL     1      34.009 -11.443 -22.806  0.00  0.00    -0.035 S 
ATOM     25  C   UNL     1      34.110 -13.070 -23.262  0.00  0.00    +0.078 C 
BRANCH  25  26
ATOM     26  N   UNL     1      33.757 -13.423 -24.558  0.00  0.00    -0.352 N 
ATOM     27  H   UNL     1      33.613 -14.369 -24.789  0.00  0.00    +0.143 HD
ATOM     28  H   UNL     1      33.651 -12.727 -25.247  0.00  0.00    +0.143 HD
ENDBRANCH  25  26
ENDBRANCH  21  25
ENDBRANCH  17  18
ENDBRANCH  16  17
ENDBRANCH   1  16
TORSDOF 7
ENDMDL
MODEL 8
REMARK VINA RESULT:     -10.7      5.577     10.116
REMARK  Name = 25065981
REMARK  7 active torsions:
REMARK  status: ('A' for Active; 'I' for Inactive)
REMARK    1  A    between atoms: C_1  and  C_3
REMARK    2  A    between atoms: C_1  and  C_16
REMARK    3  A    between atoms: C_11  and  O_13
REMARK    4  A    between atoms: C_16  and  O_17
REMARK    5  A    between atoms: O_17  and  C_18
REMARK    6  A    between atoms: C_21  and  C_25
REMARK    7  A    between atoms: C_25  and  N_26
REMARK                            x       y       z     vdW  Elec       q    Type
REMARK                         _______ _______ _______ _____ _____    ______ ____
ROOT
ATOM      1  C   UNL     1      35.020 -23.937 -14.525  0.00  0.00    +0.122 C 
ATOM      2  C   UNL     1      36.027 -25.104 -14.502  0.00  0.00    +0.016 C 
ENDROOT
BRANCH   1   3
ATOM      3  C   UNL     1      35.247 -22.983 -15.649  0.00  0.00    -0.012 C 
ATOM      4  C   UNL     1      34.402 -21.786 -17.591  0.00  0.00    -0.000 C 
ATOM      5  C   UNL     1      34.206 -22.682 -16.528  0.00  0.00    -0.004 C 
ATOM      6  C   UNL     1      35.672 -21.187 -17.766  0.00  0.00    +0.003 C 
ATOM      7  C   UNL     1      36.496 -22.394 -15.820  0.00  0.00    -0.004 C 
ATOM      8  C   UNL     1      36.709 -21.502 -16.871  0.00  0.00    -0.000 C 
ATOM      9  C   UNL     1      33.366 -21.471 -18.485  0.00  0.00    +0.003 C 
ATOM     10  C   UNL     1      35.869 -20.291 -18.829  0.00  0.00    +0.037 C 
ATOM     11  C   UNL     1      34.828 -19.990 -19.707  0.00  0.00    +0.139 C 
ATOM     12  C   UNL     1      33.579 -20.579 -19.535  0.00  0.00    +0.037 C 
BRANCH  11  13
ATOM     13  O   UNL     1      35.034 -19.119 -20.733  0.00  0.00    -0.471 OA
ATOM     14  C   UNL     1      35.794 -17.947 -20.448  0.00  0.00    +0.252 C 
ENDBRANCH  11  13
ENDBRANCH   1   3
BRANCH   1  16
ATOM     15  O   UNL     1      35.857 -22.445 -12.779  0.00  0.00    -0.249 OA
ATOM     16  C   UNL     1      35.010 -23.245 -13.155  0.00  0.00    +0.325 C 
BRANCH  16  17
ATOM     17  O   UNL     1      33.886 -23.649 -12.435  0.00  0.00    -0.424 OA
BRANCH  17  18
ATOM     18  C   UNL     1      32.696 -23.510 -13.153  0.00  0.00    +0.148 C 
ATOM     19  C   UNL     1      31.934 -24.636 -13.464  0.00  0.00    +0.038 C 
ATOM     20  C   UNL     1      32.272 -22.246 -13.560  0.00  0.00    +0.038 C 
ATOM     21  C   UNL     1      30.322 -23.232 -14.591  0.00  0.00    +0.020 C 
ATOM     22  C   UNL     1      30.747 -24.497 -14.183  0.00  0.00    +0.005 C 
ATOM     23  C   UNL     1      31.084 -22.107 -14.279  0.00  0.00    +0.005 C 
BRANCH  21  25
ATOM     24  S   UNL     1      28.036 -21.764 -15.240  0.00  0.00    -0.035 S 
ATOM     25  C   UNL     1      29.085 -23.088 -15.341  0.00  0.00    +0.078 C 
BRANCH  25  26
ATOM     26  N   UNL     1      28.766 -24.129 -16.204  0.00  0.00    -0.352 N 
ATOM     27  H   UNL     1      29.479 -24.600 -16.692  0.00  0.00    +0.143 HD
ATOM     28  H   UNL     1      27.826 -24.395 -16.328  0.00  0.00    +0.143 HD
ENDBRANCH  25  26
ENDBRANCH  21  25
ENDBRANCH  17  18
ENDBRANCH  16  17
ENDBRANCH   1  16
TORSDOF 7
ENDMDL
MODEL 9
REMARK VINA RESULT:     -10.6      5.712      9.806
REMARK  Name = 25065981
REMARK  7 active torsions:
REMARK  status: ('A' for Active; 'I' for Inactive)
REMARK    1  A    between atoms: C_1  and  C_3
REMARK    2  A    between atoms: C_1  and  C_16
REMARK    3  A    between atoms: C_11  and  O_13
REMARK    4  A    between atoms: C_16  and  O_17
REMARK    5  A    between atoms: O_17  and  C_18
REMARK    6  A    between atoms: C_21  and  C_25
REMARK    7  A    between atoms: C_25  and  N_26
REMARK                            x       y       z     vdW  Elec       q    Type
REMARK                         _______ _______ _______ _____ _____    ______ ____
ROOT
ATOM      1  C   UNL     1      35.171 -20.067 -19.188  0.00  0.00    +0.122 C 
ATOM      2  C   UNL     1      34.245 -21.256 -19.515  0.00  0.00    +0.016 C 
ENDROOT
BRANCH   1   3
ATOM      3  C   UNL     1      35.216 -19.038 -20.266  0.00  0.00    -0.012 C 
ATOM      4  C   UNL     1      34.614 -18.321 -22.512  0.00  0.00    -0.000 C 
ATOM      5  C   UNL     1      34.582 -19.279 -21.485  0.00  0.00    -0.004 C 
ATOM      6  C   UNL     1      35.299 -17.101 -22.298  0.00  0.00    +0.003 C 
ATOM      7  C   UNL     1      35.890 -17.839 -20.056  0.00  0.00    -0.004 C 
ATOM      8  C   UNL     1      35.932 -16.875 -21.064  0.00  0.00    -0.000 C 
ATOM      9  C   UNL     1      33.982 -18.546 -23.745  0.00  0.00    +0.003 C 
ATOM     10  C   UNL     1      35.332 -16.143 -23.324  0.00  0.00    +0.037 C 
ATOM     11  C   UNL     1      34.698 -16.383 -24.543  0.00  0.00    +0.139 C 
ATOM     12  C   UNL     1      34.024 -17.583 -24.753  0.00  0.00    +0.037 C 
BRANCH  11  13
ATOM     13  O   UNL     1      34.738 -15.445 -25.528  0.00  0.00    -0.471 OA
ATOM     14  C   UNL     1      33.933 -14.281 -25.349  0.00  0.00    +0.252 C 
ENDBRANCH  11  13
ENDBRANCH   1   3
BRANCH   1  16
ATOM     15  O   UNL     1      37.284 -21.237 -19.567  0.00  0.00    -0.249 OA
ATOM     16  C   UNL     1      36.564 -20.593 -18.814  0.00  0.00    +0.325 C 
BRANCH  16  17
ATOM     17  O   UNL     1      36.879 -20.204 -17.513  0.00  0.00    -0.424 OA
BRANCH  17  18
ATOM     18  C   UNL     1      36.792 -21.250 -16.592  0.00  0.00    +0.148 C 
ATOM     19  C   UNL     1      37.938 -21.697 -15.934  0.00  0.00    +0.038 C 
ATOM     20  C   UNL     1      35.559 -21.848 -16.331  0.00  0.00    +0.038 C 
ATOM     21  C   UNL     1      36.618 -23.343 -14.755  0.00  0.00    +0.020 C 
ATOM     22  C   UNL     1      37.851 -22.744 -15.016  0.00  0.00    +0.005 C 
ATOM     23  C   UNL     1      35.473 -22.895 -15.412  0.00  0.00    +0.005 C 
BRANCH  21  25
ATOM     24  S   UNL     1      37.477 -25.835 -13.831  0.00  0.00    -0.035 S 
ATOM     25  C   UNL     1      36.528 -24.433 -13.798  0.00  0.00    +0.078 C 
BRANCH  25  26
ATOM     26  N   UNL     1      35.590 -24.285 -12.785  0.00  0.00    -0.352 N 
ATOM     27  H   UNL     1      35.853 -23.884 -11.925  0.00  0.00    +0.143 HD
ATOM     28  H   UNL     1      34.661 -24.582 -12.926  0.00  0.00    +0.143 HD
ENDBRANCH  25  26
ENDBRANCH  21  25
ENDBRANCH  17  18
ENDBRANCH  16  17
ENDBRANCH   1  16
TORSDOF 7
ENDMDL
