MODEL 1
REMARK VINA RESULT:     -10.9      0.000      0.000
REMARK  Name = 24180719
REMARK  6 active torsions:
REMARK  status: ('A' for Active; 'I' for Inactive)
REMARK    1  A    between atoms: C_3  and  N_22
REMARK    2  A    between atoms: C_4  and  C_10
REMARK    3  A    between atoms: C_10  and  C_14
REMARK    4  A    between atoms: N_22  and  S_24
REMARK    5  A    between atoms: S_24  and  C_27
REMARK    6  A    between atoms: C_27  and  C_28
REMARK                            x       y       z     vdW  Elec       q    Type
REMARK                         _______ _______ _______ _____ _____    ______ ____
ROOT
ATOM      1  F   UNL     1      35.486 -15.851 -20.162  0.00  0.00    -0.203 F 
ATOM      2  F   UNL     1      35.238 -19.280 -23.436  0.00  0.00    -0.204 F 
ATOM      3  C   UNL     1      35.002 -15.285 -22.412  0.00  0.00    +0.092 C 
ATOM      4  C   UNL     1      35.370 -17.586 -21.775  0.00  0.00    +0.095 C 
ATOM      5  C   UNL     1      35.289 -16.236 -21.433  0.00  0.00    +0.160 C 
ATOM      6  C   UNL     1      34.797 -15.684 -23.733  0.00  0.00    +0.020 C 
ATOM      7  C   UNL     1      35.164 -17.985 -23.095  0.00  0.00    +0.145 C 
ATOM      8  C   UNL     1      34.878 -17.033 -24.075  0.00  0.00    +0.031 C 
ENDROOT
BRANCH   4  10
ATOM      9  O   UNL     1      36.871 -18.685 -20.389  0.00  0.00    -0.286 OA
ATOM     10  C   UNL     1      35.676 -18.605 -20.725  0.00  0.00    +0.201 C 
BRANCH  10  14
ATOM     11 CL   UNL     1      36.588 -22.244 -16.105  0.00  0.00    -0.081 Cl
ATOM     12  N   UNL     1      32.645 -20.368 -19.876  0.00  0.00    -0.297 N 
ATOM     13  N   UNL     1      33.097 -21.814 -18.003  0.00  0.00    -0.228 NA
ATOM     14  C   UNL     1      34.642 -19.432 -20.172  0.00  0.00    +0.056 C 
ATOM     15  C   UNL     1      34.731 -20.336 -19.079  0.00  0.00    +0.037 C 
ATOM     16  C   UNL     1      33.469 -20.902 -18.921  0.00  0.00    +0.132 C 
ATOM     17  C   UNL     1      33.348 -19.473 -20.641  0.00  0.00    +0.066 C 
ATOM     18  C   UNL     1      35.740 -20.747 -18.194  0.00  0.00    +0.016 C 
ATOM     19  C   UNL     1      35.408 -21.691 -17.223  0.00  0.00    +0.077 C 
ATOM     20  C   UNL     1      34.108 -22.175 -17.179  0.00  0.00    +0.112 C 
ATOM     21  H   UNL     1      31.694 -20.591 -19.994  0.00  0.00    +0.154 HD
ENDBRANCH  10  14
ENDBRANCH   4  10
BRANCH   3  22
ATOM     22  N   UNL     1      34.919 -13.902 -22.066  0.00  0.00    -0.217 N 
ATOM     23  H   UNL     1      35.480 -13.524 -21.350  0.00  0.00    +0.173 HD
BRANCH  22  24
ATOM     24  S   UNL     1      33.809 -12.912 -22.935  0.00  0.00    +0.054 S 
ATOM     25  O   UNL     1      34.488 -11.688 -23.317  0.00  0.00    -0.154 OA
ATOM     26  O   UNL     1      33.082 -13.689 -23.919  0.00  0.00    -0.154 OA
BRANCH  24  27
ATOM     27  C   UNL     1      32.678 -12.488 -21.630  0.00  0.00    +0.172 C 
BRANCH  27  28
ATOM     28  C   UNL     1      33.244 -12.851 -20.267  0.00  0.00    +0.027 C 
ATOM     29  C   UNL     1      32.314 -13.783 -19.508  0.00  0.00    +0.002 C 
ENDBRANCH  27  28
ENDBRANCH  24  27
ENDBRANCH  22  24
ENDBRANCH   3  22
TORSDOF 6
ENDMDL
MODEL 2
REMARK VINA RESULT:     -10.8      4.239      7.985
REMARK  Name = 24180719
REMARK  6 active torsions:
REMARK  status: ('A' for Active; 'I' for Inactive)
REMARK    1  A    between atoms: C_3  and  N_22
REMARK    2  A    between atoms: C_4  and  C_10
REMARK    3  A    between atoms: C_10  and  C_14
REMARK    4  A    between atoms: N_22  and  S_24
REMARK    5  A    between atoms: S_24  and  C_27
REMARK    6  A    between atoms: C_27  and  C_28
REMARK                            x       y       z     vdW  Elec       q    Type
REMARK                         _______ _______ _______ _____ _____    ______ ____
ROOT
ATOM      1  F   UNL     1      33.157 -18.992 -19.928  0.00  0.00    -0.203 F 
ATOM      2  F   UNL     1      37.859 -18.704 -20.508  0.00  0.00    -0.204 F 
ATOM      3  C   UNL     1      34.541 -20.745 -19.136  0.00  0.00    +0.092 C 
ATOM      4  C   UNL     1      35.502 -18.819 -20.233  0.00  0.00    +0.095 C 
ATOM      5  C   UNL     1      34.384 -19.512 -19.768  0.00  0.00    +0.160 C 
ATOM      6  C   UNL     1      35.816 -21.287 -18.969  0.00  0.00    +0.020 C 
ATOM      7  C   UNL     1      36.776 -19.360 -20.066  0.00  0.00    +0.145 C 
ATOM      8  C   UNL     1      36.933 -20.594 -19.434  0.00  0.00    +0.031 C 
ENDROOT
BRANCH   4  10
ATOM      9  O   UNL     1      35.495 -16.500 -20.185  0.00  0.00    -0.286 OA
ATOM     10  C   UNL     1      35.334 -17.498 -20.910  0.00  0.00    +0.201 C 
BRANCH  10  14
ATOM     11 CL   UNL     1      34.169 -12.344 -23.648  0.00  0.00    -0.081 Cl
ATOM     12  N   UNL     1      34.561 -18.052 -24.390  0.00  0.00    -0.297 N 
ATOM     13  N   UNL     1      34.103 -15.924 -25.423  0.00  0.00    -0.228 NA
ATOM     14  C   UNL     1      34.994 -17.417 -22.302  0.00  0.00    +0.056 C 
ATOM     15  C   UNL     1      34.696 -16.258 -23.068  0.00  0.00    +0.037 C 
ATOM     16  C   UNL     1      34.431 -16.688 -24.365  0.00  0.00    +0.132 C 
ATOM     17  C   UNL     1      34.903 -18.505 -23.142  0.00  0.00    +0.066 C 
ATOM     18  C   UNL     1      34.620 -14.879 -22.816  0.00  0.00    +0.016 C 
ATOM     19  C   UNL     1      34.283 -14.041 -23.878  0.00  0.00    +0.077 C 
ATOM     20  C   UNL     1      34.042 -14.606 -25.123  0.00  0.00    +0.112 C 
ATOM     21  H   UNL     1      34.429 -18.620 -25.184  0.00  0.00    +0.154 HD
ENDBRANCH  10  14
ENDBRANCH   4  10
BRANCH   3  22
ATOM     22  N   UNL     1      33.398 -21.457 -18.658  0.00  0.00    -0.217 N 
ATOM     23  H   UNL     1      32.516 -21.338 -19.077  0.00  0.00    +0.173 HD
BRANCH  22  24
ATOM     24  S   UNL     1      33.607 -22.531 -17.327  0.00  0.00    +0.054 S 
ATOM     25  O   UNL     1      33.671 -23.887 -17.838  0.00  0.00    -0.154 OA
ATOM     26  O   UNL     1      34.621 -22.037 -16.418  0.00  0.00    -0.154 OA
BRANCH  24  27
ATOM     27  C   UNL     1      32.027 -22.354 -16.530  0.00  0.00    +0.172 C 
BRANCH  27  28
ATOM     28  C   UNL     1      32.107 -22.717 -15.057  0.00  0.00    +0.027 C 
ATOM     29  C   UNL     1      30.843 -22.313 -14.315  0.00  0.00    +0.002 C 
ENDBRANCH  27  28
ENDBRANCH  24  27
ENDBRANCH  22  24
ENDBRANCH   3  22
TORSDOF 6
ENDMDL
MODEL 3
REMARK VINA RESULT:     -10.7      6.059      9.922
REMARK  Name = 24180719
REMARK  6 active torsions:
REMARK  status: ('A' for Active; 'I' for Inactive)
REMARK    1  A    between atoms: C_3  and  N_22
REMARK    2  A    between atoms: C_4  and  C_10
REMARK    3  A    between atoms: C_10  and  C_14
REMARK    4  A    between atoms: N_22  and  S_24
REMARK    5  A    between atoms: S_24  and  C_27
REMARK    6  A    between atoms: C_27  and  C_28
REMARK                            x       y       z     vdW  Elec       q    Type
REMARK                         _______ _______ _______ _____ _____    ______ ____
ROOT
ATOM      1  F   UNL     1      35.613 -23.870 -15.670  0.00  0.00    -0.203 F 
ATOM      2  F   UNL     1      31.705 -21.525 -16.998  0.00  0.00    -0.204 F 
ATOM      3  C   UNL     1      33.836 -23.593 -14.127  0.00  0.00    +0.092 C 
ATOM      4  C   UNL     1      33.675 -22.693 -16.364  0.00  0.00    +0.095 C 
ATOM      5  C   UNL     1      34.391 -23.391 -15.390  0.00  0.00    +0.160 C 
ATOM      6  C   UNL     1      32.566 -23.096 -13.835  0.00  0.00    +0.020 C 
ATOM      7  C   UNL     1      32.405 -22.197 -16.072  0.00  0.00    +0.145 C 
ATOM      8  C   UNL     1      31.850 -22.398 -14.807  0.00  0.00    +0.031 C 
ENDROOT
BRANCH   4  10
ATOM      9  O   UNL     1      33.824 -23.210 -18.621  0.00  0.00    -0.286 OA
ATOM     10  C   UNL     1      34.268 -22.478 -17.718  0.00  0.00    +0.201 C 
BRANCH  10  14
ATOM     11 CL   UNL     1      34.202 -18.699 -22.315  0.00  0.00    -0.081 Cl
ATOM     12  N   UNL     1      37.142 -20.298 -17.615  0.00  0.00    -0.297 N 
ATOM     13  N   UNL     1      37.041 -18.805 -19.502  0.00  0.00    -0.228 NA
ATOM     14  C   UNL     1      35.292 -21.494 -17.930  0.00  0.00    +0.056 C 
ATOM     15  C   UNL     1      35.391 -20.542 -18.979  0.00  0.00    +0.037 C 
ATOM     16  C   UNL     1      36.555 -19.812 -18.753  0.00  0.00    +0.132 C 
ATOM     17  C   UNL     1      36.383 -21.321 -17.106  0.00  0.00    +0.066 C 
ATOM     18  C   UNL     1      34.625 -20.205 -20.107  0.00  0.00    +0.016 C 
ATOM     19  C   UNL     1      35.084 -19.168 -20.918  0.00  0.00    +0.077 C 
ATOM     20  C   UNL     1      36.265 -18.524 -20.575  0.00  0.00    +0.112 C 
ATOM     21  H   UNL     1      37.980 -19.965 -17.221  0.00  0.00    +0.154 HD
ENDBRANCH  10  14
ENDBRANCH   4  10
BRANCH   3  22
ATOM     22  N   UNL     1      34.567 -24.307 -13.129  0.00  0.00    -0.217 N 
ATOM     23  H   UNL     1      34.414 -25.268 -12.980  0.00  0.00    +0.173 HD
BRANCH  22  24
ATOM     24  S   UNL     1      35.723 -23.440 -12.192  0.00  0.00    +0.054 S 
ATOM     25  O   UNL     1      36.328 -22.424 -13.034  0.00  0.00    -0.154 OA
ATOM     26  O   UNL     1      35.182 -23.093 -10.892  0.00  0.00    -0.154 OA
BRANCH  24  27
ATOM     27  C   UNL     1      36.948 -24.707 -11.952  0.00  0.00    +0.172 C 
BRANCH  27  28
ATOM     28  C   UNL     1      38.350 -24.123 -11.919  0.00  0.00    +0.027 C 
ATOM     29  C   UNL     1      39.272 -24.833 -12.896  0.00  0.00    +0.002 C 
ENDBRANCH  27  28
ENDBRANCH  24  27
ENDBRANCH  22  24
ENDBRANCH   3  22
TORSDOF 6
ENDMDL
MODEL 4
REMARK VINA RESULT:     -10.5      4.083      8.040
REMARK  Name = 24180719
REMARK  6 active torsions:
REMARK  status: ('A' for Active; 'I' for Inactive)
REMARK    1  A    between atoms: C_3  and  N_22
REMARK    2  A    between atoms: C_4  and  C_10
REMARK    3  A    between atoms: C_10  and  C_14
REMARK    4  A    between atoms: N_22  and  S_24
REMARK    5  A    between atoms: S_24  and  C_27
REMARK    6  A    between atoms: C_27  and  C_28
REMARK                            x       y       z     vdW  Elec       q    Type
REMARK                         _______ _______ _______ _____ _____    ______ ____
ROOT
ATOM      1  F   UNL     1      33.223 -19.145 -20.553  0.00  0.00    -0.203 F 
ATOM      2  F   UNL     1      37.923 -18.505 -20.728  0.00  0.00    -0.204 F 
ATOM      3  C   UNL     1      34.634 -20.471 -19.187  0.00  0.00    +0.092 C 
ATOM      4  C   UNL     1      35.567 -18.802 -20.664  0.00  0.00    +0.095 C 
ATOM      5  C   UNL     1      34.459 -19.469 -20.140  0.00  0.00    +0.160 C 
ATOM      6  C   UNL     1      35.918 -20.808 -18.757  0.00  0.00    +0.020 C 
ATOM      7  C   UNL     1      36.849 -19.138 -20.234  0.00  0.00    +0.145 C 
ATOM      8  C   UNL     1      37.025 -20.142 -19.280  0.00  0.00    +0.031 C 
ENDROOT
BRANCH   4  10
ATOM      9  O   UNL     1      35.438 -18.098 -22.871  0.00  0.00    -0.286 OA
ATOM     10  C   UNL     1      35.379 -17.727 -21.685  0.00  0.00    +0.201 C 
BRANCH  10  14
ATOM     11 CL   UNL     1      33.820 -13.476 -25.547  0.00  0.00    -0.081 Cl
ATOM     12  N   UNL     1      35.003 -14.557 -20.005  0.00  0.00    -0.297 N 
ATOM     13  N   UNL     1      34.374 -12.895 -21.632  0.00  0.00    -0.228 NA
ATOM     14  C   UNL     1      35.160 -16.364 -21.293  0.00  0.00    +0.056 C 
ATOM     15  C   UNL     1      34.788 -15.264 -22.112  0.00  0.00    +0.037 C 
ATOM     16  C   UNL     1      34.698 -14.153 -21.278  0.00  0.00    +0.132 C 
ATOM     17  C   UNL     1      35.285 -15.899 -20.003  0.00  0.00    +0.066 C 
ATOM     18  C   UNL     1      34.512 -15.073 -23.475  0.00  0.00    +0.016 C 
ATOM     19  C   UNL     1      34.171 -13.789 -23.896  0.00  0.00    +0.077 C 
ATOM     20  C   UNL     1      34.120 -12.769 -22.955  0.00  0.00    +0.112 C 
ATOM     21  H   UNL     1      35.017 -13.973 -19.212  0.00  0.00    +0.154 HD
ENDBRANCH  10  14
ENDBRANCH   4  10
BRANCH   3  22
ATOM     22  N   UNL     1      33.502 -21.156 -18.649  0.00  0.00    -0.217 N 
ATOM     23  H   UNL     1      32.586 -20.900 -18.906  0.00  0.00    +0.173 HD
BRANCH  22  24
ATOM     24  S   UNL     1      33.781 -22.442 -17.538  0.00  0.00    +0.054 S 
ATOM     25  O   UNL     1      33.790 -23.691 -18.275  0.00  0.00    -0.154 OA
ATOM     26  O   UNL     1      34.862 -22.115 -16.629  0.00  0.00    -0.154 OA
BRANCH  24  27
ATOM     27  C   UNL     1      32.261 -22.397 -16.617  0.00  0.00    +0.172 C 
BRANCH  27  28
ATOM     28  C   UNL     1      32.485 -22.766 -15.159  0.00  0.00    +0.027 C 
ATOM     29  C   UNL     1      31.300 -22.368 -14.295  0.00  0.00    +0.002 C 
ENDBRANCH  27  28
ENDBRANCH  24  27
ENDBRANCH  22  24
ENDBRANCH   3  22
TORSDOF 6
ENDMDL
MODEL 5
REMARK VINA RESULT:     -10.5      4.764      6.979
REMARK  Name = 24180719
REMARK  6 active torsions:
REMARK  status: ('A' for Active; 'I' for Inactive)
REMARK    1  A    between atoms: C_3  and  N_22
REMARK    2  A    between atoms: C_4  and  C_10
REMARK    3  A    between atoms: C_10  and  C_14
REMARK    4  A    between atoms: N_22  and  S_24
REMARK    5  A    between atoms: S_24  and  C_27
REMARK    6  A    between atoms: C_27  and  C_28
REMARK                            x       y       z     vdW  Elec       q    Type
REMARK                         _______ _______ _______ _____ _____    ______ ____
ROOT
ATOM      1  F   UNL     1      33.443 -10.419 -23.204  0.00  0.00    -0.203 F 
ATOM      2  F   UNL     1      32.721 -13.688 -19.838  0.00  0.00    -0.204 F 
ATOM      3  C   UNL     1      31.804 -10.036 -21.535  0.00  0.00    +0.092 C 
ATOM      4  C   UNL     1      33.106 -12.071 -21.536  0.00  0.00    +0.095 C 
ATOM      5  C   UNL     1      32.792 -10.837 -22.106  0.00  0.00    +0.160 C 
ATOM      6  C   UNL     1      31.127 -10.469 -20.395  0.00  0.00    +0.020 C 
ATOM      7  C   UNL     1      32.430 -12.504 -20.396  0.00  0.00    +0.145 C 
ATOM      8  C   UNL     1      31.440 -11.703 -19.825  0.00  0.00    +0.031 C 
ENDROOT
BRANCH   4  10
ATOM      9  O   UNL     1      35.276 -12.888 -21.590  0.00  0.00    -0.286 OA
ATOM     10  C   UNL     1      34.165 -12.929 -22.148  0.00  0.00    +0.201 C 
BRANCH  10  14
ATOM     11 CL   UNL     1      35.541 -18.709 -22.485  0.00  0.00    -0.081 Cl
ATOM     12  N   UNL     1      33.197 -14.283 -25.349  0.00  0.00    -0.297 N 
ATOM     13  N   UNL     1      33.787 -16.618 -25.405  0.00  0.00    -0.228 NA
ATOM     14  C   UNL     1      33.893 -13.726 -23.310  0.00  0.00    +0.056 C 
ATOM     15  C   UNL     1      34.171 -15.104 -23.515  0.00  0.00    +0.037 C 
ATOM     16  C   UNL     1      33.724 -15.420 -24.795  0.00  0.00    +0.132 C 
ATOM     17  C   UNL     1      33.295 -13.247 -24.455  0.00  0.00    +0.066 C 
ATOM     18  C   UNL     1      34.752 -16.135 -22.760  0.00  0.00    +0.016 C 
ATOM     19  C   UNL     1      34.842 -17.397 -23.345  0.00  0.00    +0.077 C 
ATOM     20  C   UNL     1      34.356 -17.572 -24.634  0.00  0.00    +0.112 C 
ATOM     21  H   UNL     1      32.808 -14.219 -26.251  0.00  0.00    +0.154 HD
ENDBRANCH  10  14
ENDBRANCH   4  10
BRANCH   3  22
ATOM     22  N   UNL     1      31.481  -8.771 -22.116  0.00  0.00    -0.217 N 
ATOM     23  H   UNL     1      30.786  -8.695 -22.809  0.00  0.00    +0.173 HD
BRANCH  22  24
ATOM     24  S   UNL     1      32.342  -7.383 -21.572  0.00  0.00    +0.054 S 
ATOM     25  O   UNL     1      31.426  -6.258 -21.539  0.00  0.00    -0.154 OA
ATOM     26  O   UNL     1      33.160  -7.700 -20.418  0.00  0.00    -0.154 OA
BRANCH  24  27
ATOM     27  C   UNL     1      33.428  -7.123 -22.956  0.00  0.00    +0.172 C 
BRANCH  27  28
ATOM     28  C   UNL     1      34.872  -7.425 -22.591  0.00  0.00    +0.027 C 
ATOM     29  C   UNL     1      35.637  -7.997 -23.773  0.00  0.00    +0.002 C 
ENDBRANCH  27  28
ENDBRANCH  24  27
ENDBRANCH  22  24
ENDBRANCH   3  22
TORSDOF 6
ENDMDL
MODEL 6
REMARK VINA RESULT:     -10.2      4.728      6.932
REMARK  Name = 24180719
REMARK  6 active torsions:
REMARK  status: ('A' for Active; 'I' for Inactive)
REMARK    1  A    between atoms: C_3  and  N_22
REMARK    2  A    between atoms: C_4  and  C_10
REMARK    3  A    between atoms: C_10  and  C_14
REMARK    4  A    between atoms: N_22  and  S_24
REMARK    5  A    between atoms: S_24  and  C_27
REMARK    6  A    between atoms: C_27  and  C_28
REMARK                            x       y       z     vdW  Elec       q    Type
REMARK                         _______ _______ _______ _____ _____    ______ ____
ROOT
ATOM      1  F   UNL     1      33.480 -10.434 -23.266  0.00  0.00    -0.203 F 
ATOM      2  F   UNL     1      32.741 -13.732 -19.933  0.00  0.00    -0.204 F 
ATOM      3  C   UNL     1      31.844 -10.058 -21.593  0.00  0.00    +0.092 C 
ATOM      4  C   UNL     1      33.134 -12.101 -21.616  0.00  0.00    +0.095 C 
ATOM      5  C   UNL     1      32.828 -10.859 -22.173  0.00  0.00    +0.160 C 
ATOM      6  C   UNL     1      31.166 -10.499 -20.457  0.00  0.00    +0.020 C 
ATOM      7  C   UNL     1      32.456 -12.541 -20.479  0.00  0.00    +0.145 C 
ATOM      8  C   UNL     1      31.472 -11.740 -19.900  0.00  0.00    +0.031 C 
ENDROOT
BRANCH   4  10
ATOM      9  O   UNL     1      35.312 -12.895 -21.707  0.00  0.00    -0.286 OA
ATOM     10  C   UNL     1      34.188 -12.959 -22.236  0.00  0.00    +0.201 C 
BRANCH  10  14
ATOM     11 CL   UNL     1      35.545 -18.750 -22.459  0.00  0.00    -0.081 Cl
ATOM     12  N   UNL     1      33.168 -14.385 -25.390  0.00  0.00    -0.297 N 
ATOM     13  N   UNL     1      33.751 -16.722 -25.400  0.00  0.00    -0.228 NA
ATOM     14  C   UNL     1      33.897 -13.782 -23.376  0.00  0.00    +0.056 C 
ATOM     15  C   UNL     1      34.168 -15.166 -23.552  0.00  0.00    +0.037 C 
ATOM     16  C   UNL     1      33.700 -15.510 -24.817  0.00  0.00    +0.132 C 
ATOM     17  C   UNL     1      33.282 -13.329 -24.522  0.00  0.00    +0.066 C 
ATOM     18  C   UNL     1      34.758 -16.181 -22.782  0.00  0.00    +0.016 C 
ATOM     19  C   UNL     1      34.836 -17.456 -23.339  0.00  0.00    +0.077 C 
ATOM     20  C   UNL     1      34.330 -17.660 -24.615  0.00  0.00    +0.112 C 
ATOM     21  H   UNL     1      32.765 -14.341 -26.287  0.00  0.00    +0.154 HD
ENDBRANCH  10  14
ENDBRANCH   4  10
BRANCH   3  22
ATOM     22  N   UNL     1      31.529  -8.786 -22.162  0.00  0.00    -0.217 N 
ATOM     23  H   UNL     1      30.778  -8.685 -22.790  0.00  0.00    +0.173 HD
BRANCH  22  24
ATOM     24  S   UNL     1      32.498  -7.434 -21.716  0.00  0.00    +0.054 S 
ATOM     25  O   UNL     1      33.879  -7.730 -22.049  0.00  0.00    -0.154 OA
ATOM     26  O   UNL     1      31.886  -6.193 -22.148  0.00  0.00    -0.154 OA
BRANCH  24  27
ATOM     27  C   UNL     1      32.364  -7.521 -19.945  0.00  0.00    +0.172 C 
BRANCH  27  28
ATOM     28  C   UNL     1      33.273  -6.507 -19.270  0.00  0.00    +0.027 C 
ATOM     29  C   UNL     1      32.473  -5.425 -18.564  0.00  0.00    +0.002 C 
ENDBRANCH  27  28
ENDBRANCH  24  27
ENDBRANCH  22  24
ENDBRANCH   3  22
TORSDOF 6
ENDMDL
MODEL 7
REMARK VINA RESULT:      -9.9      3.510      5.499
REMARK  Name = 24180719
REMARK  6 active torsions:
REMARK  status: ('A' for Active; 'I' for Inactive)
REMARK    1  A    between atoms: C_3  and  N_22
REMARK    2  A    between atoms: C_4  and  C_10
REMARK    3  A    between atoms: C_10  and  C_14
REMARK    4  A    between atoms: N_22  and  S_24
REMARK    5  A    between atoms: S_24  and  C_27
REMARK    6  A    between atoms: C_27  and  C_28
REMARK                            x       y       z     vdW  Elec       q    Type
REMARK                         _______ _______ _______ _____ _____    ______ ____
ROOT
ATOM      1  F   UNL     1      33.224 -20.762 -19.911  0.00  0.00    -0.203 F 
ATOM      2  F   UNL     1      36.939 -21.812 -17.149  0.00  0.00    -0.204 F 
ATOM      3  C   UNL     1      35.204 -19.470 -20.075  0.00  0.00    +0.092 C 
ATOM      4  C   UNL     1      35.062 -21.311 -18.517  0.00  0.00    +0.095 C 
ATOM      5  C   UNL     1      34.480 -20.517 -19.506  0.00  0.00    +0.160 C 
ATOM      6  C   UNL     1      36.509 -19.215 -19.655  0.00  0.00    +0.020 C 
ATOM      7  C   UNL     1      36.367 -21.056 -18.098  0.00  0.00    +0.145 C 
ATOM      8  C   UNL     1      37.092 -20.008 -18.667  0.00  0.00    +0.031 C 
ENDROOT
BRANCH   4  10
ATOM      9  O   UNL     1      33.961 -23.346 -18.688  0.00  0.00    -0.286 OA
ATOM     10  C   UNL     1      34.287 -22.434 -17.907  0.00  0.00    +0.201 C 
BRANCH  10  14
ATOM     11 CL   UNL     1      28.660 -22.277 -15.975  0.00  0.00    -0.081 Cl
ATOM     12  N   UNL     1      34.179 -22.434 -14.301  0.00  0.00    -0.297 N 
ATOM     13  N   UNL     1      31.875 -22.369 -13.602  0.00  0.00    -0.228 NA
ATOM     14  C   UNL     1      33.944 -22.425 -16.514  0.00  0.00    +0.056 C 
ATOM     15  C   UNL     1      32.651 -22.389 -15.928  0.00  0.00    +0.037 C 
ATOM     16  C   UNL     1      32.832 -22.396 -14.548  0.00  0.00    +0.132 C 
ATOM     17  C   UNL     1      34.864 -22.452 -15.489  0.00  0.00    +0.066 C 
ATOM     18  C   UNL     1      31.331 -22.352 -16.406  0.00  0.00    +0.016 C 
ATOM     19  C   UNL     1      30.300 -22.323 -15.468  0.00  0.00    +0.077 C 
ATOM     20  C   UNL     1      30.625 -22.333 -14.118  0.00  0.00    +0.112 C 
ATOM     21  H   UNL     1      34.593 -22.446 -13.408  0.00  0.00    +0.154 HD
ENDBRANCH  10  14
ENDBRANCH   4  10
BRANCH   3  22
ATOM     22  N   UNL     1      34.611 -18.656 -21.088  0.00  0.00    -0.217 N 
ATOM     23  H   UNL     1      33.685 -18.811 -21.385  0.00  0.00    +0.173 HD
BRANCH  22  24
ATOM     24  S   UNL     1      35.560 -17.394 -21.776  0.00  0.00    +0.054 S 
ATOM     25  O   UNL     1      35.313 -16.175 -21.030  0.00  0.00    -0.154 OA
ATOM     26  O   UNL     1      36.916 -17.843 -22.026  0.00  0.00    -0.154 OA
BRANCH  24  27
ATOM     27  C   UNL     1      34.748 -17.211 -23.348  0.00  0.00    +0.172 C 
BRANCH  27  28
ATOM     28  C   UNL     1      35.017 -15.844 -23.955  0.00  0.00    +0.027 C 
ATOM     29  C   UNL     1      33.964 -15.476 -24.986  0.00  0.00    +0.002 C 
ENDBRANCH  27  28
ENDBRANCH  24  27
ENDBRANCH  22  24
ENDBRANCH   3  22
TORSDOF 6
ENDMDL
MODEL 8
REMARK VINA RESULT:      -9.9      4.337      8.009
REMARK  Name = 24180719
REMARK  6 active torsions:
REMARK  status: ('A' for Active; 'I' for Inactive)
REMARK    1  A    between atoms: C_3  and  N_22
REMARK    2  A    between atoms: C_4  and  C_10
REMARK    3  A    between atoms: C_10  and  C_14
REMARK    4  A    between atoms: N_22  and  S_24
REMARK    5  A    between atoms: S_24  and  C_27
REMARK    6  A    between atoms: C_27  and  C_28
REMARK                            x       y       z     vdW  Elec       q    Type
REMARK                         _______ _______ _______ _____ _____    ______ ____
ROOT
ATOM      1  F   UNL     1      35.546 -14.258 -21.472  0.00  0.00    -0.203 F 
ATOM      2  F   UNL     1      32.716 -13.432 -25.193  0.00  0.00    -0.204 F 
ATOM      3  C   UNL     1      35.301 -15.919 -23.144  0.00  0.00    +0.092 C 
ATOM      4  C   UNL     1      34.125 -13.815 -23.318  0.00  0.00    +0.095 C 
ATOM      5  C   UNL     1      34.997 -14.659 -22.629  0.00  0.00    +0.160 C 
ATOM      6  C   UNL     1      34.731 -16.337 -24.346  0.00  0.00    +0.020 C 
ATOM      7  C   UNL     1      33.556 -14.233 -24.520  0.00  0.00    +0.145 C 
ATOM      8  C   UNL     1      33.859 -15.494 -25.035  0.00  0.00    +0.031 C 
ENDROOT
BRANCH   4  10
ATOM      9  O   UNL     1      34.229 -11.500 -23.425  0.00  0.00    -0.286 OA
ATOM     10  C   UNL     1      33.800 -12.465 -22.767  0.00  0.00    +0.201 C 
BRANCH  10  14
ATOM     11 CL   UNL     1      31.983  -7.187 -20.703  0.00  0.00    -0.081 Cl
ATOM     12  N   UNL     1      31.986 -12.864 -19.674  0.00  0.00    -0.297 N 
ATOM     13  N   UNL     1      31.288 -10.690 -18.907  0.00  0.00    -0.228 NA
ATOM     14  C   UNL     1      33.053 -12.322 -21.549  0.00  0.00    +0.056 C 
ATOM     15  C   UNL     1      32.565 -11.128 -20.954  0.00  0.00    +0.037 C 
ATOM     16  C   UNL     1      31.904 -11.501 -19.787  0.00  0.00    +0.132 C 
ATOM     17  C   UNL     1      32.682 -13.373 -20.740  0.00  0.00    +0.066 C 
ATOM     18  C   UNL     1      32.603  -9.760 -21.267  0.00  0.00    +0.016 C 
ATOM     19  C   UNL     1      31.979  -8.875 -20.389  0.00  0.00    +0.077 C 
ATOM     20  C   UNL     1      31.356  -9.384 -19.257  0.00  0.00    +0.112 C 
ATOM     21  H   UNL     1      31.604 -13.397 -18.940  0.00  0.00    +0.154 HD
ENDBRANCH  10  14
ENDBRANCH   4  10
BRANCH   3  22
ATOM     22  N   UNL     1      36.194 -16.785 -22.441  0.00  0.00    -0.217 N 
ATOM     23  H   UNL     1      37.158 -16.784 -22.637  0.00  0.00    +0.173 HD
BRANCH  22  24
ATOM     24  S   UNL     1      35.536 -17.831 -21.241  0.00  0.00    +0.054 S 
ATOM     25  O   UNL     1      35.146 -17.028 -20.097  0.00  0.00    -0.154 OA
ATOM     26  O   UNL     1      34.607 -18.775 -21.830  0.00  0.00    -0.154 OA
BRANCH  24  27
ATOM     27  C   UNL     1      36.998 -18.726 -20.769  0.00  0.00    +0.172 C 
BRANCH  27  28
ATOM     28  C   UNL     1      36.824 -19.396 -19.416  0.00  0.00    +0.027 C 
ATOM     29  C   UNL     1      36.246 -20.794 -19.558  0.00  0.00    +0.002 C 
ENDBRANCH  27  28
ENDBRANCH  24  27
ENDBRANCH  22  24
ENDBRANCH   3  22
TORSDOF 6
ENDMDL
MODEL 9
REMARK VINA RESULT:      -9.8      4.611      9.067
REMARK  Name = 24180719
REMARK  6 active torsions:
REMARK  status: ('A' for Active; 'I' for Inactive)
REMARK    1  A    between atoms: C_3  and  N_22
REMARK    2  A    between atoms: C_4  and  C_10
REMARK    3  A    between atoms: C_10  and  C_14
REMARK    4  A    between atoms: N_22  and  S_24
REMARK    5  A    between atoms: S_24  and  C_27
REMARK    6  A    between atoms: C_27  and  C_28
REMARK                            x       y       z     vdW  Elec       q    Type
REMARK                         _______ _______ _______ _____ _____    ______ ____
ROOT
ATOM      1  F   UNL     1      35.212 -13.994 -21.457  0.00  0.00    -0.203 F 
ATOM      2  F   UNL     1      32.592 -13.446 -25.377  0.00  0.00    -0.204 F 
ATOM      3  C   UNL     1      35.268 -15.660 -23.142  0.00  0.00    +0.092 C 
ATOM      4  C   UNL     1      33.891 -13.692 -23.403  0.00  0.00    +0.095 C 
ATOM      5  C   UNL     1      34.796 -14.443 -22.652  0.00  0.00    +0.160 C 
ATOM      6  C   UNL     1      34.835 -16.127 -24.383  0.00  0.00    +0.020 C 
ATOM      7  C   UNL     1      33.460 -14.158 -24.644  0.00  0.00    +0.145 C 
ATOM      8  C   UNL     1      33.932 -15.377 -25.135  0.00  0.00    +0.031 C 
ENDROOT
BRANCH   4  10
ATOM      9  O   UNL     1      32.533 -12.466 -21.976  0.00  0.00    -0.286 OA
ATOM     10  C   UNL     1      33.386 -12.387 -22.878  0.00  0.00    +0.201 C 
BRANCH  10  14
ATOM     11 CL   UNL     1      32.018  -7.124 -20.461  0.00  0.00    -0.081 Cl
ATOM     12  N   UNL     1      34.922  -9.699 -24.730  0.00  0.00    -0.297 N 
ATOM     13  N   UNL     1      34.322  -7.610 -23.691  0.00  0.00    -0.228 NA
ATOM     14  C   UNL     1      33.861 -11.141 -23.410  0.00  0.00    +0.056 C 
ATOM     15  C   UNL     1      33.608  -9.829 -22.929  0.00  0.00    +0.037 C 
ATOM     16  C   UNL     1      34.285  -8.953 -23.774  0.00  0.00    +0.132 C 
ATOM     17  C   UNL     1      34.672 -11.030 -24.518  0.00  0.00    +0.066 C 
ATOM     18  C   UNL     1      32.880  -9.269 -21.867  0.00  0.00    +0.016 C 
ATOM     19  C   UNL     1      32.885  -7.881 -21.735  0.00  0.00    +0.077 C 
ATOM     20  C   UNL     1      33.603  -7.126 -22.652  0.00  0.00    +0.112 C 
ATOM     21  H   UNL     1      35.476  -9.335 -25.458  0.00  0.00    +0.154 HD
ENDBRANCH  10  14
ENDBRANCH   4  10
BRANCH   3  22
ATOM     22  N   UNL     1      36.194 -16.432 -22.375  0.00  0.00    -0.217 N 
ATOM     23  H   UNL     1      37.164 -16.337 -22.509  0.00  0.00    +0.173 HD
BRANCH  22  24
ATOM     24  S   UNL     1      35.564 -17.534 -21.211  0.00  0.00    +0.054 S 
ATOM     25  O   UNL     1      35.225 -16.790 -20.012  0.00  0.00    -0.154 OA
ATOM     26  O   UNL     1      34.604 -18.435 -21.816  0.00  0.00    -0.154 OA
BRANCH  24  27
ATOM     27  C   UNL     1      37.031 -18.469 -20.839  0.00  0.00    +0.172 C 
BRANCH  27  28
ATOM     28  C   UNL     1      36.886 -19.228 -19.530  0.00  0.00    +0.027 C 
ATOM     29  C   UNL     1      36.288 -20.608 -19.750  0.00  0.00    +0.002 C 
ENDBRANCH  27  28
ENDBRANCH  24  27
ENDBRANCH  22  24
ENDBRANCH   3  22
TORSDOF 6
ENDMDL
