MODEL 1
REMARK VINA RESULT:     -12.6      0.000      0.000
REMARK  Name = 447734
REMARK  5 active torsions:
REMARK  status: ('A' for Active; 'I' for Inactive)
REMARK    1  A    between atoms: C_3  and  C_19
REMARK    2  A    between atoms: C_9  and  C_13
REMARK    3  A    between atoms: N_18  and  C_24
REMARK    4  A    between atoms: C_21  and  O_27
REMARK    5  A    between atoms: O_27  and  C_28
REMARK                            x       y       z     vdW  Elec       q    Type
REMARK                         _______ _______ _______ _____ _____    ______ ____
ROOT
ATOM      1  C   UNL     1      35.586 -19.637 -19.838  0.00  0.00    +0.000 C 
ATOM      2  C   UNL     1      34.330 -19.411 -20.449  0.00  0.00    +0.000 C 
ATOM      3  C   UNL     1      34.544 -21.210 -18.303  0.00  0.00    +0.054 C 
ATOM      4  C   UNL     1      35.676 -20.539 -18.766  0.00  0.00    +0.005 C 
ATOM      5  C   UNL     1      33.200 -20.095 -19.970  0.00  0.00    +0.000 C 
ATOM      6  C   UNL     1      33.309 -20.988 -18.904  0.00  0.00    +0.005 C 
ATOM      7  C   UNL     1      34.239 -18.508 -21.522  0.00  0.00    +0.003 C 
ATOM      8  C   UNL     1      36.715 -18.953 -20.318  0.00  0.00    +0.000 C 
ATOM      9  C   UNL     1      35.372 -17.838 -21.986  0.00  0.00    +0.031 C 
ATOM     10  C   UNL     1      36.607 -18.060 -21.385  0.00  0.00    +0.003 C 
ENDROOT
BRANCH   9  13
ATOM     11  N   UNL     1      35.867 -15.653 -23.054  0.00  0.00    -0.343 N 
ATOM     12  N   UNL     1      34.570 -17.244 -24.171  0.00  0.00    -0.285 NA
ATOM     13  C   UNL     1      35.261 -16.907 -23.097  0.00  0.00    +0.117 C 
ATOM     14  H   UNL     1      35.780 -15.038 -23.819  0.00  0.00    +0.144 HD
ATOM     15  H   UNL     1      36.384 -15.382 -22.261  0.00  0.00    +0.144 HD
ATOM     16  H   UNL     1      34.495 -16.615 -24.925  0.00  0.00    +0.188 HD
ENDBRANCH   9  13
BRANCH   3  19
ATOM     17  O   UNL     1      34.146 -23.269 -17.296  0.00  0.00    -0.270 OA
ATOM     18  N   UNL     1      35.366 -21.679 -16.075  0.00  0.00    -0.280 N 
ATOM     19  C   UNL     1      34.654 -22.140 -17.191  0.00  0.00    +0.249 C 
ATOM     20  H   UNL     1      35.711 -20.759 -16.138  0.00  0.00    +0.155 HD
BRANCH  18  24
ATOM     21  C   UNL     1      37.251 -23.141 -13.258  0.00  0.00    +0.140 C 
ATOM     22  C   UNL     1      36.968 -22.467 -14.445  0.00  0.00    +0.052 C 
ATOM     23  C   UNL     1      36.215 -23.702 -12.511  0.00  0.00    +0.037 C 
ATOM     24  C   UNL     1      35.653 -22.363 -14.868  0.00  0.00    +0.054 C 
ATOM     25  C   UNL     1      34.897 -23.589 -12.952  0.00  0.00    +0.004 C 
ATOM     26  C   UNL     1      34.614 -22.914 -14.139  0.00  0.00    +0.015 C 
BRANCH  21  27
ATOM     27  O   UNL     1      38.537 -23.253 -12.828  0.00  0.00    -0.479 OA
BRANCH  27  28
ATOM     28  C   UNL     1      39.022 -24.565 -12.572  0.00  0.00    +0.166 C 
ATOM     29  C   UNL     1      40.417 -24.712 -13.161  0.00  0.00    +0.044 C 
ATOM     30  C   UNL     1      38.211 -25.591 -13.348  0.00  0.00    +0.044 C 
ATOM     31  C   UNL     1      40.179 -24.962 -14.650  0.00  0.00    +0.004 C 
ATOM     32  C   UNL     1      38.752 -25.496 -14.773  0.00  0.00    +0.004 C 
ENDBRANCH  27  28
ENDBRANCH  21  27
ENDBRANCH  18  24
ENDBRANCH   3  19
TORSDOF 5
ENDMDL
MODEL 2
REMARK VINA RESULT:     -12.3      1.631      2.174
REMARK  Name = 447734
REMARK  5 active torsions:
REMARK  status: ('A' for Active; 'I' for Inactive)
REMARK    1  A    between atoms: C_3  and  C_19
REMARK    2  A    between atoms: C_9  and  C_13
REMARK    3  A    between atoms: N_18  and  C_24
REMARK    4  A    between atoms: C_21  and  O_27
REMARK    5  A    between atoms: O_27  and  C_28
REMARK                            x       y       z     vdW  Elec       q    Type
REMARK                         _______ _______ _______ _____ _____    ______ ____
ROOT
ATOM      1  C   UNL     1      35.803 -19.158 -20.387  0.00  0.00    +0.000 C 
ATOM      2  C   UNL     1      34.502 -19.119 -20.941  0.00  0.00    +0.000 C 
ATOM      3  C   UNL     1      35.019 -20.706 -18.683  0.00  0.00    +0.054 C 
ATOM      4  C   UNL     1      36.045 -19.957 -19.258  0.00  0.00    +0.005 C 
ATOM      5  C   UNL     1      33.480 -19.880 -20.350  0.00  0.00    +0.000 C 
ATOM      6  C   UNL     1      33.739 -20.668 -19.229  0.00  0.00    +0.005 C 
ATOM      7  C   UNL     1      34.260 -18.320 -22.072  0.00  0.00    +0.003 C 
ATOM      8  C   UNL     1      36.825 -18.397 -20.979  0.00  0.00    +0.000 C 
ATOM      9  C   UNL     1      35.287 -17.571 -22.647  0.00  0.00    +0.031 C 
ATOM     10  C   UNL     1      36.567 -17.609 -22.101  0.00  0.00    +0.003 C 
ENDROOT
BRANCH   9  13
ATOM     11  N   UNL     1      34.239 -17.219 -24.870  0.00  0.00    -0.343 N 
ATOM     12  N   UNL     1      35.528 -15.532 -23.895  0.00  0.00    -0.285 NA
ATOM     13  C   UNL     1      35.020 -16.749 -23.816  0.00  0.00    +0.117 C 
ATOM     14  H   UNL     1      34.070 -16.646 -25.652  0.00  0.00    +0.144 HD
ATOM     15  H   UNL     1      33.854 -18.125 -24.831  0.00  0.00    +0.144 HD
ATOM     16  H   UNL     1      35.348 -14.973 -24.686  0.00  0.00    +0.188 HD
ENDBRANCH   9  13
BRANCH   3  19
ATOM     17  O   UNL     1      36.462 -21.784 -17.211  0.00  0.00    -0.270 OA
ATOM     18  N   UNL     1      34.159 -21.951 -16.793  0.00  0.00    -0.280 N 
ATOM     19  C   UNL     1      35.285 -21.528 -17.513  0.00  0.00    +0.249 C 
ATOM     20  H   UNL     1      33.289 -21.669 -17.156  0.00  0.00    +0.155 HD
BRANCH  18  24
ATOM     21  C   UNL     1      35.245 -23.940 -13.880  0.00  0.00    +0.140 C 
ATOM     22  C   UNL     1      35.293 -23.170 -15.041  0.00  0.00    +0.052 C 
ATOM     23  C   UNL     1      34.014 -24.259 -13.306  0.00  0.00    +0.037 C 
ATOM     24  C   UNL     1      34.110 -22.731 -15.612  0.00  0.00    +0.054 C 
ATOM     25  C   UNL     1      32.832 -23.809 -13.894  0.00  0.00    +0.004 C 
ATOM     26  C   UNL     1      32.880 -23.039 -15.055  0.00  0.00    +0.015 C 
BRANCH  21  27
ATOM     27  O   UNL     1      36.397 -24.380 -13.306  0.00  0.00    -0.479 OA
BRANCH  27  28
ATOM     28  C   UNL     1      36.438 -24.420 -11.885  0.00  0.00    +0.166 C 
ATOM     29  C   UNL     1      36.328 -23.005 -11.336  0.00  0.00    +0.044 C 
ATOM     30  C   UNL     1      37.810 -24.867 -11.407  0.00  0.00    +0.044 C 
ATOM     31  C   UNL     1      37.736 -22.428 -11.480  0.00  0.00    +0.004 C 
ATOM     32  C   UNL     1      38.684 -23.624 -11.557  0.00  0.00    +0.004 C 
ENDBRANCH  27  28
ENDBRANCH  21  27
ENDBRANCH  18  24
ENDBRANCH   3  19
TORSDOF 5
ENDMDL
MODEL 3
REMARK VINA RESULT:     -12.2      3.401     10.808
REMARK  Name = 447734
REMARK  5 active torsions:
REMARK  status: ('A' for Active; 'I' for Inactive)
REMARK    1  A    between atoms: C_3  and  C_19
REMARK    2  A    between atoms: C_9  and  C_13
REMARK    3  A    between atoms: N_18  and  C_24
REMARK    4  A    between atoms: C_21  and  O_27
REMARK    5  A    between atoms: O_27  and  C_28
REMARK                            x       y       z     vdW  Elec       q    Type
REMARK                         _______ _______ _______ _____ _____    ______ ____
ROOT
ATOM      1  C   UNL     1      34.900 -21.602 -17.364  0.00  0.00    +0.000 C 
ATOM      2  C   UNL     1      36.277 -21.406 -17.102  0.00  0.00    +0.000 C 
ATOM      3  C   UNL     1      35.082 -20.175 -19.326  0.00  0.00    +0.054 C 
ATOM      4  C   UNL     1      34.318 -20.979 -18.480  0.00  0.00    +0.005 C 
ATOM      5  C   UNL     1      37.031 -20.593 -17.963  0.00  0.00    +0.000 C 
ATOM      6  C   UNL     1      36.436 -19.983 -19.068  0.00  0.00    +0.005 C 
ATOM      7  C   UNL     1      36.859 -22.029 -15.985  0.00  0.00    +0.003 C 
ATOM      8  C   UNL     1      34.146 -22.415 -16.502  0.00  0.00    +0.000 C 
ATOM      9  C   UNL     1      36.095 -22.834 -15.140  0.00  0.00    +0.031 C 
ATOM     10  C   UNL     1      34.741 -23.027 -15.398  0.00  0.00    +0.003 C 
ENDROOT
BRANCH   9  13
ATOM     11  N   UNL     1      36.167 -24.619 -13.416  0.00  0.00    -0.343 N 
ATOM     12  N   UNL     1      37.811 -22.959 -13.463  0.00  0.00    -0.285 NA
ATOM     13  C   UNL     1      36.713 -23.472 -13.988  0.00  0.00    +0.117 C 
ATOM     14  H   UNL     1      36.602 -25.035 -12.636  0.00  0.00    +0.144 HD
ATOM     15  H   UNL     1      35.347 -25.015 -13.791  0.00  0.00    +0.144 HD
ATOM     16  H   UNL     1      38.231 -23.390 -12.683  0.00  0.00    +0.188 HD
ENDBRANCH   9  13
BRANCH   3  19
ATOM     17  O   UNL     1      33.251 -19.706 -20.682  0.00  0.00    -0.270 OA
ATOM     18  N   UNL     1      35.311 -18.743 -21.264  0.00  0.00    -0.280 N 
ATOM     19  C   UNL     1      34.464 -19.536 -20.477  0.00  0.00    +0.249 C 
ATOM     20  H   UNL     1      36.251 -18.706 -20.976  0.00  0.00    +0.155 HD
BRANCH  18  24
ATOM     21  C   UNL     1      34.708 -15.864 -23.493  0.00  0.00    +0.140 C 
ATOM     22  C   UNL     1      35.026 -16.606 -22.356  0.00  0.00    +0.052 C 
ATOM     23  C   UNL     1      34.358 -16.516 -24.676  0.00  0.00    +0.037 C 
ATOM     24  C   UNL     1      34.989 -17.989 -22.419  0.00  0.00    +0.054 C 
ATOM     25  C   UNL     1      34.326 -17.909 -24.721  0.00  0.00    +0.004 C 
ATOM     26  C   UNL     1      34.644 -18.651 -23.585  0.00  0.00    +0.015 C 
BRANCH  21  27
ATOM     27  O   UNL     1      34.740 -14.505 -23.449  0.00  0.00    -0.479 OA
BRANCH  27  28
ATOM     28  C   UNL     1      33.510 -13.822 -23.661  0.00  0.00    +0.166 C 
ATOM     29  C   UNL     1      33.713 -12.722 -24.693  0.00  0.00    +0.044 C 
ATOM     30  C   UNL     1      33.110 -13.052 -22.412  0.00  0.00    +0.044 C 
ATOM     31  C   UNL     1      34.353 -11.576 -23.909  0.00  0.00    +0.004 C 
ATOM     32  C   UNL     1      33.992 -11.806 -22.442  0.00  0.00    +0.004 C 
ENDBRANCH  27  28
ENDBRANCH  21  27
ENDBRANCH  18  24
ENDBRANCH   3  19
TORSDOF 5
ENDMDL
MODEL 4
REMARK VINA RESULT:     -12.0      4.895     12.028
REMARK  Name = 447734
REMARK  5 active torsions:
REMARK  status: ('A' for Active; 'I' for Inactive)
REMARK    1  A    between atoms: C_3  and  C_19
REMARK    2  A    between atoms: C_9  and  C_13
REMARK    3  A    between atoms: N_18  and  C_24
REMARK    4  A    between atoms: C_21  and  O_27
REMARK    5  A    between atoms: O_27  and  C_28
REMARK                            x       y       z     vdW  Elec       q    Type
REMARK                         _______ _______ _______ _____ _____    ______ ____
ROOT
ATOM      1  C   UNL     1      34.849 -19.679 -19.877  0.00  0.00    +0.000 C 
ATOM      2  C   UNL     1      36.202 -19.675 -19.462  0.00  0.00    +0.000 C 
ATOM      3  C   UNL     1      35.393 -18.072 -21.621  0.00  0.00    +0.054 C 
ATOM      4  C   UNL     1      34.461 -18.871 -20.959  0.00  0.00    +0.005 C 
ATOM      5  C   UNL     1      37.127 -18.865 -20.140  0.00  0.00    +0.000 C 
ATOM      6  C   UNL     1      36.723 -18.069 -21.212  0.00  0.00    +0.005 C 
ATOM      7  C   UNL     1      36.590 -20.483 -18.380  0.00  0.00    +0.003 C 
ATOM      8  C   UNL     1      33.925 -20.490 -19.199  0.00  0.00    +0.000 C 
ATOM      9  C   UNL     1      35.659 -21.283 -17.718  0.00  0.00    +0.031 C 
ATOM     10  C   UNL     1      34.328 -21.286 -18.127  0.00  0.00    +0.003 C 
ENDROOT
BRANCH   9  13
ATOM     11  N   UNL     1      37.364 -22.024 -16.073  0.00  0.00    -0.343 N 
ATOM     12  N   UNL     1      35.230 -22.976 -16.068  0.00  0.00    -0.285 NA
ATOM     13  C   UNL     1      36.077 -22.113 -16.599  0.00  0.00    +0.117 C 
ATOM     14  H   UNL     1      37.627 -22.596 -15.315  0.00  0.00    +0.144 HD
ATOM     15  H   UNL     1      38.011 -21.389 -16.458  0.00  0.00    +0.144 HD
ATOM     16  H   UNL     1      35.511 -23.539 -15.310  0.00  0.00    +0.188 HD
ENDBRANCH   9  13
BRANCH   3  19
ATOM     17  O   UNL     1      34.668 -17.784 -23.813  0.00  0.00    -0.270 OA
ATOM     18  N   UNL     1      34.929 -15.862 -22.492  0.00  0.00    -0.280 N 
ATOM     19  C   UNL     1      34.974 -17.241 -22.739  0.00  0.00    +0.249 C 
ATOM     20  H   UNL     1      35.202 -15.580 -21.591  0.00  0.00    +0.155 HD
BRANCH  18  24
ATOM     21  C   UNL     1      34.195 -12.487 -23.793  0.00  0.00    +0.140 C 
ATOM     22  C   UNL     1      34.578 -13.511 -22.928  0.00  0.00    +0.052 C 
ATOM     23  C   UNL     1      33.781 -12.790 -25.091  0.00  0.00    +0.037 C 
ATOM     24  C   UNL     1      34.541 -14.822 -23.372  0.00  0.00    +0.054 C 
ATOM     25  C   UNL     1      33.749 -14.115 -25.522  0.00  0.00    +0.004 C 
ATOM     26  C   UNL     1      34.132 -15.139 -24.656  0.00  0.00    +0.015 C 
BRANCH  21  27
ATOM     27  O   UNL     1      34.225 -11.193 -23.374  0.00  0.00    -0.479 OA
BRANCH  27  28
ATOM     28  C   UNL     1      33.984 -10.190 -24.352  0.00  0.00    +0.166 C 
ATOM     29  C   UNL     1      35.312  -9.627 -24.837  0.00  0.00    +0.044 C 
ATOM     30  C   UNL     1      33.311  -8.983 -23.719  0.00  0.00    +0.044 C 
ATOM     31  C   UNL     1      35.728  -8.637 -23.749  0.00  0.00    +0.004 C 
ATOM     32  C   UNL     1      34.447  -8.247 -23.012  0.00  0.00    +0.004 C 
ENDBRANCH  27  28
ENDBRANCH  21  27
ENDBRANCH  18  24
ENDBRANCH   3  19
TORSDOF 5
ENDMDL
MODEL 5
REMARK VINA RESULT:     -11.9      8.235     12.450
REMARK  Name = 447734
REMARK  5 active torsions:
REMARK  status: ('A' for Active; 'I' for Inactive)
REMARK    1  A    between atoms: C_3  and  C_19
REMARK    2  A    between atoms: C_9  and  C_13
REMARK    3  A    between atoms: N_18  and  C_24
REMARK    4  A    between atoms: C_21  and  O_27
REMARK    5  A    between atoms: O_27  and  C_28
REMARK                            x       y       z     vdW  Elec       q    Type
REMARK                         _______ _______ _______ _____ _____    ______ ____
ROOT
ATOM      1  C   UNL     1      32.184  -7.892 -22.084  0.00  0.00    +0.000 C 
ATOM      2  C   UNL     1      32.044  -7.438 -20.751  0.00  0.00    +0.000 C 
ATOM      3  C   UNL     1      32.398 -10.175 -21.271  0.00  0.00    +0.054 C 
ATOM      4  C   UNL     1      32.361  -9.264 -22.326  0.00  0.00    +0.005 C 
ATOM      5  C   UNL     1      32.085  -8.368 -19.700  0.00  0.00    +0.000 C 
ATOM      6  C   UNL     1      32.260  -9.727 -19.960  0.00  0.00    +0.005 C 
ATOM      7  C   UNL     1      31.868  -6.065 -20.508  0.00  0.00    +0.003 C 
ATOM      8  C   UNL     1      32.144  -6.961 -23.135  0.00  0.00    +0.000 C 
ATOM      9  C   UNL     1      31.830  -5.154 -21.564  0.00  0.00    +0.031 C 
ATOM     10  C   UNL     1      31.967  -5.601 -22.875  0.00  0.00    +0.003 C 
ENDROOT
BRANCH   9  13
ATOM     11  N   UNL     1      32.715  -2.844 -21.352  0.00  0.00    -0.343 N 
ATOM     12  N   UNL     1      30.448  -3.275 -20.986  0.00  0.00    -0.285 NA
ATOM     13  C   UNL     1      31.646  -3.737 -21.296  0.00  0.00    +0.117 C 
ATOM     14  H   UNL     1      32.569  -1.888 -21.168  0.00  0.00    +0.144 HD
ATOM     15  H   UNL     1      33.617  -3.170 -21.578  0.00  0.00    +0.144 HD
ATOM     16  H   UNL     1      30.322  -2.316 -20.805  0.00  0.00    +0.188 HD
ENDBRANCH   9  13
BRANCH   3  19
ATOM     17  O   UNL     1      31.877 -12.417 -20.934  0.00  0.00    -0.270 OA
ATOM     18  N   UNL     1      33.550 -11.912 -22.501  0.00  0.00    -0.280 N 
ATOM     19  C   UNL     1      32.582 -11.592 -21.539  0.00  0.00    +0.249 C 
ATOM     20  H   UNL     1      34.030 -11.149 -22.895  0.00  0.00    +0.155 HD
BRANCH  18  24
ATOM     21  C   UNL     1      34.938 -15.331 -22.598  0.00  0.00    +0.140 C 
ATOM     22  C   UNL     1      34.565 -14.073 -22.125  0.00  0.00    +0.052 C 
ATOM     23  C   UNL     1      34.666 -15.688 -23.919  0.00  0.00    +0.037 C 
ATOM     24  C   UNL     1      33.927 -13.190 -22.981  0.00  0.00    +0.054 C 
ATOM     25  C   UNL     1      34.023 -14.786 -24.767  0.00  0.00    +0.004 C 
ATOM     26  C   UNL     1      33.650 -13.529 -24.294  0.00  0.00    +0.015 C 
BRANCH  21  27
ATOM     27  O   UNL     1      35.565 -16.210 -21.771  0.00  0.00    -0.479 OA
BRANCH  27  28
ATOM     28  C   UNL     1      36.000 -17.438 -22.343  0.00  0.00    +0.166 C 
ATOM     29  C   UNL     1      34.967 -18.519 -22.065  0.00  0.00    +0.044 C 
ATOM     30  C   UNL     1      37.236 -17.950 -21.620  0.00  0.00    +0.044 C 
ATOM     31  C   UNL     1      35.244 -18.952 -20.625  0.00  0.00    +0.004 C 
ATOM     32  C   UNL     1      36.691 -18.559 -20.330  0.00  0.00    +0.004 C 
ENDBRANCH  27  28
ENDBRANCH  21  27
ENDBRANCH  18  24
ENDBRANCH   3  19
TORSDOF 5
ENDMDL
MODEL 6
REMARK VINA RESULT:     -11.9      3.294     10.428
REMARK  Name = 447734
REMARK  5 active torsions:
REMARK  status: ('A' for Active; 'I' for Inactive)
REMARK    1  A    between atoms: C_3  and  C_19
REMARK    2  A    between atoms: C_9  and  C_13
REMARK    3  A    between atoms: N_18  and  C_24
REMARK    4  A    between atoms: C_21  and  O_27
REMARK    5  A    between atoms: O_27  and  C_28
REMARK                            x       y       z     vdW  Elec       q    Type
REMARK                         _______ _______ _______ _____ _____    ______ ____
ROOT
ATOM      1  C   UNL     1      36.019 -21.263 -17.324  0.00  0.00    +0.000 C 
ATOM      2  C   UNL     1      35.033 -22.070 -16.709  0.00  0.00    +0.000 C 
ATOM      3  C   UNL     1      34.388 -20.555 -18.984  0.00  0.00    +0.054 C 
ATOM      4  C   UNL     1      35.680 -20.511 -18.461  0.00  0.00    +0.005 C 
ATOM      5  C   UNL     1      33.737 -22.102 -17.248  0.00  0.00    +0.000 C 
ATOM      6  C   UNL     1      33.418 -21.349 -18.378  0.00  0.00    +0.005 C 
ATOM      7  C   UNL     1      35.372 -22.822 -15.572  0.00  0.00    +0.003 C 
ATOM      8  C   UNL     1      37.315 -21.231 -16.784  0.00  0.00    +0.000 C 
ATOM      9  C   UNL     1      36.665 -22.778 -15.048  0.00  0.00    +0.031 C 
ATOM     10  C   UNL     1      37.635 -21.983 -15.654  0.00  0.00    +0.003 C 
ENDROOT
BRANCH   9  13
ATOM     11  N   UNL     1      36.221 -24.649 -13.479  0.00  0.00    -0.343 N 
ATOM     12  N   UNL     1      38.057 -23.243 -13.147  0.00  0.00    -0.285 NA
ATOM     13  C   UNL     1      37.000 -23.562 -13.870  0.00  0.00    +0.117 C 
ATOM     14  H   UNL     1      36.467 -25.167 -12.678  0.00  0.00    +0.144 HD
ATOM     15  H   UNL     1      35.427 -24.901 -14.003  0.00  0.00    +0.144 HD
ATOM     16  H   UNL     1      38.287 -23.773 -12.349  0.00  0.00    +0.188 HD
ENDBRANCH   9  13
BRANCH   3  19
ATOM     17  O   UNL     1      32.899 -19.830 -20.618  0.00  0.00    -0.270 OA
ATOM     18  N   UNL     1      35.084 -18.977 -20.682  0.00  0.00    -0.280 N 
ATOM     19  C   UNL     1      34.053 -19.771 -20.162  0.00  0.00    +0.249 C 
ATOM     20  H   UNL     1      35.947 -19.036 -20.213  0.00  0.00    +0.155 HD
BRANCH  18  24
ATOM     21  C   UNL     1      35.118 -15.873 -22.680  0.00  0.00    +0.140 C 
ATOM     22  C   UNL     1      35.157 -16.736 -21.585  0.00  0.00    +0.052 C 
ATOM     23  C   UNL     1      34.970 -16.388 -23.968  0.00  0.00    +0.037 C 
ATOM     24  C   UNL     1      35.046 -18.100 -21.794  0.00  0.00    +0.054 C 
ATOM     25  C   UNL     1      34.859 -17.765 -24.161  0.00  0.00    +0.004 C 
ATOM     26  C   UNL     1      34.898 -18.627 -23.066  0.00  0.00    +0.015 C 
BRANCH  21  27
ATOM     27  O   UNL     1      35.226 -14.530 -22.492  0.00  0.00    -0.479 OA
BRANCH  27  28
ATOM     28  C   UNL     1      34.033 -13.823 -22.175  0.00  0.00    +0.166 C 
ATOM     29  C   UNL     1      33.189 -13.666 -23.431  0.00  0.00    +0.044 C 
ATOM     30  C   UNL     1      34.354 -12.386 -21.795  0.00  0.00    +0.044 C 
ATOM     31  C   UNL     1      33.827 -12.495 -24.177  0.00  0.00    +0.004 C 
ATOM     32  C   UNL     1      34.601 -11.691 -23.132  0.00  0.00    +0.004 C 
ENDBRANCH  27  28
ENDBRANCH  21  27
ENDBRANCH  18  24
ENDBRANCH   3  19
TORSDOF 5
ENDMDL
MODEL 7
REMARK VINA RESULT:     -11.8      4.093     10.661
REMARK  Name = 447734
REMARK  5 active torsions:
REMARK  status: ('A' for Active; 'I' for Inactive)
REMARK    1  A    between atoms: C_3  and  C_19
REMARK    2  A    between atoms: C_9  and  C_13
REMARK    3  A    between atoms: N_18  and  C_24
REMARK    4  A    between atoms: C_21  and  O_27
REMARK    5  A    between atoms: O_27  and  C_28
REMARK                            x       y       z     vdW  Elec       q    Type
REMARK                         _______ _______ _______ _____ _____    ______ ____
ROOT
ATOM      1  C   UNL     1      34.366 -21.348 -17.914  0.00  0.00    +0.000 C 
ATOM      2  C   UNL     1      35.642 -21.552 -17.338  0.00  0.00    +0.000 C 
ATOM      3  C   UNL     1      35.340 -19.761 -19.479  0.00  0.00    +0.054 C 
ATOM      4  C   UNL     1      34.232 -20.448 -18.984  0.00  0.00    +0.005 C 
ATOM      5  C   UNL     1      36.747 -20.852 -17.848  0.00  0.00    +0.000 C 
ATOM      6  C   UNL     1      36.595 -19.962 -18.912  0.00  0.00    +0.005 C 
ATOM      7  C   UNL     1      35.775 -22.452 -16.267  0.00  0.00    +0.003 C 
ATOM      8  C   UNL     1      33.261 -22.049 -17.403  0.00  0.00    +0.000 C 
ATOM      9  C   UNL     1      34.667 -23.141 -15.772  0.00  0.00    +0.031 C 
ATOM     10  C   UNL     1      33.412 -22.939 -16.340  0.00  0.00    +0.003 C 
ENDROOT
BRANCH   9  13
ATOM     11  N   UNL     1      34.037 -23.966 -13.517  0.00  0.00    -0.343 N 
ATOM     12  N   UNL     1      35.728 -25.028 -14.731  0.00  0.00    -0.285 NA
ATOM     13  C   UNL     1      34.823 -24.068 -14.664  0.00  0.00    +0.117 C 
ATOM     14  H   UNL     1      34.158 -24.605 -12.778  0.00  0.00    +0.144 HD
ATOM     15  H   UNL     1      33.359 -23.255 -13.447  0.00  0.00    +0.144 HD
ATOM     16  H   UNL     1      35.834 -25.658 -13.981  0.00  0.00    +0.188 HD
ENDBRANCH   9  13
BRANCH   3  19
ATOM     17  O   UNL     1      34.932 -19.279 -21.718  0.00  0.00    -0.270 OA
ATOM     18  N   UNL     1      35.314 -17.473 -20.269  0.00  0.00    -0.280 N 
ATOM     19  C   UNL     1      35.185 -18.832 -20.587  0.00  0.00    +0.249 C 
ATOM     20  H   UNL     1      35.516 -17.271 -19.328  0.00  0.00    +0.155 HD
BRANCH  18  24
ATOM     21  C   UNL     1      34.490 -14.087 -21.486  0.00  0.00    +0.140 C 
ATOM     22  C   UNL     1      34.612 -15.190 -20.642  0.00  0.00    +0.052 C 
ATOM     23  C   UNL     1      34.948 -14.162 -22.802  0.00  0.00    +0.037 C 
ATOM     24  C   UNL     1      35.191 -16.352 -21.126  0.00  0.00    +0.054 C 
ATOM     25  C   UNL     1      35.528 -15.339 -23.273  0.00  0.00    +0.004 C 
ATOM     26  C   UNL     1      35.650 -16.442 -22.429  0.00  0.00    +0.015 C 
BRANCH  21  27
ATOM     27  O   UNL     1      33.924 -12.938 -21.027  0.00  0.00    -0.479 OA
BRANCH  27  28
ATOM     28  C   UNL     1      32.503 -12.877 -21.013  0.00  0.00    +0.166 C 
ATOM     29  C   UNL     1      32.046 -11.580 -21.664  0.00  0.00    +0.044 C 
ATOM     30  C   UNL     1      31.993 -12.744 -19.587  0.00  0.00    +0.044 C 
ATOM     31  C   UNL     1      32.223 -10.522 -20.574  0.00  0.00    +0.004 C 
ATOM     32  C   UNL     1      32.220 -11.274 -19.243  0.00  0.00    +0.004 C 
ENDBRANCH  27  28
ENDBRANCH  21  27
ENDBRANCH  18  24
ENDBRANCH   3  19
TORSDOF 5
ENDMDL
MODEL 8
REMARK VINA RESULT:     -11.7      8.093     12.551
REMARK  Name = 447734
REMARK  5 active torsions:
REMARK  status: ('A' for Active; 'I' for Inactive)
REMARK    1  A    between atoms: C_3  and  C_19
REMARK    2  A    between atoms: C_9  and  C_13
REMARK    3  A    between atoms: N_18  and  C_24
REMARK    4  A    between atoms: C_21  and  O_27
REMARK    5  A    between atoms: O_27  and  C_28
REMARK                            x       y       z     vdW  Elec       q    Type
REMARK                         _______ _______ _______ _____ _____    ______ ____
ROOT
ATOM      1  C   UNL     1      32.809  -8.397 -21.557  0.00  0.00    +0.000 C 
ATOM      2  C   UNL     1      33.056  -7.200 -22.269  0.00  0.00    +0.000 C 
ATOM      3  C   UNL     1      33.666  -9.679 -23.438  0.00  0.00    +0.054 C 
ATOM      4  C   UNL     1      33.120  -9.629 -22.156  0.00  0.00    +0.005 C 
ATOM      5  C   UNL     1      33.606  -7.269 -23.559  0.00  0.00    +0.000 C 
ATOM      6  C   UNL     1      33.908  -8.501 -24.139  0.00  0.00    +0.005 C 
ATOM      7  C   UNL     1      32.745  -5.968 -21.670  0.00  0.00    +0.003 C 
ATOM      8  C   UNL     1      32.259  -8.328 -20.266  0.00  0.00    +0.000 C 
ATOM      9  C   UNL     1      32.200  -5.917 -20.386  0.00  0.00    +0.031 C 
ATOM     10  C   UNL     1      31.958  -7.095 -19.686  0.00  0.00    +0.003 C 
ENDROOT
BRANCH   9  13
ATOM     11  N   UNL     1      32.579  -4.168 -18.666  0.00  0.00    -0.343 N 
ATOM     12  N   UNL     1      30.917  -3.888 -20.284  0.00  0.00    -0.285 NA
ATOM     13  C   UNL     1      31.884  -4.634 -19.780  0.00  0.00    +0.117 C 
ATOM     14  H   UNL     1      32.349  -3.295 -18.272  0.00  0.00    +0.144 HD
ATOM     15  H   UNL     1      33.302  -4.711 -18.274  0.00  0.00    +0.144 HD
ATOM     16  H   UNL     1      30.702  -3.019 -19.876  0.00  0.00    +0.188 HD
ENDBRANCH   9  13
BRANCH   3  19
ATOM     17  O   UNL     1      34.362 -10.994 -25.227  0.00  0.00    -0.270 OA
ATOM     18  N   UNL     1      33.846 -12.083 -23.213  0.00  0.00    -0.280 N 
ATOM     19  C   UNL     1      33.981 -10.963 -24.045  0.00  0.00    +0.249 C 
ATOM     20  H   UNL     1      33.532 -11.900 -22.298  0.00  0.00    +0.155 HD
BRANCH  18  24
ATOM     21  C   UNL     1      34.984 -15.577 -22.873  0.00  0.00    +0.140 C 
ATOM     22  C   UNL     1      34.731 -14.239 -22.574  0.00  0.00    +0.052 C 
ATOM     23  C   UNL     1      34.605 -16.099 -24.110  0.00  0.00    +0.037 C 
ATOM     24  C   UNL     1      34.102 -13.442 -23.516  0.00  0.00    +0.054 C 
ATOM     25  C   UNL     1      33.974 -15.282 -25.048  0.00  0.00    +0.004 C 
ATOM     26  C   UNL     1      33.721 -13.944 -24.749  0.00  0.00    +0.015 C 
BRANCH  21  27
ATOM     27  O   UNL     1      35.600 -16.375 -21.959  0.00  0.00    -0.479 OA
BRANCH  27  28
ATOM     28  C   UNL     1      36.038 -17.652 -22.406  0.00  0.00    +0.166 C 
ATOM     29  C   UNL     1      34.977 -18.692 -22.081  0.00  0.00    +0.044 C 
ATOM     30  C   UNL     1      37.235 -18.117 -21.590  0.00  0.00    +0.044 C 
ATOM     31  C   UNL     1      35.187 -19.005 -20.600  0.00  0.00    +0.004 C 
ATOM     32  C   UNL     1      36.627 -18.606 -20.278  0.00  0.00    +0.004 C 
ENDBRANCH  27  28
ENDBRANCH  21  27
ENDBRANCH  18  24
ENDBRANCH   3  19
TORSDOF 5
ENDMDL
MODEL 9
REMARK VINA RESULT:     -11.6      8.062     14.267
REMARK  Name = 447734
REMARK  5 active torsions:
REMARK  status: ('A' for Active; 'I' for Inactive)
REMARK    1  A    between atoms: C_3  and  C_19
REMARK    2  A    between atoms: C_9  and  C_13
REMARK    3  A    between atoms: N_18  and  C_24
REMARK    4  A    between atoms: C_21  and  O_27
REMARK    5  A    between atoms: O_27  and  C_28
REMARK                            x       y       z     vdW  Elec       q    Type
REMARK                         _______ _______ _______ _____ _____    ______ ____
ROOT
ATOM      1  C   UNL     1      35.062 -15.579 -22.485  0.00  0.00    +0.000 C 
ATOM      2  C   UNL     1      35.046 -15.504 -21.072  0.00  0.00    +0.000 C 
ATOM      3  C   UNL     1      34.586 -13.197 -22.607  0.00  0.00    +0.054 C 
ATOM      4  C   UNL     1      34.830 -14.417 -23.238  0.00  0.00    +0.005 C 
ATOM      5  C   UNL     1      34.798 -14.268 -20.453  0.00  0.00    +0.000 C 
ATOM      6  C   UNL     1      34.570 -13.123 -21.217  0.00  0.00    +0.005 C 
ATOM      7  C   UNL     1      35.278 -16.667 -20.319  0.00  0.00    +0.003 C 
ATOM      8  C   UNL     1      35.310 -16.816 -23.104  0.00  0.00    +0.000 C 
ATOM      9  C   UNL     1      35.523 -17.887 -20.950  0.00  0.00    +0.031 C 
ATOM     10  C   UNL     1      35.539 -17.961 -22.340  0.00  0.00    +0.003 C 
ENDROOT
BRANCH   9  13
ATOM     11  N   UNL     1      34.790 -20.073 -20.030  0.00  0.00    -0.343 N 
ATOM     12  N   UNL     1      36.915 -19.239 -19.534  0.00  0.00    -0.285 NA
ATOM     13  C   UNL     1      35.761 -19.082 -20.157  0.00  0.00    +0.117 C 
ATOM     14  H   UNL     1      34.972 -20.875 -19.488  0.00  0.00    +0.144 HD
ATOM     15  H   UNL     1      33.922 -19.973 -20.484  0.00  0.00    +0.144 HD
ATOM     16  H   UNL     1      37.079 -20.047 -18.996  0.00  0.00    +0.188 HD
ENDBRANCH   9  13
BRANCH   3  19
ATOM     17  O   UNL     1      33.638 -12.085 -24.417  0.00  0.00    -0.270 OA
ATOM     18  N   UNL     1      34.935 -10.823 -22.923  0.00  0.00    -0.280 N 
ATOM     19  C   UNL     1      34.347 -12.002 -23.401  0.00  0.00    +0.249 C 
ATOM     20  H   UNL     1      35.472 -10.914 -22.103  0.00  0.00    +0.155 HD
BRANCH  18  24
ATOM     21  C   UNL     1      34.011  -7.276 -23.357  0.00  0.00    +0.140 C 
ATOM     22  C   UNL     1      34.089  -8.560 -22.822  0.00  0.00    +0.052 C 
ATOM     23  C   UNL     1      34.703  -6.965 -24.529  0.00  0.00    +0.037 C 
ATOM     24  C   UNL     1      34.857  -9.517 -23.466  0.00  0.00    +0.054 C 
ATOM     25  C   UNL     1      35.471  -7.940 -25.165  0.00  0.00    +0.004 C 
ATOM     26  C   UNL     1      35.549  -9.225 -24.629  0.00  0.00    +0.015 C 
BRANCH  21  27
ATOM     27  O   UNL     1      33.262  -6.324 -22.738  0.00  0.00    -0.479 OA
BRANCH  27  28
ATOM     28  C   UNL     1      32.349  -6.767 -21.742  0.00  0.00    +0.166 C 
ATOM     29  C   UNL     1      31.073  -5.942 -21.823  0.00  0.00    +0.044 C 
ATOM     30  C   UNL     1      32.880  -6.442 -20.354  0.00  0.00    +0.044 C 
ATOM     31  C   UNL     1      31.414  -4.638 -21.101  0.00  0.00    +0.004 C 
ATOM     32  C   UNL     1      32.594  -4.952 -20.182  0.00  0.00    +0.004 C 
ENDBRANCH  27  28
ENDBRANCH  21  27
ENDBRANCH  18  24
ENDBRANCH   3  19
TORSDOF 5
ENDMDL
