MODEL 1
REMARK VINA RESULT:     -12.6      0.000      0.000
REMARK  Name = 25109292
REMARK  3 active torsions:
REMARK  status: ('A' for Active; 'I' for Inactive)
REMARK    1  A    between atoms: C_3  and  S_20
REMARK    2  A    between atoms: C_7  and  C_10
REMARK    3  A    between atoms: S_20  and  C_23
REMARK                            x       y       z     vdW  Elec       q    Type
REMARK                         _______ _______ _______ _____ _____    ______ ____
ROOT
ATOM      1  O   UNL     1      34.883 -22.218 -16.539  0.00  0.00    -0.425 OA
ATOM      2  N   UNL     1      37.079 -21.657 -16.542  0.00  0.00    -0.368 NA
ATOM      3  C   UNL     1      37.071 -23.793 -13.475  0.00  0.00    +0.091 C 
ATOM      4  C   UNL     1      36.815 -22.472 -15.467  0.00  0.00    +0.153 C 
ATOM      5  C   UNL     1      35.472 -22.816 -15.462  0.00  0.00    +0.174 C 
ATOM      6  C   UNL     1      37.646 -22.967 -14.452  0.00  0.00    +0.107 C 
ATOM      7  C   UNL     1      35.909 -21.545 -17.131  0.00  0.00    +0.282 C 
ATOM      8  C   UNL     1      35.708 -24.116 -13.506  0.00  0.00    +0.018 C 
ATOM      9  C   UNL     1      34.867 -23.631 -14.513  0.00  0.00    +0.041 C 
ENDROOT
BRANCH   7  10
ATOM     10  C   UNL     1      35.554 -20.809 -18.320  0.00  0.00    +0.066 C 
ATOM     11  C   UNL     1      36.175 -19.295 -20.120  0.00  0.00    +0.000 C 
ATOM     12  C   UNL     1      34.860 -19.378 -20.635  0.00  0.00    +0.000 C 
ATOM     13  C   UNL     1      36.506 -20.016 -18.962  0.00  0.00    +0.006 C 
ATOM     14  C   UNL     1      34.261 -20.891 -18.827  0.00  0.00    +0.006 C 
ATOM     15  C   UNL     1      33.914 -20.180 -19.977  0.00  0.00    +0.000 C 
ATOM     16  C   UNL     1      37.122 -18.492 -20.778  0.00  0.00    +0.000 C 
ATOM     17  C   UNL     1      34.529 -18.656 -21.794  0.00  0.00    +0.000 C 
ATOM     18  C   UNL     1      36.775 -17.782 -21.928  0.00  0.00    +0.000 C 
ATOM     19  C   UNL     1      35.482 -17.863 -22.434  0.00  0.00    +0.000 C 
ENDBRANCH   7  10
BRANCH   3  20
ATOM     20  S   UNL     1      38.076 -24.429 -12.193  0.00  0.00    +0.005 S 
ATOM     21  O   UNL     1      38.869 -23.330 -11.662  0.00  0.00    -0.169 OA
ATOM     22  O   UNL     1      37.249 -25.224 -11.297  0.00  0.00    -0.169 OA
BRANCH  20  23
ATOM     23  C   UNL     1      39.179 -25.553 -13.018  0.00  0.00    +0.156 C 
ATOM     24  C   UNL     1      40.428 -24.849 -13.502  0.00  0.00    +0.028 C 
ENDBRANCH  20  23
ENDBRANCH   3  20
TORSDOF 3
ENDMDL
MODEL 2
REMARK VINA RESULT:     -10.9      3.406      8.760
REMARK  Name = 25109292
REMARK  3 active torsions:
REMARK  status: ('A' for Active; 'I' for Inactive)
REMARK    1  A    between atoms: C_3  and  S_20
REMARK    2  A    between atoms: C_7  and  C_10
REMARK    3  A    between atoms: S_20  and  C_23
REMARK                            x       y       z     vdW  Elec       q    Type
REMARK                         _______ _______ _______ _____ _____    ______ ____
ROOT
ATOM      1  O   UNL     1      34.803 -21.584 -17.444  0.00  0.00    -0.425 OA
ATOM      2  N   UNL     1      36.916 -20.768 -17.520  0.00  0.00    -0.368 NA
ATOM      3  C   UNL     1      35.565 -19.052 -20.553  0.00  0.00    +0.091 C 
ATOM      4  C   UNL     1      36.191 -20.264 -18.574  0.00  0.00    +0.153 C 
ATOM      5  C   UNL     1      34.898 -20.762 -18.530  0.00  0.00    +0.174 C 
ATOM      6  C   UNL     1      36.546 -19.386 -19.608  0.00  0.00    +0.107 C 
ATOM      7  C   UNL     1      36.049 -21.534 -16.896  0.00  0.00    +0.282 C 
ATOM      8  C   UNL     1      34.269 -19.578 -20.473  0.00  0.00    +0.018 C 
ATOM      9  C   UNL     1      33.900 -20.455 -19.447  0.00  0.00    +0.041 C 
ENDROOT
BRANCH   7  10
ATOM     10  C   UNL     1      36.228 -22.333 -15.707  0.00  0.00    +0.066 C 
ATOM     11  C   UNL     1      37.689 -23.568 -14.204  0.00  0.00    +0.000 C 
ATOM     12  C   UNL     1      36.574 -23.886 -13.393  0.00  0.00    +0.000 C 
ATOM     13  C   UNL     1      37.499 -22.791 -15.358  0.00  0.00    +0.006 C 
ATOM     14  C   UNL     1      35.132 -22.645 -14.910  0.00  0.00    +0.006 C 
ATOM     15  C   UNL     1      35.302 -23.417 -13.759  0.00  0.00    +0.000 C 
ATOM     16  C   UNL     1      38.961 -24.037 -13.838  0.00  0.00    +0.000 C 
ATOM     17  C   UNL     1      36.763 -24.664 -12.239  0.00  0.00    +0.000 C 
ATOM     18  C   UNL     1      39.131 -24.809 -12.689  0.00  0.00    +0.000 C 
ATOM     19  C   UNL     1      38.034 -25.122 -11.891  0.00  0.00    +0.000 C 
ENDBRANCH   7  10
BRANCH   3  20
ATOM     20  S   UNL     1      35.970 -17.959 -21.856  0.00  0.00    +0.005 S 
ATOM     21  O   UNL     1      37.421 -17.886 -21.942  0.00  0.00    -0.169 OA
ATOM     22  O   UNL     1      35.193 -18.321 -23.032  0.00  0.00    -0.169 OA
BRANCH  20  23
ATOM     23  C   UNL     1      35.374 -16.377 -21.304  0.00  0.00    +0.156 C 
ATOM     24  C   UNL     1      35.347 -15.370 -22.433  0.00  0.00    +0.028 C 
ENDBRANCH  20  23
ENDBRANCH   3  20
TORSDOF 3
ENDMDL
MODEL 3
REMARK VINA RESULT:     -10.9      2.063      3.181
REMARK  Name = 25109292
REMARK  3 active torsions:
REMARK  status: ('A' for Active; 'I' for Inactive)
REMARK    1  A    between atoms: C_3  and  S_20
REMARK    2  A    between atoms: C_7  and  C_10
REMARK    3  A    between atoms: S_20  and  C_23
REMARK                            x       y       z     vdW  Elec       q    Type
REMARK                         _______ _______ _______ _____ _____    ______ ____
ROOT
ATOM      1  O   UNL     1      34.569 -20.483 -19.125  0.00  0.00    -0.425 OA
ATOM      2  N   UNL     1      36.722 -19.872 -18.763  0.00  0.00    -0.368 NA
ATOM      3  C   UNL     1      36.353 -22.264 -15.916  0.00  0.00    +0.091 C 
ATOM      4  C   UNL     1      36.336 -20.782 -17.809  0.00  0.00    +0.153 C 
ATOM      5  C   UNL     1      35.020 -21.158 -18.027  0.00  0.00    +0.174 C 
ATOM      6  C   UNL     1      37.031 -21.343 -16.727  0.00  0.00    +0.107 C 
ATOM      7  C   UNL     1      35.645 -19.737 -19.505  0.00  0.00    +0.282 C 
ATOM      8  C   UNL     1      35.021 -22.616 -16.171  0.00  0.00    +0.018 C 
ATOM      9  C   UNL     1      34.315 -22.066 -17.246  0.00  0.00    +0.041 C 
ENDROOT
BRANCH   7  10
ATOM     10  C   UNL     1      35.436 -18.909 -20.668  0.00  0.00    +0.066 C 
ATOM     11  C   UNL     1      35.250 -16.700 -21.671  0.00  0.00    +0.000 C 
ATOM     12  C   UNL     1      35.031 -17.299 -22.934  0.00  0.00    +0.000 C 
ATOM     13  C   UNL     1      35.450 -17.519 -20.547  0.00  0.00    +0.006 C 
ATOM     14  C   UNL     1      35.222 -19.498 -21.910  0.00  0.00    +0.006 C 
ATOM     15  C   UNL     1      35.020 -18.700 -23.037  0.00  0.00    +0.000 C 
ATOM     16  C   UNL     1      35.261 -15.299 -21.567  0.00  0.00    +0.000 C 
ATOM     17  C   UNL     1      34.831 -16.481 -24.057  0.00  0.00    +0.000 C 
ATOM     18  C   UNL     1      35.059 -14.502 -22.694  0.00  0.00    +0.000 C 
ATOM     19  C   UNL     1      34.844 -15.091 -23.935  0.00  0.00    +0.000 C 
ENDBRANCH   7  10
BRANCH   3  20
ATOM     20  S   UNL     1      37.187 -22.985 -14.558  0.00  0.00    +0.005 S 
ATOM     21  O   UNL     1      38.616 -22.910 -14.823  0.00  0.00    -0.169 OA
ATOM     22  O   UNL     1      36.649 -22.427 -13.326  0.00  0.00    -0.169 OA
BRANCH  20  23
ATOM     23  C   UNL     1      36.709 -24.696 -14.607  0.00  0.00    +0.156 C 
ATOM     24  C   UNL     1      37.857 -25.604 -14.223  0.00  0.00    +0.028 C 
ENDBRANCH  20  23
ENDBRANCH   3  20
TORSDOF 3
ENDMDL
MODEL 4
REMARK VINA RESULT:     -10.5      2.025      3.474
REMARK  Name = 25109292
REMARK  3 active torsions:
REMARK  status: ('A' for Active; 'I' for Inactive)
REMARK    1  A    between atoms: C_3  and  S_20
REMARK    2  A    between atoms: C_7  and  C_10
REMARK    3  A    between atoms: S_20  and  C_23
REMARK                            x       y       z     vdW  Elec       q    Type
REMARK                         _______ _______ _______ _____ _____    ______ ____
ROOT
ATOM      1  O   UNL     1      34.023 -20.418 -19.178  0.00  0.00    -0.425 OA
ATOM      2  N   UNL     1      36.192 -20.171 -18.567  0.00  0.00    -0.368 NA
ATOM      3  C   UNL     1      35.203 -22.729 -16.029  0.00  0.00    +0.091 C 
ATOM      4  C   UNL     1      35.587 -21.096 -17.751  0.00  0.00    +0.153 C 
ATOM      5  C   UNL     1      34.260 -21.249 -18.122  0.00  0.00    +0.174 C 
ATOM      6  C   UNL     1      36.083 -21.851 -16.677  0.00  0.00    +0.107 C 
ATOM      7  C   UNL     1      35.226 -19.810 -19.382  0.00  0.00    +0.282 C 
ATOM      8  C   UNL     1      33.868 -22.854 -16.435  0.00  0.00    +0.018 C 
ATOM      9  C   UNL     1      33.360 -22.109 -17.505  0.00  0.00    +0.041 C 
ENDROOT
BRANCH   7  10
ATOM     10  C   UNL     1      35.255 -18.858 -20.466  0.00  0.00    +0.066 C 
ATOM     11  C   UNL     1      34.588 -18.212 -22.715  0.00  0.00    +0.000 C 
ATOM     12  C   UNL     1      35.311 -17.003 -22.575  0.00  0.00    +0.000 C 
ATOM     13  C   UNL     1      34.570 -19.129 -21.652  0.00  0.00    +0.006 C 
ATOM     14  C   UNL     1      35.965 -17.669 -20.328  0.00  0.00    +0.006 C 
ATOM     15  C   UNL     1      35.994 -16.746 -21.375  0.00  0.00    +0.000 C 
ATOM     16  C   UNL     1      33.905 -18.468 -23.915  0.00  0.00    +0.000 C 
ATOM     17  C   UNL     1      35.329 -16.086 -23.638  0.00  0.00    +0.000 C 
ATOM     18  C   UNL     1      33.935 -17.546 -24.961  0.00  0.00    +0.000 C 
ATOM     19  C   UNL     1      34.645 -16.358 -24.823  0.00  0.00    +0.000 C 
ENDBRANCH   7  10
BRANCH   3  20
ATOM     20  S   UNL     1      35.786 -23.686 -14.686  0.00  0.00    +0.005 S 
ATOM     21  O   UNL     1      34.845 -23.530 -13.587  0.00  0.00    -0.169 OA
ATOM     22  O   UNL     1      36.121 -25.018 -15.168  0.00  0.00    -0.169 OA
BRANCH  20  23
ATOM     23  C   UNL     1      37.311 -22.902 -14.217  0.00  0.00    +0.156 C 
ATOM     24  C   UNL     1      38.493 -23.826 -14.415  0.00  0.00    +0.028 C 
ENDBRANCH  20  23
ENDBRANCH   3  20
TORSDOF 3
ENDMDL
MODEL 5
REMARK VINA RESULT:     -10.4      8.277     12.006
REMARK  Name = 25109292
REMARK  3 active torsions:
REMARK  status: ('A' for Active; 'I' for Inactive)
REMARK    1  A    between atoms: C_3  and  S_20
REMARK    2  A    between atoms: C_7  and  C_10
REMARK    3  A    between atoms: S_20  and  C_23
REMARK                            x       y       z     vdW  Elec       q    Type
REMARK                         _______ _______ _______ _____ _____    ______ ____
ROOT
ATOM      1  O   UNL     1      33.912 -12.770 -24.329  0.00  0.00    -0.425 OA
ATOM      2  N   UNL     1      34.810 -12.740 -22.248  0.00  0.00    -0.368 NA
ATOM      3  C   UNL     1      35.106 -16.406 -22.912  0.00  0.00    +0.091 C 
ATOM      4  C   UNL     1      34.806 -14.028 -22.728  0.00  0.00    +0.153 C 
ATOM      5  C   UNL     1      34.257 -14.049 -24.001  0.00  0.00    +0.174 C 
ATOM      6  C   UNL     1      35.245 -15.232 -22.158  0.00  0.00    +0.107 C 
ATOM      7  C   UNL     1      34.274 -12.050 -23.230  0.00  0.00    +0.282 C 
ATOM      8  C   UNL     1      34.544 -16.384 -24.196  0.00  0.00    +0.018 C 
ATOM      9  C   UNL     1      34.103 -15.191 -24.778  0.00  0.00    +0.041 C 
ENDROOT
BRANCH   7  10
ATOM     10  C   UNL     1      34.013 -10.633 -23.312  0.00  0.00    +0.066 C 
ATOM     11  C   UNL     1      32.713  -8.691 -22.633  0.00  0.00    +0.000 C 
ATOM     12  C   UNL     1      33.507  -7.875 -23.473  0.00  0.00    +0.000 C 
ATOM     13  C   UNL     1      32.979 -10.069 -22.564  0.00  0.00    +0.006 C 
ATOM     14  C   UNL     1      34.793  -9.830 -24.138  0.00  0.00    +0.006 C 
ATOM     15  C   UNL     1      34.543  -8.459 -24.220  0.00  0.00    +0.000 C 
ATOM     16  C   UNL     1      31.677  -8.107 -21.886  0.00  0.00    +0.000 C 
ATOM     17  C   UNL     1      33.241  -6.498 -23.542  0.00  0.00    +0.000 C 
ATOM     18  C   UNL     1      31.428  -6.737 -21.967  0.00  0.00    +0.000 C 
ATOM     19  C   UNL     1      32.207  -5.935 -22.794  0.00  0.00    +0.000 C 
ENDBRANCH   7  10
BRANCH   3  20
ATOM     20  S   UNL     1      35.642 -17.926 -22.234  0.00  0.00    +0.005 S 
ATOM     21  O   UNL     1      35.038 -18.998 -23.012  0.00  0.00    -0.169 OA
ATOM     22  O   UNL     1      37.086 -17.881 -22.063  0.00  0.00    -0.169 OA
BRANCH  20  23
ATOM     23  C   UNL     1      34.926 -17.958 -20.608  0.00  0.00    +0.156 C 
ATOM     24  C   UNL     1      34.402 -19.334 -20.259  0.00  0.00    +0.028 C 
ENDBRANCH  20  23
ENDBRANCH   3  20
TORSDOF 3
ENDMDL
MODEL 6
REMARK VINA RESULT:     -10.4      4.370      8.978
REMARK  Name = 25109292
REMARK  3 active torsions:
REMARK  status: ('A' for Active; 'I' for Inactive)
REMARK    1  A    between atoms: C_3  and  S_20
REMARK    2  A    between atoms: C_7  and  C_10
REMARK    3  A    between atoms: S_20  and  C_23
REMARK                            x       y       z     vdW  Elec       q    Type
REMARK                         _______ _______ _______ _____ _____    ______ ____
ROOT
ATOM      1  O   UNL     1      35.000 -21.633 -17.578  0.00  0.00    -0.425 OA
ATOM      2  N   UNL     1      33.091 -20.775 -18.450  0.00  0.00    -0.368 NA
ATOM      3  C   UNL     1      35.527 -19.132 -20.759  0.00  0.00    +0.091 C 
ATOM      4  C   UNL     1      34.172 -20.301 -19.155  0.00  0.00    +0.153 C 
ATOM      5  C   UNL     1      35.341 -20.824 -18.624  0.00  0.00    +0.174 C 
ATOM      6  C   UNL     1      34.254 -19.431 -20.251  0.00  0.00    +0.107 C 
ATOM      7  C   UNL     1      33.640 -21.549 -17.540  0.00  0.00    +0.282 C 
ATOM      8  C   UNL     1      36.684 -19.681 -20.193  0.00  0.00    +0.018 C 
ATOM      9  C   UNL     1      36.617 -20.552 -19.099  0.00  0.00    +0.041 C 
ENDROOT
BRANCH   7  10
ATOM     10  C   UNL     1      33.007 -22.326 -16.502  0.00  0.00    +0.066 C 
ATOM     11  C   UNL     1      30.993 -23.257 -15.503  0.00  0.00    +0.000 C 
ATOM     12  C   UNL     1      31.779 -23.841 -14.481  0.00  0.00    +0.000 C 
ATOM     13  C   UNL     1      31.623 -22.502 -16.506  0.00  0.00    +0.006 C 
ATOM     14  C   UNL     1      33.779 -22.901 -15.497  0.00  0.00    +0.006 C 
ATOM     15  C   UNL     1      33.170 -23.654 -14.492  0.00  0.00    +0.000 C 
ATOM     16  C   UNL     1      29.602 -23.444 -15.493  0.00  0.00    +0.000 C 
ATOM     17  C   UNL     1      31.149 -24.596 -13.478  0.00  0.00    +0.000 C 
ATOM     18  C   UNL     1      28.993 -24.197 -14.488  0.00  0.00    +0.000 C 
ATOM     19  C   UNL     1      29.765 -24.771 -13.483  0.00  0.00    +0.000 C 
ENDBRANCH   7  10
BRANCH   3  20
ATOM     20  S   UNL     1      35.669 -18.050 -22.126  0.00  0.00    +0.005 S 
ATOM     21  O   UNL     1      37.071 -18.007 -22.516  0.00  0.00    -0.169 OA
ATOM     22  O   UNL     1      34.655 -18.399 -23.110  0.00  0.00    -0.169 OA
BRANCH  20  23
ATOM     23  C   UNL     1      35.234 -16.456 -21.472  0.00  0.00    +0.156 C 
ATOM     24  C   UNL     1      35.295 -15.383 -22.536  0.00  0.00    +0.028 C 
ENDBRANCH  20  23
ENDBRANCH   3  20
TORSDOF 3
ENDMDL
MODEL 7
REMARK VINA RESULT:     -10.3      3.442      8.883
REMARK  Name = 25109292
REMARK  3 active torsions:
REMARK  status: ('A' for Active; 'I' for Inactive)
REMARK    1  A    between atoms: C_3  and  S_20
REMARK    2  A    between atoms: C_7  and  C_10
REMARK    3  A    between atoms: S_20  and  C_23
REMARK                            x       y       z     vdW  Elec       q    Type
REMARK                         _______ _______ _______ _____ _____    ______ ____
ROOT
ATOM      1  O   UNL     1      35.338 -21.694 -17.263  0.00  0.00    -0.425 OA
ATOM      2  N   UNL     1      37.285 -20.552 -17.464  0.00  0.00    -0.368 NA
ATOM      3  C   UNL     1      35.524 -19.146 -20.446  0.00  0.00    +0.091 C 
ATOM      4  C   UNL     1      36.437 -20.195 -18.484  0.00  0.00    +0.153 C 
ATOM      5  C   UNL     1      35.244 -20.893 -18.364  0.00  0.00    +0.174 C 
ATOM      6  C   UNL     1      36.592 -19.296 -19.549  0.00  0.00    +0.107 C 
ATOM      7  C   UNL     1      36.586 -21.431 -16.782  0.00  0.00    +0.282 C 
ATOM      8  C   UNL     1      34.336 -19.871 -20.289  0.00  0.00    +0.018 C 
ATOM      9  C   UNL     1      34.165 -20.771 -19.231  0.00  0.00    +0.041 C 
ENDROOT
BRANCH   7  10
ATOM     10  C   UNL     1      36.950 -22.163 -15.593  0.00  0.00    +0.066 C 
ATOM     11  C   UNL     1      36.344 -23.094 -13.429  0.00  0.00    +0.000 C 
ATOM     12  C   UNL     1      37.661 -23.589 -13.280  0.00  0.00    +0.000 C 
ATOM     13  C   UNL     1      36.004 -22.383 -14.591  0.00  0.00    +0.006 C 
ATOM     14  C   UNL     1      38.245 -22.650 -15.447  0.00  0.00    +0.006 C 
ATOM     15  C   UNL     1      38.601 -23.359 -14.298  0.00  0.00    +0.000 C 
ATOM     16  C   UNL     1      35.404 -23.324 -12.410  0.00  0.00    +0.000 C 
ATOM     17  C   UNL     1      38.001 -24.300 -12.118  0.00  0.00    +0.000 C 
ATOM     18  C   UNL     1      35.759 -24.032 -11.262  0.00  0.00    +0.000 C 
ATOM     19  C   UNL     1      37.055 -24.519 -11.116  0.00  0.00    +0.000 C 
ENDBRANCH   7  10
BRANCH   3  20
ATOM     20  S   UNL     1      35.682 -18.033 -21.786  0.00  0.00    +0.005 S 
ATOM     21  O   UNL     1      37.085 -17.997 -22.171  0.00  0.00    -0.169 OA
ATOM     22  O   UNL     1      34.666 -18.347 -22.779  0.00  0.00    -0.169 OA
BRANCH  20  23
ATOM     23  C   UNL     1      35.262 -16.451 -21.093  0.00  0.00    +0.156 C 
ATOM     24  C   UNL     1      35.275 -15.364 -22.146  0.00  0.00    +0.028 C 
ENDBRANCH  20  23
ENDBRANCH   3  20
TORSDOF 3
ENDMDL
MODEL 8
REMARK VINA RESULT:     -10.2      8.070     11.397
REMARK  Name = 25109292
REMARK  3 active torsions:
REMARK  status: ('A' for Active; 'I' for Inactive)
REMARK    1  A    between atoms: C_3  and  S_20
REMARK    2  A    between atoms: C_7  and  C_10
REMARK    3  A    between atoms: S_20  and  C_23
REMARK                            x       y       z     vdW  Elec       q    Type
REMARK                         _______ _______ _______ _____ _____    ______ ____
ROOT
ATOM      1  O   UNL     1      34.086 -12.526 -21.229  0.00  0.00    -0.425 OA
ATOM      2  N   UNL     1      34.564 -13.222 -23.333  0.00  0.00    -0.368 NA
ATOM      3  C   UNL     1      35.438 -16.366 -21.512  0.00  0.00    +0.091 C 
ATOM      4  C   UNL     1      34.814 -14.240 -22.444  0.00  0.00    +0.153 C 
ATOM      5  C   UNL     1      34.522 -13.818 -21.156  0.00  0.00    +0.174 C 
ATOM      6  C   UNL     1      35.285 -15.547 -22.640  0.00  0.00    +0.107 C 
ATOM      7  C   UNL     1      34.141 -12.245 -22.561  0.00  0.00    +0.282 C 
ATOM      8  C   UNL     1      35.133 -15.900 -20.227  0.00  0.00    +0.018 C 
ATOM      9  C   UNL     1      34.661 -14.600 -20.016  0.00  0.00    +0.041 C 
ENDROOT
BRANCH   7  10
ATOM     10  C   UNL     1      33.724 -10.912 -22.923  0.00  0.00    +0.066 C 
ATOM     11  C   UNL     1      32.595  -8.833 -22.351  0.00  0.00    +0.000 C 
ATOM     12  C   UNL     1      32.915  -8.317 -23.629  0.00  0.00    +0.000 C 
ATOM     13  C   UNL     1      33.007 -10.133 -22.014  0.00  0.00    +0.006 C 
ATOM     14  C   UNL     1      34.038 -10.403 -24.179  0.00  0.00    +0.006 C 
ATOM     15  C   UNL     1      33.637  -9.114 -24.532  0.00  0.00    +0.000 C 
ATOM     16  C   UNL     1      31.873  -8.036 -21.448  0.00  0.00    +0.000 C 
ATOM     17  C   UNL     1      32.503  -7.017 -23.967  0.00  0.00    +0.000 C 
ATOM     18  C   UNL     1      31.472  -6.748 -21.801  0.00  0.00    +0.000 C 
ATOM     19  C   UNL     1      31.786  -6.240 -23.057  0.00  0.00    +0.000 C 
ENDBRANCH   7  10
BRANCH   3  20
ATOM     20  S   UNL     1      36.023 -18.002 -21.717  0.00  0.00    +0.005 S 
ATOM     21  O   UNL     1      35.269 -18.612 -22.802  0.00  0.00    -0.169 OA
ATOM     22  O   UNL     1      37.477 -17.977 -21.771  0.00  0.00    -0.169 OA
BRANCH  20  23
ATOM     23  C   UNL     1      35.571 -18.822 -20.206  0.00  0.00    +0.156 C 
ATOM     24  C   UNL     1      34.210 -19.473 -20.314  0.00  0.00    +0.028 C 
ENDBRANCH  20  23
ENDBRANCH   3  20
TORSDOF 3
ENDMDL
MODEL 9
REMARK VINA RESULT:     -10.2      0.894      1.717
REMARK  Name = 25109292
REMARK  3 active torsions:
REMARK  status: ('A' for Active; 'I' for Inactive)
REMARK    1  A    between atoms: C_3  and  S_20
REMARK    2  A    between atoms: C_7  and  C_10
REMARK    3  A    between atoms: S_20  and  C_23
REMARK                            x       y       z     vdW  Elec       q    Type
REMARK                         _______ _______ _______ _____ _____    ______ ____
ROOT
ATOM      1  O   UNL     1      35.010 -22.179 -16.432  0.00  0.00    -0.425 OA
ATOM      2  N   UNL     1      37.137 -21.576 -15.931  0.00  0.00    -0.368 NA
ATOM      3  C   UNL     1      36.441 -23.664 -12.911  0.00  0.00    +0.091 C 
ATOM      4  C   UNL     1      36.640 -22.379 -14.933  0.00  0.00    +0.153 C 
ATOM      5  C   UNL     1      35.339 -22.750 -15.236  0.00  0.00    +0.174 C 
ATOM      6  C   UNL     1      37.217 -22.842 -13.741  0.00  0.00    +0.107 C 
ATOM      7  C   UNL     1      36.137 -21.495 -16.780  0.00  0.00    +0.282 C 
ATOM      8  C   UNL     1      35.129 -24.015 -13.255  0.00  0.00    +0.018 C 
ATOM      9  C   UNL     1      34.541 -23.562 -14.440  0.00  0.00    +0.041 C 
ENDROOT
BRANCH   7  10
ATOM     10  C   UNL     1      36.059 -20.784 -18.033  0.00  0.00    +0.066 C 
ATOM     11  C   UNL     1      34.731 -19.900 -19.870  0.00  0.00    +0.000 C 
ATOM     12  C   UNL     1      35.910 -19.398 -20.471  0.00  0.00    +0.000 C 
ATOM     13  C   UNL     1      34.823 -20.591 -18.651  0.00  0.00    +0.006 C 
ATOM     14  C   UNL     1      37.217 -20.289 -18.624  0.00  0.00    +0.006 C 
ATOM     15  C   UNL     1      37.145 -19.600 -19.836  0.00  0.00    +0.000 C 
ATOM     16  C   UNL     1      33.495 -19.697 -20.506  0.00  0.00    +0.000 C 
ATOM     17  C   UNL     1      35.818 -18.706 -21.690  0.00  0.00    +0.000 C 
ATOM     18  C   UNL     1      33.423 -19.009 -21.717  0.00  0.00    +0.000 C 
ATOM     19  C   UNL     1      34.582 -18.515 -22.308  0.00  0.00    +0.000 C 
ENDBRANCH   7  10
BRANCH   3  20
ATOM     20  S   UNL     1      37.127 -24.261 -11.417  0.00  0.00    +0.005 S 
ATOM     21  O   UNL     1      38.116 -23.294 -10.964  0.00  0.00    -0.169 OA
ATOM     22  O   UNL     1      36.045 -24.660 -10.529  0.00  0.00    -0.169 OA
BRANCH  20  23
ATOM     23  C   UNL     1      37.987 -25.744 -11.890  0.00  0.00    +0.156 C 
ATOM     24  C   UNL     1      39.076 -25.455 -12.899  0.00  0.00    +0.028 C 
ENDBRANCH  20  23
ENDBRANCH   3  20
TORSDOF 3
ENDMDL
