MODEL 1
REMARK VINA RESULT:     -12.3      0.000      0.000
REMARK  Name = 5289110
REMARK  6 active torsions:
REMARK  status: ('A' for Active; 'I' for Inactive)
REMARK    1  A    between atoms: C_3  and  C_9
REMARK    2  A    between atoms: C_4  and  C_22
REMARK    3  A    between atoms: N_8  and  C_11
REMARK    4  A    between atoms: C_11  and  C_13
REMARK    5  A    between atoms: N_21  and  C_24
REMARK    6  A    between atoms: C_24  and  C_26
REMARK                            x       y       z     vdW  Elec       q    Type
REMARK                         _______ _______ _______ _____ _____    ______ ____
ROOT
ATOM      1  N   UNL     1      32.609 -24.199 -12.774  0.00  0.00    -0.244 NA
ATOM      2  N   UNL     1      31.157 -23.671 -14.624  0.00  0.00    -0.244 NA
ATOM      3  C   UNL     1      33.554 -23.422 -13.342  0.00  0.00    +0.115 C 
ATOM      4  C   UNL     1      32.154 -22.925 -15.107  0.00  0.00    +0.115 C 
ATOM      5  C   UNL     1      33.378 -22.746 -14.533  0.00  0.00    +0.100 C 
ATOM      6  C   UNL     1      31.452 -24.278 -13.459  0.00  0.00    +0.250 C 
ENDROOT
BRANCH   3   9
ATOM      7  O   UNL     1      35.671 -22.490 -12.957  0.00  0.00    -0.269 OA
ATOM      8  N   UNL     1      34.986 -24.182 -11.528  0.00  0.00    -0.296 N 
ATOM      9  C   UNL     1      34.810 -23.322 -12.619  0.00  0.00    +0.260 C 
ATOM     10  H   UNL     1      34.264 -24.816 -11.315  0.00  0.00    +0.150 HD
BRANCH   8  11
ATOM     11  C   UNL     1      36.168 -24.188 -10.697  0.00  0.00    +0.117 C 
BRANCH  11  13
ATOM     12  F   UNL     1      40.880 -24.636 -13.731  0.00  0.00    -0.205 F 
ATOM     13  C   UNL     1      37.425 -24.310 -11.509  0.00  0.00    -0.003 C 
ATOM     14  C   UNL     1      37.564 -25.359 -12.410  0.00  0.00    -0.005 C 
ATOM     15  C   UNL     1      38.731 -25.472 -13.165  0.00  0.00    +0.005 C 
ATOM     16  C   UNL     1      38.439 -23.372 -11.351  0.00  0.00    -0.000 C 
ATOM     17  C   UNL     1      39.754 -24.535 -13.012  0.00  0.00    +0.136 C 
ATOM     18  C   UNL     1      39.607 -23.485 -12.105  0.00  0.00    +0.029 C 
ATOM     19  C   UNL     1      38.884 -26.595 -14.134  0.00  0.00    +0.033 C 
ENDBRANCH  11  13
ENDBRANCH   8  11
ENDBRANCH   3   9
BRANCH   4  22
ATOM     20  O   UNL     1      30.685 -21.962 -16.660  0.00  0.00    -0.269 OA
ATOM     21  N   UNL     1      32.939 -21.962 -17.204  0.00  0.00    -0.296 N 
ATOM     22  C   UNL     1      31.850 -22.247 -16.393  0.00  0.00    +0.260 C 
ATOM     23  H   UNL     1      33.837 -22.231 -16.902  0.00  0.00    +0.150 HD
BRANCH  21  24
ATOM     24  C   UNL     1      32.809 -21.287 -18.470  0.00  0.00    +0.117 C 
BRANCH  24  26
ATOM     25  F   UNL     1      37.695 -19.160 -20.259  0.00  0.00    -0.205 F 
ATOM     26  C   UNL     1      34.104 -20.720 -18.947  0.00  0.00    -0.003 C 
ATOM     27  C   UNL     1      34.114 -19.738 -19.937  0.00  0.00    -0.005 C 
ATOM     28  C   UNL     1      35.325 -19.209 -20.382  0.00  0.00    +0.005 C 
ATOM     29  C   UNL     1      35.305 -21.172 -18.401  0.00  0.00    -0.000 C 
ATOM     30  C   UNL     1      36.526 -19.662 -19.837  0.00  0.00    +0.136 C 
ATOM     31  C   UNL     1      36.516 -20.644 -18.847  0.00  0.00    +0.029 C 
ATOM     32  C   UNL     1      35.332 -18.159 -21.442  0.00  0.00    +0.033 C 
ENDBRANCH  24  26
ENDBRANCH  21  24
ENDBRANCH   4  22
TORSDOF 6
ENDMDL
MODEL 2
REMARK VINA RESULT:     -12.1      3.308      6.269
REMARK  Name = 5289110
REMARK  6 active torsions:
REMARK  status: ('A' for Active; 'I' for Inactive)
REMARK    1  A    between atoms: C_3  and  C_9
REMARK    2  A    between atoms: C_4  and  C_22
REMARK    3  A    between atoms: N_8  and  C_11
REMARK    4  A    between atoms: C_11  and  C_13
REMARK    5  A    between atoms: N_21  and  C_24
REMARK    6  A    between atoms: C_24  and  C_26
REMARK                            x       y       z     vdW  Elec       q    Type
REMARK                         _______ _______ _______ _____ _____    ______ ____
ROOT
ATOM      1  N   UNL     1      36.736 -24.138 -12.842  0.00  0.00    -0.244 NA
ATOM      2  N   UNL     1      38.217 -23.115 -14.444  0.00  0.00    -0.244 NA
ATOM      3  C   UNL     1      35.752 -23.335 -13.294  0.00  0.00    +0.115 C 
ATOM      4  C   UNL     1      37.180 -22.364 -14.824  0.00  0.00    +0.115 C 
ATOM      5  C   UNL     1      35.920 -22.410 -14.305  0.00  0.00    +0.100 C 
ATOM      6  C   UNL     1      37.926 -23.977 -13.452  0.00  0.00    +0.250 C 
ENDROOT
BRANCH   3   9
ATOM      7  O   UNL     1      34.335 -24.221 -11.649  0.00  0.00    -0.269 OA
ATOM      8  N   UNL     1      33.387 -22.773 -13.192  0.00  0.00    -0.296 N 
ATOM      9  C   UNL     1      34.460 -23.492 -12.649  0.00  0.00    +0.260 C 
ATOM     10  H   UNL     1      33.555 -22.214 -13.985  0.00  0.00    +0.150 HD
BRANCH   8  11
ATOM     11  C   UNL     1      32.047 -22.806 -12.652  0.00  0.00    +0.117 C 
BRANCH  11  13
ATOM     12  F   UNL     1      28.264 -24.367 -16.507  0.00  0.00    -0.205 F 
ATOM     13  C   UNL     1      31.036 -23.220 -13.682  0.00  0.00    -0.003 C 
ATOM     14  C   UNL     1      30.134 -22.285 -14.175  0.00  0.00    -0.005 C 
ATOM     15  C   UNL     1      29.195 -22.670 -15.133  0.00  0.00    +0.005 C 
ATOM     16  C   UNL     1      31.012 -24.535 -14.131  0.00  0.00    -0.000 C 
ATOM     17  C   UNL     1      29.164 -23.988 -15.589  0.00  0.00    +0.136 C 
ATOM     18  C   UNL     1      30.073 -24.920 -15.088  0.00  0.00    +0.029 C 
ATOM     19  C   UNL     1      28.225 -21.670 -15.666  0.00  0.00    +0.033 C 
ENDBRANCH  11  13
ENDBRANCH   8  11
ENDBRANCH   3   9
BRANCH   4  22
ATOM     20  O   UNL     1      38.320 -20.527 -15.731  0.00  0.00    -0.269 OA
ATOM     21  N   UNL     1      36.787 -21.596 -17.103  0.00  0.00    -0.296 N 
ATOM     22  C   UNL     1      37.481 -21.405 -15.917  0.00  0.00    +0.260 C 
ATOM     23  H   UNL     1      36.132 -22.330 -17.156  0.00  0.00    +0.150 HD
BRANCH  21  24
ATOM     24  C   UNL     1      36.986 -20.763 -18.262  0.00  0.00    +0.117 C 
BRANCH  24  26
ATOM     25  F   UNL     1      32.160 -19.605 -20.902  0.00  0.00    -0.205 F 
ATOM     26  C   UNL     1      35.707 -20.454 -18.965  0.00  0.00    -0.003 C 
ATOM     27  C   UNL     1      35.714 -19.650 -20.105  0.00  0.00    -0.005 C 
ATOM     28  C   UNL     1      34.517 -19.361 -20.761  0.00  0.00    +0.005 C 
ATOM     29  C   UNL     1      34.504 -20.970 -18.483  0.00  0.00    -0.000 C 
ATOM     30  C   UNL     1      33.315 -19.877 -20.278  0.00  0.00    +0.136 C 
ATOM     31  C   UNL     1      33.308 -20.681 -19.139  0.00  0.00    +0.029 C 
ATOM     32  C   UNL     1      34.528 -18.501 -21.980  0.00  0.00    +0.033 C 
ENDBRANCH  24  26
ENDBRANCH  21  24
ENDBRANCH   4  22
TORSDOF 6
ENDMDL
MODEL 3
REMARK VINA RESULT:     -12.1      4.624      7.655
REMARK  Name = 5289110
REMARK  6 active torsions:
REMARK  status: ('A' for Active; 'I' for Inactive)
REMARK    1  A    between atoms: C_3  and  C_9
REMARK    2  A    between atoms: C_4  and  C_22
REMARK    3  A    between atoms: N_8  and  C_11
REMARK    4  A    between atoms: C_11  and  C_13
REMARK    5  A    between atoms: N_21  and  C_24
REMARK    6  A    between atoms: C_24  and  C_26
REMARK                            x       y       z     vdW  Elec       q    Type
REMARK                         _______ _______ _______ _____ _____    ______ ____
ROOT
ATOM      1  N   UNL     1      36.094 -19.988 -19.248  0.00  0.00    -0.244 NA
ATOM      2  N   UNL     1      36.808 -18.284 -20.794  0.00  0.00    -0.244 NA
ATOM      3  C   UNL     1      34.852 -19.886 -19.765  0.00  0.00    +0.115 C 
ATOM      4  C   UNL     1      35.549 -18.255 -21.240  0.00  0.00    +0.115 C 
ATOM      5  C   UNL     1      34.515 -19.018 -20.785  0.00  0.00    +0.100 C 
ATOM      6  C   UNL     1      37.009 -19.170 -19.801  0.00  0.00    +0.250 C 
ENDROOT
BRANCH   3   9
ATOM      7  O   UNL     1      32.729 -20.880 -19.711  0.00  0.00    -0.269 OA
ATOM      8  N   UNL     1      34.213 -21.466 -18.029  0.00  0.00    -0.296 N 
ATOM      9  C   UNL     1      33.849 -20.761 -19.183  0.00  0.00    +0.260 C 
ATOM     10  H   UNL     1      35.116 -21.325 -17.664  0.00  0.00    +0.150 HD
BRANCH   8  11
ATOM     11  C   UNL     1      33.337 -22.391 -17.347  0.00  0.00    +0.117 C 
BRANCH  11  13
ATOM     12  F   UNL     1      35.048 -23.440 -12.095  0.00  0.00    -0.205 F 
ATOM     13  C   UNL     1      33.797 -22.670 -15.945  0.00  0.00    -0.003 C 
ATOM     14  C   UNL     1      35.138 -22.513 -15.616  0.00  0.00    -0.005 C 
ATOM     15  C   UNL     1      35.565 -22.772 -14.314  0.00  0.00    +0.005 C 
ATOM     16  C   UNL     1      32.876 -23.083 -14.989  0.00  0.00    -0.000 C 
ATOM     17  C   UNL     1      34.647 -23.188 -13.349  0.00  0.00    +0.136 C 
ATOM     18  C   UNL     1      33.303 -23.342 -13.687  0.00  0.00    +0.029 C 
ATOM     19  C   UNL     1      37.004 -22.604 -13.956  0.00  0.00    +0.033 C 
ENDBRANCH  11  13
ENDBRANCH   8  11
ENDBRANCH   3   9
BRANCH   4  22
ATOM     20  O   UNL     1      34.857 -17.686 -23.408  0.00  0.00    -0.269 OA
ATOM     21  N   UNL     1      35.589 -15.956 -22.048  0.00  0.00    -0.296 N 
ATOM     22  C   UNL     1      35.305 -17.283 -22.337  0.00  0.00    +0.260 C 
ATOM     23  H   UNL     1      35.946 -15.731 -21.158  0.00  0.00    +0.150 HD
BRANCH  21  24
ATOM     24  C   UNL     1      35.382 -14.893 -22.999  0.00  0.00    +0.117 C 
BRANCH  24  26
ATOM     25  F   UNL     1      32.033 -10.844 -21.000  0.00  0.00    -0.205 F 
ATOM     26  C   UNL     1      34.493 -13.820 -22.466  0.00  0.00    -0.003 C 
ATOM     27  C   UNL     1      33.802 -14.017 -21.270  0.00  0.00    -0.005 C 
ATOM     28  C   UNL     1      32.970 -13.013 -20.773  0.00  0.00    +0.005 C 
ATOM     29  C   UNL     1      34.353 -12.621 -23.163  0.00  0.00    -0.000 C 
ATOM     30  C   UNL     1      32.830 -11.814 -21.471  0.00  0.00    +0.136 C 
ATOM     31  C   UNL     1      33.521 -11.618 -22.666  0.00  0.00    +0.029 C 
ATOM     32  C   UNL     1      32.233 -13.226 -19.493  0.00  0.00    +0.033 C 
ENDBRANCH  24  26
ENDBRANCH  21  24
ENDBRANCH   4  22
TORSDOF 6
ENDMDL
MODEL 4
REMARK VINA RESULT:     -12.1      4.623     11.069
REMARK  Name = 5289110
REMARK  6 active torsions:
REMARK  status: ('A' for Active; 'I' for Inactive)
REMARK    1  A    between atoms: C_3  and  C_9
REMARK    2  A    between atoms: C_4  and  C_22
REMARK    3  A    between atoms: N_8  and  C_11
REMARK    4  A    between atoms: C_11  and  C_13
REMARK    5  A    between atoms: N_21  and  C_24
REMARK    6  A    between atoms: C_24  and  C_26
REMARK                            x       y       z     vdW  Elec       q    Type
REMARK                         _______ _______ _______ _____ _____    ______ ____
ROOT
ATOM      1  N   UNL     1      36.786 -18.299 -20.800  0.00  0.00    -0.244 NA
ATOM      2  N   UNL     1      36.099 -20.009 -19.248  0.00  0.00    -0.244 NA
ATOM      3  C   UNL     1      35.518 -18.255 -21.257  0.00  0.00    +0.115 C 
ATOM      4  C   UNL     1      34.874 -19.893 -19.766  0.00  0.00    +0.115 C 
ATOM      5  C   UNL     1      34.498 -19.046 -20.766  0.00  0.00    +0.100 C 
ATOM      6  C   UNL     1      37.004 -19.185 -19.810  0.00  0.00    +0.250 C 
ENDROOT
BRANCH   3   9
ATOM      7  O   UNL     1      34.790 -17.685 -23.412  0.00  0.00    -0.269 OA
ATOM      8  N   UNL     1      35.548 -15.959 -22.062  0.00  0.00    -0.296 N 
ATOM      9  C   UNL     1      35.261 -17.305 -22.325  0.00  0.00    +0.260 C 
ATOM     10  H   UNL     1      35.920 -15.727 -21.181  0.00  0.00    +0.150 HD
BRANCH   8  11
ATOM     11  C   UNL     1      35.327 -14.893 -23.012  0.00  0.00    +0.117 C 
BRANCH  11  13
ATOM     12  F   UNL     1      32.030 -10.848 -20.920  0.00  0.00    -0.205 F 
ATOM     13  C   UNL     1      34.446 -13.814 -22.450  0.00  0.00    -0.003 C 
ATOM     14  C   UNL     1      33.768 -14.031 -21.257  0.00  0.00    -0.005 C 
ATOM     15  C   UNL     1      32.950 -13.029 -20.736  0.00  0.00    +0.005 C 
ATOM     16  C   UNL     1      34.317 -12.609 -23.131  0.00  0.00    -0.000 C 
ATOM     17  C   UNL     1      32.815 -11.816 -21.413  0.00  0.00    +0.136 C 
ATOM     18  C   UNL     1      33.499 -11.607 -22.610  0.00  0.00    +0.029 C 
ATOM     19  C   UNL     1      32.220 -13.256 -19.455  0.00  0.00    +0.033 C 
ENDBRANCH  11  13
ENDBRANCH   8  11
ENDBRANCH   3   9
BRANCH   4  22
ATOM     20  O   UNL     1      32.752 -20.888 -19.682  0.00  0.00    -0.269 OA
ATOM     21  N   UNL     1      34.265 -21.496 -18.033  0.00  0.00    -0.296 N 
ATOM     22  C   UNL     1      33.860 -20.795 -19.160  0.00  0.00    +0.260 C 
ATOM     23  H   UNL     1      35.177 -21.353 -17.689  0.00  0.00    +0.150 HD
BRANCH  21  24
ATOM     24  C   UNL     1      33.405 -22.427 -17.348  0.00  0.00    +0.117 C 
BRANCH  24  26
ATOM     25  F   UNL     1      35.063 -23.391 -12.063  0.00  0.00    -0.205 F 
ATOM     26  C   UNL     1      33.848 -22.682 -15.946  0.00  0.00    -0.003 C 
ATOM     27  C   UNL     1      35.190 -22.526 -15.599  0.00  0.00    -0.005 C 
ATOM     28  C   UNL     1      35.603 -22.765 -14.288  0.00  0.00    +0.005 C 
ATOM     29  C   UNL     1      32.920 -23.076 -14.983  0.00  0.00    -0.000 C 
ATOM     30  C   UNL     1      34.675 -23.160 -13.325  0.00  0.00    +0.136 C 
ATOM     31  C   UNL     1      33.333 -23.315 -13.673  0.00  0.00    +0.029 C 
ATOM     32  C   UNL     1      37.039 -22.597 -13.921  0.00  0.00    +0.033 C 
ENDBRANCH  24  26
ENDBRANCH  21  24
ENDBRANCH   4  22
TORSDOF 6
ENDMDL
MODEL 5
REMARK VINA RESULT:     -12.1      7.246     10.609
REMARK  Name = 5289110
REMARK  6 active torsions:
REMARK  status: ('A' for Active; 'I' for Inactive)
REMARK    1  A    between atoms: C_3  and  C_9
REMARK    2  A    between atoms: C_4  and  C_22
REMARK    3  A    between atoms: N_8  and  C_11
REMARK    4  A    between atoms: C_11  and  C_13
REMARK    5  A    between atoms: N_21  and  C_24
REMARK    6  A    between atoms: C_24  and  C_26
REMARK                            x       y       z     vdW  Elec       q    Type
REMARK                         _______ _______ _______ _____ _____    ______ ____
ROOT
ATOM      1  N   UNL     1      35.294 -15.896 -19.821  0.00  0.00    -0.244 NA
ATOM      2  N   UNL     1      34.608 -13.808 -20.809  0.00  0.00    -0.244 NA
ATOM      3  C   UNL     1      35.386 -16.411 -21.065  0.00  0.00    +0.115 C 
ATOM      4  C   UNL     1      34.728 -14.406 -21.996  0.00  0.00    +0.115 C 
ATOM      5  C   UNL     1      35.110 -15.697 -22.213  0.00  0.00    +0.100 C 
ATOM      6  C   UNL     1      34.904 -14.608 -19.768  0.00  0.00    +0.250 C 
ENDROOT
BRANCH   3   9
ATOM      7  O   UNL     1      35.718 -18.426 -22.216  0.00  0.00    -0.269 OA
ATOM      8  N   UNL     1      36.324 -18.376 -19.979  0.00  0.00    -0.296 N 
ATOM      9  C   UNL     1      35.805 -17.799 -21.146  0.00  0.00    +0.260 C 
ATOM     10  H   UNL     1      36.365 -17.824 -19.166  0.00  0.00    +0.150 HD
BRANCH   8  11
ATOM     11  C   UNL     1      36.804 -19.737 -19.905  0.00  0.00    +0.117 C 
BRANCH  11  13
ATOM     12  F   UNL     1      33.986 -22.752 -16.087  0.00  0.00    -0.205 F 
ATOM     13  C   UNL     1      36.053 -20.542 -18.883  0.00  0.00    -0.003 C 
ATOM     14  C   UNL     1      36.686 -20.921 -17.705  0.00  0.00    -0.005 C 
ATOM     15  C   UNL     1      35.989 -21.669 -16.756  0.00  0.00    +0.005 C 
ATOM     16  C   UNL     1      34.732 -20.901 -19.126  0.00  0.00    -0.000 C 
ATOM     17  C   UNL     1      34.663 -22.033 -16.992  0.00  0.00    +0.136 C 
ATOM     18  C   UNL     1      34.035 -21.649 -18.176  0.00  0.00    +0.029 C 
ATOM     19  C   UNL     1      36.664 -22.076 -15.489  0.00  0.00    +0.033 C 
ENDBRANCH  11  13
ENDBRANCH   8  11
ENDBRANCH   3   9
BRANCH   4  22
ATOM     20  O   UNL     1      33.972 -14.055 -24.188  0.00  0.00    -0.269 OA
ATOM     21  N   UNL     1      34.598 -12.178 -22.977  0.00  0.00    -0.296 N 
ATOM     22  C   UNL     1      34.404 -13.540 -23.159  0.00  0.00    +0.260 C 
ATOM     23  H   UNL     1      34.950 -11.862 -22.114  0.00  0.00    +0.150 HD
BRANCH  21  24
ATOM     24  C   UNL     1      34.306 -11.209 -24.003  0.00  0.00    +0.117 C 
BRANCH  24  26
ATOM     25  F   UNL     1      33.456  -6.062 -21.908  0.00  0.00    -0.205 F 
ATOM     26  C   UNL     1      34.078  -9.844 -23.445  0.00  0.00    -0.003 C 
ATOM     27  C   UNL     1      33.118  -9.648 -22.452  0.00  0.00    -0.005 C 
ATOM     28  C   UNL     1      32.905  -8.371 -21.931  0.00  0.00    +0.005 C 
ATOM     29  C   UNL     1      34.826  -8.765 -23.915  0.00  0.00    -0.000 C 
ATOM     30  C   UNL     1      33.653  -7.292 -22.402  0.00  0.00    +0.136 C 
ATOM     31  C   UNL     1      34.613  -7.489 -23.395  0.00  0.00    +0.029 C 
ATOM     32  C   UNL     1      31.878  -8.164 -20.870  0.00  0.00    +0.033 C 
ENDBRANCH  24  26
ENDBRANCH  21  24
ENDBRANCH   4  22
TORSDOF 6
ENDMDL
MODEL 6
REMARK VINA RESULT:     -12.1      7.250     13.438
REMARK  Name = 5289110
REMARK  6 active torsions:
REMARK  status: ('A' for Active; 'I' for Inactive)
REMARK    1  A    between atoms: C_3  and  C_9
REMARK    2  A    between atoms: C_4  and  C_22
REMARK    3  A    between atoms: N_8  and  C_11
REMARK    4  A    between atoms: C_11  and  C_13
REMARK    5  A    between atoms: N_21  and  C_24
REMARK    6  A    between atoms: C_24  and  C_26
REMARK                            x       y       z     vdW  Elec       q    Type
REMARK                         _______ _______ _______ _____ _____    ______ ____
ROOT
ATOM      1  N   UNL     1      34.598 -13.821 -20.838  0.00  0.00    -0.244 NA
ATOM      2  N   UNL     1      35.303 -15.902 -19.847  0.00  0.00    -0.244 NA
ATOM      3  C   UNL     1      34.721 -14.399 -22.050  0.00  0.00    +0.115 C 
ATOM      4  C   UNL     1      35.393 -16.385 -21.089  0.00  0.00    +0.115 C 
ATOM      5  C   UNL     1      35.123 -15.707 -22.240  0.00  0.00    +0.100 C 
ATOM      6  C   UNL     1      34.901 -14.618 -19.796  0.00  0.00    +0.250 C 
ENDROOT
BRANCH   3   9
ATOM      7  O   UNL     1      33.928 -14.052 -24.230  0.00  0.00    -0.269 OA
ATOM      8  N   UNL     1      34.621 -12.182 -23.047  0.00  0.00    -0.296 N 
ATOM      9  C   UNL     1      34.398 -13.558 -23.189  0.00  0.00    +0.260 C 
ATOM     10  H   UNL     1      34.996 -11.858 -22.197  0.00  0.00    +0.150 HD
BRANCH   8  11
ATOM     11  C   UNL     1      34.330 -11.213 -24.079  0.00  0.00    +0.117 C 
BRANCH  11  13
ATOM     12  F   UNL     1      33.471  -6.074 -21.968  0.00  0.00    -0.205 F 
ATOM     13  C   UNL     1      34.099  -9.842 -23.512  0.00  0.00    -0.003 C 
ATOM     14  C   UNL     1      33.154  -9.661 -22.510  0.00  0.00    -0.005 C 
ATOM     15  C   UNL     1      32.939  -8.387 -21.984  0.00  0.00    +0.005 C 
ATOM     16  C   UNL     1      34.833  -8.765 -23.998  0.00  0.00    -0.000 C 
ATOM     17  C   UNL     1      33.671  -7.302 -22.466  0.00  0.00    +0.136 C 
ATOM     18  C   UNL     1      34.618  -7.491 -23.472  0.00  0.00    +0.029 C 
ATOM     19  C   UNL     1      31.927  -8.189 -20.907  0.00  0.00    +0.033 C 
ENDBRANCH  11  13
ENDBRANCH   8  11
ENDBRANCH   3   9
BRANCH   4  22
ATOM     20  O   UNL     1      35.786 -18.386 -22.248  0.00  0.00    -0.269 OA
ATOM     21  N   UNL     1      36.308 -18.359 -19.988  0.00  0.00    -0.296 N 
ATOM     22  C   UNL     1      35.837 -17.801 -21.168  0.00  0.00    +0.260 C 
ATOM     23  H   UNL     1      36.309 -17.808 -19.172  0.00  0.00    +0.150 HD
BRANCH  21  24
ATOM     24  C   UNL     1      36.795 -19.713 -19.911  0.00  0.00    +0.117 C 
BRANCH  24  26
ATOM     25  F   UNL     1      34.023 -22.761 -16.086  0.00  0.00    -0.205 F 
ATOM     26  C   UNL     1      36.062 -20.522 -18.894  0.00  0.00    -0.003 C 
ATOM     27  C   UNL     1      36.703 -20.910 -17.717  0.00  0.00    -0.005 C 
ATOM     28  C   UNL     1      36.017 -21.666 -16.767  0.00  0.00    +0.005 C 
ATOM     29  C   UNL     1      34.736 -20.889 -19.119  0.00  0.00    -0.000 C 
ATOM     30  C   UNL     1      34.691 -22.034 -16.993  0.00  0.00    +0.136 C 
ATOM     31  C   UNL     1      34.050 -21.646 -18.170  0.00  0.00    +0.029 C 
ATOM     32  C   UNL     1      36.705 -22.079 -15.509  0.00  0.00    +0.033 C 
ENDBRANCH  24  26
ENDBRANCH  21  24
ENDBRANCH   4  22
TORSDOF 6
ENDMDL
MODEL 7
REMARK VINA RESULT:     -12.0      6.326      9.930
REMARK  Name = 5289110
REMARK  6 active torsions:
REMARK  status: ('A' for Active; 'I' for Inactive)
REMARK    1  A    between atoms: C_3  and  C_9
REMARK    2  A    between atoms: C_4  and  C_22
REMARK    3  A    between atoms: N_8  and  C_11
REMARK    4  A    between atoms: C_11  and  C_13
REMARK    5  A    between atoms: N_21  and  C_24
REMARK    6  A    between atoms: C_24  and  C_26
REMARK                            x       y       z     vdW  Elec       q    Type
REMARK                         _______ _______ _______ _____ _____    ______ ____
ROOT
ATOM      1  N   UNL     1      34.956 -18.803 -23.035  0.00  0.00    -0.244 NA
ATOM      2  N   UNL     1      34.256 -17.170 -24.662  0.00  0.00    -0.244 NA
ATOM      3  C   UNL     1      35.269 -17.788 -22.205  0.00  0.00    +0.115 C 
ATOM      4  C   UNL     1      34.595 -16.234 -23.771  0.00  0.00    +0.115 C 
ATOM      5  C   UNL     1      35.106 -16.455 -22.527  0.00  0.00    +0.100 C 
ATOM      6  C   UNL     1      34.462 -18.428 -24.230  0.00  0.00    +0.250 C 
ENDROOT
BRANCH   3   9
ATOM      7  O   UNL     1      36.005 -17.315 -20.029  0.00  0.00    -0.269 OA
ATOM      8  N   UNL     1      36.055 -19.533 -20.703  0.00  0.00    -0.296 N 
ATOM      9  C   UNL     1      35.804 -18.170 -20.910  0.00  0.00    +0.260 C 
ATOM     10  H   UNL     1      35.874 -20.156 -21.442  0.00  0.00    +0.150 HD
BRANCH   8  11
ATOM     11  C   UNL     1      36.565 -20.073 -19.463  0.00  0.00    +0.117 C 
BRANCH  11  13
ATOM     12  F   UNL     1      32.559 -22.707 -16.527  0.00  0.00    -0.205 F 
ATOM     13  C   UNL     1      35.497 -20.777 -18.676  0.00  0.00    -0.003 C 
ATOM     14  C   UNL     1      35.821 -21.393 -17.473  0.00  0.00    -0.005 C 
ATOM     15  C   UNL     1      34.829 -22.046 -16.742  0.00  0.00    +0.005 C 
ATOM     16  C   UNL     1      34.194 -20.806 -19.160  0.00  0.00    -0.000 C 
ATOM     17  C   UNL     1      33.519 -22.081 -17.221  0.00  0.00    +0.136 C 
ATOM     18  C   UNL     1      33.202 -21.460 -18.429  0.00  0.00    +0.029 C 
ATOM     19  C   UNL     1      35.172 -22.708 -15.450  0.00  0.00    +0.033 C 
ENDBRANCH  11  13
ENDBRANCH   8  11
ENDBRANCH   3   9
BRANCH   4  22
ATOM     20  O   UNL     1      34.323 -14.603 -25.434  0.00  0.00    -0.269 OA
ATOM     21  N   UNL     1      34.223 -13.887 -23.231  0.00  0.00    -0.296 N 
ATOM     22  C   UNL     1      34.377 -14.838 -24.229  0.00  0.00    +0.260 C 
ATOM     23  H   UNL     1      34.283 -14.174 -22.291  0.00  0.00    +0.150 HD
BRANCH  21  24
ATOM     24  C   UNL     1      33.981 -12.495 -23.515  0.00  0.00    +0.117 C 
BRANCH  24  26
ATOM     25  F   UNL     1      31.039  -9.974 -19.442  0.00  0.00    -0.205 F 
ATOM     26  C   UNL     1      33.201 -11.823 -22.436  0.00  0.00    -0.003 C 
ATOM     27  C   UNL     1      32.966 -10.450 -22.496  0.00  0.00    -0.005 C 
ATOM     28  C   UNL     1      32.237  -9.822 -21.486  0.00  0.00    +0.005 C 
ATOM     29  C   UNL     1      32.704 -12.569 -21.367  0.00  0.00    -0.000 C 
ATOM     30  C   UNL     1      31.741 -10.568 -20.417  0.00  0.00    +0.136 C 
ATOM     31  C   UNL     1      31.975 -11.942 -20.357  0.00  0.00    +0.029 C 
ATOM     32  C   UNL     1      31.988  -8.353 -21.553  0.00  0.00    +0.033 C 
ENDBRANCH  24  26
ENDBRANCH  21  24
ENDBRANCH   4  22
TORSDOF 6
ENDMDL
MODEL 8
REMARK VINA RESULT:     -12.0      6.360     12.598
REMARK  Name = 5289110
REMARK  6 active torsions:
REMARK  status: ('A' for Active; 'I' for Inactive)
REMARK    1  A    between atoms: C_3  and  C_9
REMARK    2  A    between atoms: C_4  and  C_22
REMARK    3  A    between atoms: N_8  and  C_11
REMARK    4  A    between atoms: C_11  and  C_13
REMARK    5  A    between atoms: N_21  and  C_24
REMARK    6  A    between atoms: C_24  and  C_26
REMARK                            x       y       z     vdW  Elec       q    Type
REMARK                         _______ _______ _______ _____ _____    ______ ____
ROOT
ATOM      1  N   UNL     1      34.261 -17.100 -24.674  0.00  0.00    -0.244 NA
ATOM      2  N   UNL     1      34.955 -18.748 -23.058  0.00  0.00    -0.244 NA
ATOM      3  C   UNL     1      34.602 -16.142 -23.788  0.00  0.00    +0.115 C 
ATOM      4  C   UNL     1      35.264 -17.730 -22.251  0.00  0.00    +0.115 C 
ATOM      5  C   UNL     1      35.120 -16.404 -22.535  0.00  0.00    +0.100 C 
ATOM      6  C   UNL     1      34.460 -18.362 -24.249  0.00  0.00    +0.250 C 
ENDROOT
BRANCH   3   9
ATOM      7  O   UNL     1      34.249 -14.507 -25.432  0.00  0.00    -0.269 OA
ATOM      8  N   UNL     1      34.349 -13.787 -23.231  0.00  0.00    -0.296 N 
ATOM      9  C   UNL     1      34.396 -14.772 -24.225  0.00  0.00    +0.260 C 
ATOM     10  H   UNL     1      34.473 -14.065 -22.295  0.00  0.00    +0.150 HD
BRANCH   8  11
ATOM     11  C   UNL     1      34.129 -12.385 -23.503  0.00  0.00    +0.117 C 
BRANCH  11  13
ATOM     12  F   UNL     1      30.923  -9.970 -19.566  0.00  0.00    -0.205 F 
ATOM     13  C   UNL     1      33.272 -11.737 -22.453  0.00  0.00    -0.003 C 
ATOM     14  C   UNL     1      33.020 -10.372 -22.516  0.00  0.00    -0.005 C 
ATOM     15  C   UNL     1      32.225  -9.770 -21.541  0.00  0.00    +0.005 C 
ATOM     16  C   UNL     1      32.740 -12.510 -21.427  0.00  0.00    -0.000 C 
ATOM     17  C   UNL     1      31.687 -10.539 -20.508  0.00  0.00    +0.136 C 
ATOM     18  C   UNL     1      31.944 -11.909 -20.452  0.00  0.00    +0.029 C 
ATOM     19  C   UNL     1      31.950  -8.306 -21.605  0.00  0.00    +0.033 C 
ENDBRANCH  11  13
ENDBRANCH   8  11
ENDBRANCH   3   9
BRANCH   4  22
ATOM     20  O   UNL     1      35.970 -17.280 -20.061  0.00  0.00    -0.269 OA
ATOM     21  N   UNL     1      36.083 -19.485 -20.771  0.00  0.00    -0.296 N 
ATOM     22  C   UNL     1      35.811 -18.134 -20.930  0.00  0.00    +0.260 C 
ATOM     23  H   UNL     1      35.922 -20.093 -21.529  0.00  0.00    +0.150 HD
BRANCH  21  24
ATOM     24  C   UNL     1      36.594 -20.034 -19.541  0.00  0.00    +0.117 C 
BRANCH  24  26
ATOM     25  F   UNL     1      32.611 -22.666 -16.573  0.00  0.00    -0.205 F 
ATOM     26  C   UNL     1      35.539 -20.733 -18.751  0.00  0.00    -0.003 C 
ATOM     27  C   UNL     1      35.867 -21.355 -17.546  0.00  0.00    -0.005 C 
ATOM     28  C   UNL     1      34.880 -22.009 -16.808  0.00  0.00    +0.005 C 
ATOM     29  C   UNL     1      34.225 -20.764 -19.217  0.00  0.00    -0.000 C 
ATOM     30  C   UNL     1      33.566 -22.040 -17.275  0.00  0.00    +0.136 C 
ATOM     31  C   UNL     1      33.239 -21.418 -18.480  0.00  0.00    +0.029 C 
ATOM     32  C   UNL     1      35.233 -22.672 -15.520  0.00  0.00    +0.033 C 
ENDBRANCH  24  26
ENDBRANCH  21  24
ENDBRANCH   4  22
TORSDOF 6
ENDMDL
MODEL 9
REMARK VINA RESULT:     -11.9      9.088     12.769
REMARK  Name = 5289110
REMARK  6 active torsions:
REMARK  status: ('A' for Active; 'I' for Inactive)
REMARK    1  A    between atoms: C_3  and  C_9
REMARK    2  A    between atoms: C_4  and  C_22
REMARK    3  A    between atoms: N_8  and  C_11
REMARK    4  A    between atoms: C_11  and  C_13
REMARK    5  A    between atoms: N_21  and  C_24
REMARK    6  A    between atoms: C_24  and  C_26
REMARK                            x       y       z     vdW  Elec       q    Type
REMARK                         _______ _______ _______ _____ _____    ______ ____
ROOT
ATOM      1  N   UNL     1      33.516 -14.168 -20.690  0.00  0.00    -0.244 NA
ATOM      2  N   UNL     1      32.590 -11.947 -20.823  0.00  0.00    -0.244 NA
ATOM      3  C   UNL     1      34.188 -13.916 -21.832  0.00  0.00    +0.115 C 
ATOM      4  C   UNL     1      33.294 -11.793 -21.947  0.00  0.00    +0.115 C 
ATOM      5  C   UNL     1      34.114 -12.720 -22.518  0.00  0.00    +0.100 C 
ATOM      6  C   UNL     1      32.746 -13.154 -20.249  0.00  0.00    +0.250 C 
ENDROOT
BRANCH   3   9
ATOM      7  O   UNL     1      35.430 -14.997 -23.502  0.00  0.00    -0.269 OA
ATOM      8  N   UNL     1      35.364 -16.005 -21.415  0.00  0.00    -0.296 N 
ATOM      9  C   UNL     1      35.025 -14.996 -22.325  0.00  0.00    +0.260 C 
ATOM     10  H   UNL     1      35.010 -15.943 -20.499  0.00  0.00    +0.150 HD
BRANCH   8  11
ATOM     11  C   UNL     1      36.206 -17.132 -21.746  0.00  0.00    +0.117 C 
BRANCH  11  13
ATOM     12  F   UNL     1      35.264 -21.528 -18.371  0.00  0.00    -0.205 F 
ATOM     13  C   UNL     1      35.951 -18.306 -20.846  0.00  0.00    -0.003 C 
ATOM     14  C   UNL     1      34.651 -18.757 -20.653  0.00  0.00    -0.005 C 
ATOM     15  C   UNL     1      34.414 -19.848 -19.816  0.00  0.00    +0.005 C 
ATOM     16  C   UNL     1      37.020 -18.931 -20.213  0.00  0.00    -0.000 C 
ATOM     17  C   UNL     1      35.481 -20.480 -19.177  0.00  0.00    +0.136 C 
ATOM     18  C   UNL     1      36.783 -20.022 -19.376  0.00  0.00    +0.029 C 
ATOM     19  C   UNL     1      33.020 -20.336 -19.607  0.00  0.00    +0.033 C 
ENDBRANCH  11  13
ENDBRANCH   8  11
ENDBRANCH   3   9
BRANCH   4  22
ATOM     20  O   UNL     1      33.787 -10.211 -23.607  0.00  0.00    -0.269 OA
ATOM     21  N   UNL     1      32.215  -9.608 -22.013  0.00  0.00    -0.296 N 
ATOM     22  C   UNL     1      33.134 -10.467 -22.599  0.00  0.00    +0.260 C 
ATOM     23  H   UNL     1      31.739  -9.905 -21.204  0.00  0.00    +0.150 HD
BRANCH  21  24
ATOM     24  C   UNL     1      31.931  -8.298 -22.542  0.00  0.00    +0.117 C 
BRANCH  24  26
ATOM     25  F   UNL     1      32.655  -4.253 -18.705  0.00  0.00    -0.205 F 
ATOM     26  C   UNL     1      32.123  -7.222 -21.526  0.00  0.00    -0.003 C 
ATOM     27  C   UNL     1      32.072  -5.882 -21.910  0.00  0.00    -0.005 C 
ATOM     28  C   UNL     1      32.252  -4.877 -20.959  0.00  0.00    +0.005 C 
ATOM     29  C   UNL     1      32.352  -7.557 -20.191  0.00  0.00    -0.000 C 
ATOM     30  C   UNL     1      32.482  -5.212 -19.625  0.00  0.00    +0.136 C 
ATOM     31  C   UNL     1      32.532  -6.552 -19.241  0.00  0.00    +0.029 C 
ATOM     32  C   UNL     1      32.197  -3.445 -21.374  0.00  0.00    +0.033 C 
ENDBRANCH  24  26
ENDBRANCH  21  24
ENDBRANCH   4  22
TORSDOF 6
ENDMDL
