MODEL 1
REMARK VINA RESULT:     -13.5      0.000      0.000
REMARK  Name = 5288641
REMARK  1 active torsions:
REMARK  status: ('A' for Active; 'I' for Inactive)
REMARK    1  A    between atoms: C_14  and  S_23
REMARK                            x       y       z     vdW  Elec       q    Type
REMARK                         _______ _______ _______ _____ _____    ______ ____
ROOT
ATOM      1  O   UNL     1      35.542 -23.687 -14.084  0.00  0.00    -0.270 OA
ATOM      2  O   UNL     1      32.153 -21.662 -17.571  0.00  0.00    -0.285 OA
ATOM      3  N   UNL     1      35.480 -22.099 -16.592  0.00  0.00    -0.310 N 
ATOM      4  N   UNL     1      33.342 -24.234 -13.418  0.00  0.00    -0.280 N 
ATOM      5  C   UNL     1      33.569 -23.004 -15.335  0.00  0.00    +0.071 C 
ATOM      6  C   UNL     1      32.145 -23.228 -15.106  0.00  0.00    +0.020 C 
ATOM      7  C   UNL     1      34.155 -22.338 -16.332  0.00  0.00    +0.092 C 
ATOM      8  C   UNL     1      32.065 -23.980 -13.930  0.00  0.00    +0.051 C 
ATOM      9  C   UNL     1      34.333 -23.665 -14.226  0.00  0.00    +0.251 C 
ATOM     10  C   UNL     1      34.361 -21.069 -18.314  0.00  0.00    +0.054 C 
ATOM     11  C   UNL     1      35.615 -21.353 -17.756  0.00  0.00    +0.051 C 
ATOM     12  C   UNL     1      33.357 -21.686 -17.429  0.00  0.00    +0.210 C 
ATOM     13  C   UNL     1      31.002 -22.861 -15.787  0.00  0.00    +0.020 C 
ATOM     14  C   UNL     1      29.769 -23.263 -15.262  0.00  0.00    +0.112 C 
ATOM     15  C   UNL     1      30.859 -24.388 -13.395  0.00  0.00    +0.016 C 
ATOM     16  C   UNL     1      29.698 -24.019 -14.078  0.00  0.00    +0.020 C 
ATOM     17  C   UNL     1      34.195 -20.342 -19.474  0.00  0.00    +0.004 C 
ATOM     18  C   UNL     1      36.762 -20.897 -18.371  0.00  0.00    +0.015 C 
ATOM     19  C   UNL     1      35.356 -19.881 -20.095  0.00  0.00    +0.000 C 
ATOM     20  C   UNL     1      36.627 -20.156 -19.550  0.00  0.00    +0.001 C 
ATOM     21  H   UNL     1      36.229 -22.410 -16.035  0.00  0.00    +0.152 HD
ATOM     22  H   UNL     1      33.521 -24.746 -12.596  0.00  0.00    +0.155 HD
ENDROOT
BRANCH  14  23
ATOM     23  S   UNL     1      28.293 -22.820 -16.089  0.00  0.00    +0.042 S 
ATOM     24  O   UNL     1      27.194 -22.578 -14.904  0.00  0.00    -0.065 OA
ATOM     25  O   UNL     1      28.512 -21.535 -16.736  0.00  0.00    -0.065 OA
ATOM     26  O   UNL     1      27.878 -23.980 -16.863  0.00  0.00    -0.065 OA
ENDBRANCH  14  23
TORSDOF 1
ENDMDL
MODEL 2
REMARK VINA RESULT:     -12.1      1.277      1.825
REMARK  Name = 5288641
REMARK  1 active torsions:
REMARK  status: ('A' for Active; 'I' for Inactive)
REMARK    1  A    between atoms: C_14  and  S_23
REMARK                            x       y       z     vdW  Elec       q    Type
REMARK                         _______ _______ _______ _____ _____    ______ ____
ROOT
ATOM      1  O   UNL     1      36.843 -22.822 -15.628  0.00  0.00    -0.270 OA
ATOM      2  O   UNL     1      32.355 -21.217 -17.872  0.00  0.00    -0.285 OA
ATOM      3  N   UNL     1      35.849 -21.284 -17.967  0.00  0.00    -0.310 N 
ATOM      4  N   UNL     1      35.022 -23.589 -14.332  0.00  0.00    -0.280 N 
ATOM      5  C   UNL     1      34.521 -22.369 -16.203  0.00  0.00    +0.071 C 
ATOM      6  C   UNL     1      33.268 -22.740 -15.553  0.00  0.00    +0.020 C 
ATOM      7  C   UNL     1      34.700 -21.659 -17.318  0.00  0.00    +0.092 C 
ATOM      8  C   UNL     1      33.631 -23.479 -14.423  0.00  0.00    +0.051 C 
ATOM      9  C   UNL     1      35.654 -22.930 -15.393  0.00  0.00    +0.251 C 
ATOM     10  C   UNL     1      34.154 -20.404 -19.244  0.00  0.00    +0.054 C 
ATOM     11  C   UNL     1      35.541 -20.545 -19.102  0.00  0.00    +0.051 C 
ATOM     12  C   UNL     1      33.540 -21.111 -18.106  0.00  0.00    +0.210 C 
ATOM     13  C   UNL     1      31.938 -22.505 -15.845  0.00  0.00    +0.020 C 
ATOM     14  C   UNL     1      30.975 -23.029 -14.975  0.00  0.00    +0.112 C 
ATOM     15  C   UNL     1      32.697 -24.005 -13.552  0.00  0.00    +0.016 C 
ATOM     16  C   UNL     1      31.350 -23.771 -13.841  0.00  0.00    +0.020 C 
ATOM     17  C   UNL     1      33.566 -19.715 -20.283  0.00  0.00    +0.004 C 
ATOM     18  C   UNL     1      36.391 -19.979 -20.030  0.00  0.00    +0.015 C 
ATOM     19  C   UNL     1      34.425 -19.143 -21.221  0.00  0.00    +0.000 C 
ATOM     20  C   UNL     1      35.823 -19.273 -21.097  0.00  0.00    +0.001 C 
ATOM     21  H   UNL     1      36.761 -21.506 -17.672  0.00  0.00    +0.152 HD
ATOM     22  H   UNL     1      35.497 -24.067 -13.613  0.00  0.00    +0.155 HD
ENDROOT
BRANCH  14  23
ATOM     23  S   UNL     1      29.279 -22.756 -15.302  0.00  0.00    +0.042 S 
ATOM     24  O   UNL     1      29.198 -22.434 -16.903  0.00  0.00    -0.065 OA
ATOM     25  O   UNL     1      28.574 -24.010 -15.084  0.00  0.00    -0.065 OA
ATOM     26  O   UNL     1      28.898 -21.554 -14.578  0.00  0.00    -0.065 OA
ENDBRANCH  14  23
TORSDOF 1
ENDMDL
MODEL 3
REMARK VINA RESULT:     -11.8      3.605      7.017
REMARK  Name = 5288641
REMARK  1 active torsions:
REMARK  status: ('A' for Active; 'I' for Inactive)
REMARK    1  A    between atoms: C_14  and  S_23
REMARK                            x       y       z     vdW  Elec       q    Type
REMARK                         _______ _______ _______ _____ _____    ______ ____
ROOT
ATOM      1  O   UNL     1      34.594 -21.415 -17.682  0.00  0.00    -0.270 OA
ATOM      2  O   UNL     1      33.268 -23.937 -13.251  0.00  0.00    -0.285 OA
ATOM      3  N   UNL     1      32.216 -22.451 -16.235  0.00  0.00    -0.310 N 
ATOM      4  N   UNL     1      36.555 -21.868 -16.443  0.00  0.00    -0.280 N 
ATOM      5  C   UNL     1      34.573 -22.569 -15.538  0.00  0.00    +0.071 C 
ATOM      6  C   UNL     1      35.647 -22.942 -14.623  0.00  0.00    +0.020 C 
ATOM      7  C   UNL     1      33.262 -22.780 -15.410  0.00  0.00    +0.092 C 
ATOM      8  C   UNL     1      36.828 -22.493 -15.222  0.00  0.00    +0.051 C 
ATOM      9  C   UNL     1      35.183 -21.869 -16.717  0.00  0.00    +0.251 C 
ATOM     10  C   UNL     1      31.230 -23.515 -14.453  0.00  0.00    +0.054 C 
ATOM     11  C   UNL     1      31.015 -22.878 -15.683  0.00  0.00    +0.051 C 
ATOM     12  C   UNL     1      32.684 -23.485 -14.212  0.00  0.00    +0.210 C 
ATOM     13  C   UNL     1      35.677 -23.593 -13.405  0.00  0.00    +0.020 C 
ATOM     14  C   UNL     1      36.921 -23.785 -12.796  0.00  0.00    +0.112 C 
ATOM     15  C   UNL     1      38.066 -22.672 -14.638  0.00  0.00    +0.016 C 
ATOM     16  C   UNL     1      38.104 -23.329 -13.406  0.00  0.00    +0.020 C 
ATOM     17  C   UNL     1      30.212 -24.038 -13.684  0.00  0.00    +0.004 C 
ATOM     18  C   UNL     1      29.734 -22.750 -16.180  0.00  0.00    +0.015 C 
ATOM     19  C   UNL     1      28.917 -23.909 -14.186  0.00  0.00    +0.000 C 
ATOM     20  C   UNL     1      28.680 -23.272 -15.421  0.00  0.00    +0.001 C 
ATOM     21  H   UNL     1      32.303 -21.979 -17.094  0.00  0.00    +0.152 HD
ATOM     22  H   UNL     1      37.239 -21.476 -17.033  0.00  0.00    +0.155 HD
ENDROOT
BRANCH  14  23
ATOM     23  S   UNL     1      37.009 -24.602 -11.253  0.00  0.00    +0.042 S 
ATOM     24  O   UNL     1      35.503 -24.501 -10.628  0.00  0.00    -0.065 OA
ATOM     25  O   UNL     1      37.272 -26.011 -11.507  0.00  0.00    -0.065 OA
ATOM     26  O   UNL     1      37.902 -23.821 -10.411  0.00  0.00    -0.065 OA
ENDBRANCH  14  23
TORSDOF 1
ENDMDL
MODEL 4
REMARK VINA RESULT:     -11.8      2.946      5.463
REMARK  Name = 5288641
REMARK  1 active torsions:
REMARK  status: ('A' for Active; 'I' for Inactive)
REMARK    1  A    between atoms: C_14  and  S_23
REMARK                            x       y       z     vdW  Elec       q    Type
REMARK                         _______ _______ _______ _____ _____    ______ ____
ROOT
ATOM      1  O   UNL     1      31.090 -22.247 -16.482  0.00  0.00    -0.270 OA
ATOM      2  O   UNL     1      36.246 -21.610 -17.355  0.00  0.00    -0.285 OA
ATOM      3  N   UNL     1      32.970 -20.979 -18.400  0.00  0.00    -0.310 N 
ATOM      4  N   UNL     1      32.297 -23.337 -14.768  0.00  0.00    -0.280 N 
ATOM      5  C   UNL     1      33.522 -22.275 -16.383  0.00  0.00    +0.071 C 
ATOM      6  C   UNL     1      34.450 -22.878 -15.432  0.00  0.00    +0.020 C 
ATOM      7  C   UNL     1      33.800 -21.564 -17.478  0.00  0.00    +0.092 C 
ATOM      8  C   UNL     1      33.653 -23.509 -14.473  0.00  0.00    +0.051 C 
ATOM      9  C   UNL     1      32.124 -22.585 -15.935  0.00  0.00    +0.251 C 
ATOM     10  C   UNL     1      35.089 -20.476 -19.131  0.00  0.00    +0.054 C 
ATOM     11  C   UNL     1      33.717 -20.335 -19.379  0.00  0.00    +0.051 C 
ATOM     12  C   UNL     1      35.216 -21.272 -17.898  0.00  0.00    +0.210 C 
ATOM     13  C   UNL     1      35.828 -22.917 -15.340  0.00  0.00    +0.020 C 
ATOM     14  C   UNL     1      36.394 -23.606 -14.262  0.00  0.00    +0.112 C 
ATOM     15  C   UNL     1      34.190 -24.194 -13.400  0.00  0.00    +0.016 C 
ATOM     16  C   UNL     1      35.583 -24.238 -13.301  0.00  0.00    +0.020 C 
ATOM     17  C   UNL     1      36.064 -19.936 -19.944  0.00  0.00    +0.004 C 
ATOM     18  C   UNL     1      33.283 -19.630 -20.482  0.00  0.00    +0.015 C 
ATOM     19  C   UNL     1      35.625 -19.223 -21.060  0.00  0.00    +0.000 C 
ATOM     20  C   UNL     1      34.249 -19.070 -21.326  0.00  0.00    +0.001 C 
ATOM     21  H   UNL     1      31.987 -21.011 -18.374  0.00  0.00    +0.152 HD
ATOM     22  H   UNL     1      31.559 -23.699 -14.225  0.00  0.00    +0.155 HD
ENDROOT
BRANCH  14  23
ATOM     23  S   UNL     1      38.133 -23.683 -14.104  0.00  0.00    +0.042 S 
ATOM     24  O   UNL     1      38.454 -23.105 -12.610  0.00  0.00    -0.065 OA
ATOM     25  O   UNL     1      38.520 -25.086 -14.110  0.00  0.00    -0.065 OA
ATOM     26  O   UNL     1      38.687 -22.756 -15.078  0.00  0.00    -0.065 OA
ENDBRANCH  14  23
TORSDOF 1
ENDMDL
MODEL 5
REMARK VINA RESULT:     -11.0      3.298      7.139
REMARK  Name = 5288641
REMARK  1 active torsions:
REMARK  status: ('A' for Active; 'I' for Inactive)
REMARK    1  A    between atoms: C_14  and  S_23
REMARK                            x       y       z     vdW  Elec       q    Type
REMARK                         _______ _______ _______ _____ _____    ______ ____
ROOT
ATOM      1  O   UNL     1      33.074 -21.023 -18.928  0.00  0.00    -0.270 OA
ATOM      2  O   UNL     1      33.456 -23.431 -14.259  0.00  0.00    -0.285 OA
ATOM      3  N   UNL     1      31.400 -22.379 -16.884  0.00  0.00    -0.310 N 
ATOM      4  N   UNL     1      35.336 -21.015 -18.246  0.00  0.00    -0.280 N 
ATOM      5  C   UNL     1      33.832 -22.008 -16.835  0.00  0.00    +0.071 C 
ATOM      6  C   UNL     1      35.157 -22.110 -16.231  0.00  0.00    +0.020 C 
ATOM      7  C   UNL     1      32.666 -22.449 -16.360  0.00  0.00    +0.092 C 
ATOM      8  C   UNL     1      36.031 -21.491 -17.130  0.00  0.00    +0.051 C 
ATOM      9  C   UNL     1      33.968 -21.291 -18.147  0.00  0.00    +0.251 C 
ATOM     10  C   UNL     1      31.136 -23.481 -14.885  0.00  0.00    +0.054 C 
ATOM     11  C   UNL     1      30.490 -22.983 -16.025  0.00  0.00    +0.051 C 
ATOM     12  C   UNL     1      32.567 -23.165 -15.039  0.00  0.00    +0.210 C 
ATOM     13  C   UNL     1      35.627 -22.657 -15.053  0.00  0.00    +0.020 C 
ATOM     14  C   UNL     1      36.999 -22.571 -14.793  0.00  0.00    +0.112 C 
ATOM     15  C   UNL     1      37.389 -21.396 -16.893  0.00  0.00    +0.016 C 
ATOM     16  C   UNL     1      37.871 -21.947 -15.703  0.00  0.00    +0.020 C 
ATOM     17  C   UNL     1      30.474 -24.130 -13.864  0.00  0.00    +0.004 C 
ATOM     18  C   UNL     1      29.126 -23.131 -16.166  0.00  0.00    +0.015 C 
ATOM     19  C   UNL     1      29.094 -24.279 -14.006  0.00  0.00    +0.000 C 
ATOM     20  C   UNL     1      28.427 -23.785 -15.145  0.00  0.00    +0.001 C 
ATOM     21  H   UNL     1      31.169 -21.961 -17.744  0.00  0.00    +0.152 HD
ATOM     22  H   UNL     1      35.755 -20.545 -19.004  0.00  0.00    +0.155 HD
ENDROOT
BRANCH  14  23
ATOM     23  S   UNL     1      37.640 -23.248 -13.314  0.00  0.00    +0.042 S 
ATOM     24  O   UNL     1      39.100 -23.858 -13.720  0.00  0.00    -0.065 OA
ATOM     25  O   UNL     1      37.879 -22.152 -12.387  0.00  0.00    -0.065 OA
ATOM     26  O   UNL     1      36.772 -24.356 -12.946  0.00  0.00    -0.065 OA
ENDBRANCH  14  23
TORSDOF 1
ENDMDL
MODEL 6
REMARK VINA RESULT:     -10.8      3.571      6.460
REMARK  Name = 5288641
REMARK  1 active torsions:
REMARK  status: ('A' for Active; 'I' for Inactive)
REMARK    1  A    between atoms: C_14  and  S_23
REMARK                            x       y       z     vdW  Elec       q    Type
REMARK                         _______ _______ _______ _____ _____    ______ ____
ROOT
ATOM      1  O   UNL     1      32.239 -23.887 -14.167  0.00  0.00    -0.270 OA
ATOM      2  O   UNL     1      36.972 -22.494 -16.011  0.00  0.00    -0.285 OA
ATOM      3  N   UNL     1      35.132 -24.176 -13.561  0.00  0.00    -0.310 N 
ATOM      4  N   UNL     1      31.948 -22.607 -16.132  0.00  0.00    -0.280 N 
ATOM      5  C   UNL     1      34.100 -22.977 -15.445  0.00  0.00    +0.071 C 
ATOM      6  C   UNL     1      34.143 -22.173 -16.663  0.00  0.00    +0.020 C 
ATOM      7  C   UNL     1      35.118 -23.422 -14.707  0.00  0.00    +0.092 C 
ATOM      8  C   UNL     1      32.810 -21.979 -17.036  0.00  0.00    +0.051 C 
ATOM      9  C   UNL     1      32.661 -23.249 -15.113  0.00  0.00    +0.251 C 
ATOM     10  C   UNL     1      37.349 -23.790 -14.022  0.00  0.00    +0.054 C 
ATOM     11  C   UNL     1      36.439 -24.399 -13.147  0.00  0.00    +0.051 C 
ATOM     12  C   UNL     1      36.550 -23.130 -15.070  0.00  0.00    +0.210 C 
ATOM     13  C   UNL     1      35.172 -21.641 -17.415  0.00  0.00    +0.020 C 
ATOM     14  C   UNL     1      34.834 -20.904 -18.556  0.00  0.00    +0.112 C 
ATOM     15  C   UNL     1      32.455 -21.256 -18.158  0.00  0.00    +0.016 C 
ATOM     16  C   UNL     1      33.490 -20.713 -18.924  0.00  0.00    +0.020 C 
ATOM     17  C   UNL     1      38.716 -23.849 -13.852  0.00  0.00    +0.004 C 
ATOM     18  C   UNL     1      36.898 -25.100 -12.052  0.00  0.00    +0.015 C 
ATOM     19  C   UNL     1      39.181 -24.558 -12.745  0.00  0.00    +0.000 C 
ATOM     20  C   UNL     1      38.282 -25.178 -11.853  0.00  0.00    +0.001 C 
ATOM     21  H   UNL     1      34.331 -24.510 -13.097  0.00  0.00    +0.152 HD
ATOM     22  H   UNL     1      30.965 -22.598 -16.201  0.00  0.00    +0.155 HD
ENDROOT
BRANCH  14  23
ATOM     23  S   UNL     1      36.102 -20.208 -19.539  0.00  0.00    +0.042 S 
ATOM     24  O   UNL     1      36.929 -21.485 -20.137  0.00  0.00    -0.065 OA
ATOM     25  O   UNL     1      35.475 -19.540 -20.670  0.00  0.00    -0.065 OA
ATOM     26  O   UNL     1      36.981 -19.479 -18.640  0.00  0.00    -0.065 OA
ENDBRANCH  14  23
TORSDOF 1
ENDMDL
MODEL 7
REMARK VINA RESULT:     -10.7      3.109      5.798
REMARK  Name = 5288641
REMARK  1 active torsions:
REMARK  status: ('A' for Active; 'I' for Inactive)
REMARK    1  A    between atoms: C_14  and  S_23
REMARK                            x       y       z     vdW  Elec       q    Type
REMARK                         _______ _______ _______ _____ _____    ______ ____
ROOT
ATOM      1  O   UNL     1      31.578 -22.658 -15.041  0.00  0.00    -0.270 OA
ATOM      2  O   UNL     1      36.649 -22.154 -16.373  0.00  0.00    -0.285 OA
ATOM      3  N   UNL     1      33.302 -21.608 -17.219  0.00  0.00    -0.310 N 
ATOM      4  N   UNL     1      32.916 -23.577 -13.323  0.00  0.00    -0.280 N 
ATOM      5  C   UNL     1      34.010 -22.696 -15.129  0.00  0.00    +0.071 C 
ATOM      6  C   UNL     1      35.010 -23.205 -14.196  0.00  0.00    +0.020 C 
ATOM      7  C   UNL     1      34.201 -22.102 -16.309  0.00  0.00    +0.092 C 
ATOM      8  C   UNL     1      34.290 -23.729 -13.118  0.00  0.00    +0.051 C 
ATOM      9  C   UNL     1      32.651 -22.947 -14.544  0.00  0.00    +0.251 C 
ATOM     10  C   UNL     1      35.357 -21.199 -18.161  0.00  0.00    +0.054 C 
ATOM     11  C   UNL     1      33.969 -21.074 -18.314  0.00  0.00    +0.051 C 
ATOM     12  C   UNL     1      35.580 -21.866 -16.866  0.00  0.00    +0.210 C 
ATOM     13  C   UNL     1      36.391 -23.245 -14.209  0.00  0.00    +0.020 C 
ATOM     14  C   UNL     1      37.039 -23.825 -13.112  0.00  0.00    +0.112 C 
ATOM     15  C   UNL     1      34.910 -24.305 -12.026  0.00  0.00    +0.016 C 
ATOM     16  C   UNL     1      36.306 -24.349 -12.032  0.00  0.00    +0.020 C 
ATOM     17  C   UNL     1      36.265 -20.753 -19.098  0.00  0.00    +0.004 C 
ATOM     18  C   UNL     1      33.451 -20.481 -19.446  0.00  0.00    +0.015 C 
ATOM     19  C   UNL     1      35.740 -20.153 -20.243  0.00  0.00    +0.000 C 
ATOM     20  C   UNL     1      34.348 -20.018 -20.416  0.00  0.00    +0.001 C 
ATOM     21  H   UNL     1      32.324 -21.630 -17.114  0.00  0.00    +0.152 HD
ATOM     22  H   UNL     1      32.222 -23.876 -12.690  0.00  0.00    +0.155 HD
ENDROOT
BRANCH  14  23
ATOM     23  S   UNL     1      38.786 -23.900 -13.084  0.00  0.00    +0.042 S 
ATOM     24  O   UNL     1      39.144 -25.489 -12.950  0.00  0.00    -0.065 OA
ATOM     25  O   UNL     1      39.273 -23.461 -14.382  0.00  0.00    -0.065 OA
ATOM     26  O   UNL     1      39.216 -23.234 -11.865  0.00  0.00    -0.065 OA
ENDBRANCH  14  23
TORSDOF 1
ENDMDL
MODEL 8
REMARK VINA RESULT:     -10.5      2.930      6.460
REMARK  Name = 5288641
REMARK  1 active torsions:
REMARK  status: ('A' for Active; 'I' for Inactive)
REMARK    1  A    between atoms: C_14  and  S_23
REMARK                            x       y       z     vdW  Elec       q    Type
REMARK                         _______ _______ _______ _____ _____    ______ ____
ROOT
ATOM      1  O   UNL     1      35.261 -23.819 -12.366  0.00  0.00    -0.270 OA
ATOM      2  O   UNL     1      32.795 -22.300 -16.766  0.00  0.00    -0.285 OA
ATOM      3  N   UNL     1      32.574 -23.831 -13.631  0.00  0.00    -0.310 N 
ATOM      4  N   UNL     1      36.826 -22.783 -13.802  0.00  0.00    -0.280 N 
ATOM      5  C   UNL     1      34.668 -22.921 -14.549  0.00  0.00    +0.071 C 
ATOM      6  C   UNL     1      35.462 -22.255 -15.576  0.00  0.00    +0.020 C 
ATOM      7  C   UNL     1      33.365 -23.210 -14.564  0.00  0.00    +0.092 C 
ATOM      8  C   UNL     1      36.764 -22.198 -15.070  0.00  0.00    +0.051 C 
ATOM      9  C   UNL     1      35.573 -23.259 -13.401  0.00  0.00    +0.251 C 
ATOM     10  C   UNL     1      31.144 -23.338 -15.360  0.00  0.00    +0.054 C 
ATOM     11  C   UNL     1      31.265 -23.912 -14.088  0.00  0.00    +0.051 C 
ATOM     12  C   UNL     1      32.486 -22.857 -15.734  0.00  0.00    +0.210 C 
ATOM     13  C   UNL     1      35.166 -21.733 -16.821  0.00  0.00    +0.020 C 
ATOM     14  C   UNL     1      36.207 -21.151 -17.552  0.00  0.00    +0.112 C 
ATOM     15  C   UNL     1      37.806 -21.627 -15.775  0.00  0.00    +0.016 C 
ATOM     16  C   UNL     1      37.514 -21.098 -17.034  0.00  0.00    +0.020 C 
ATOM     17  C   UNL     1      29.954 -23.280 -16.055  0.00  0.00    +0.004 C 
ATOM     18  C   UNL     1      30.159 -24.457 -13.469  0.00  0.00    +0.015 C 
ATOM     19  C   UNL     1      28.836 -23.831 -15.429  0.00  0.00    +0.000 C 
ATOM     20  C   UNL     1      28.937 -24.414 -14.149  0.00  0.00    +0.001 C 
ATOM     21  H   UNL     1      32.888 -24.171 -12.763  0.00  0.00    +0.152 HD
ATOM     22  H   UNL     1      37.647 -22.853 -13.260  0.00  0.00    +0.155 HD
ENDROOT
BRANCH  14  23
ATOM     23  S   UNL     1      35.880 -20.479 -19.132  0.00  0.00    +0.042 S 
ATOM     24  O   UNL     1      36.682 -19.055 -19.166  0.00  0.00    -0.065 OA
ATOM     25  O   UNL     1      36.504 -21.342 -20.123  0.00  0.00    -0.065 OA
ATOM     26  O   UNL     1      34.454 -20.197 -19.184  0.00  0.00    -0.065 OA
ENDBRANCH  14  23
TORSDOF 1
ENDMDL
