MODEL 1
REMARK VINA RESULT:     -11.8      0.000      0.000
REMARK  Name = 9933475
REMARK  8 active torsions:
REMARK  status: ('A' for Active; 'I' for Inactive)
REMARK    1  A    between atoms: C_3  and  O_13
REMARK    2  A    between atoms: C_4  and  O_11
REMARK    3  A    between atoms: C_9  and  O_23
REMARK    4  A    between atoms: O_13  and  C_14
REMARK    5  A    between atoms: C_14  and  C_15
REMARK    6  A    between atoms: C_15  and  C_16
REMARK    7  A    between atoms: C_16  and  N_17
REMARK    8  A    between atoms: O_23  and  C_31
REMARK                            x       y       z     vdW  Elec       q    Type
REMARK                         _______ _______ _______ _____ _____    ______ ____
ROOT
ATOM      1  N   UNL     1      32.712 -20.811 -19.390  0.00  0.00    -0.248 NA
ATOM      2  N   UNL     1      33.650 -19.152 -20.865  0.00  0.00    -0.214 NA
ATOM      3  C   UNL     1      35.304 -22.054 -17.129  0.00  0.00    +0.173 C 
ATOM      4  C   UNL     1      36.410 -21.324 -17.535  0.00  0.00    +0.169 C 
ATOM      5  C   UNL     1      34.069 -21.879 -17.753  0.00  0.00    +0.055 C 
ATOM      6  C   UNL     1      35.032 -20.234 -19.203  0.00  0.00    +0.141 C 
ATOM      7  C   UNL     1      33.908 -20.971 -18.796  0.00  0.00    +0.072 C 
ATOM      8  C   UNL     1      36.278 -20.410 -18.575  0.00  0.00    +0.029 C 
ATOM      9  C   UNL     1      34.833 -19.338 -20.249  0.00  0.00    +0.213 C 
ATOM     10  C   UNL     1      32.648 -19.911 -20.392  0.00  0.00    +0.253 C 
ENDROOT
BRANCH   4  11
ATOM     11  O   UNL     1      37.620 -21.488 -16.932  0.00  0.00    -0.469 OA
ATOM     12  C   UNL     1      37.722 -21.100 -15.563  0.00  0.00    +0.253 C 
ENDBRANCH   4  11
BRANCH   3  13
ATOM     13  O   UNL     1      35.410 -22.961 -16.107  0.00  0.00    -0.472 OA
BRANCH  13  14
ATOM     14  C   UNL     1      34.535 -22.788 -15.001  0.00  0.00    +0.203 C 
BRANCH  14  15
ATOM     15  C   UNL     1      34.886 -23.812 -13.931  0.00  0.00    +0.025 C 
BRANCH  15  16
ATOM     16  C   UNL     1      35.940 -24.799 -14.424  0.00  0.00    -0.074 C 
BRANCH  16  17
ATOM     17  N   UNL     1      37.259 -24.408 -13.951  0.00  0.00    +0.387 N 
ATOM     18  C   UNL     1      37.260 -24.045 -12.535  0.00  0.00    -0.077 C 
ATOM     19  C   UNL     1      38.237 -25.489 -14.067  0.00  0.00    -0.077 C 
ATOM     20  C   UNL     1      38.738 -24.062 -12.178  0.00  0.00    -0.025 C 
ATOM     21  C   UNL     1      39.382 -25.008 -13.187  0.00  0.00    -0.025 C 
ATOM     22  H   UNL     1      37.508 -23.614 -14.541  0.00  0.00    -0.080 HD
ENDBRANCH  16  17
ENDBRANCH  15  16
ENDBRANCH  14  15
ENDBRANCH  13  14
ENDBRANCH   3  13
BRANCH   9  23
ATOM     23  O   UNL     1      35.871 -18.572 -20.715  0.00  0.00    -0.437 OA
BRANCH  23  31
ATOM     24  F   UNL     1      35.470 -16.121 -19.542  0.00  0.00    -0.201 F 
ATOM     25  N   UNL     1      34.584 -14.085 -23.590  0.00  0.00    -0.316 N 
ATOM     26  C   UNL     1      35.023 -15.134 -21.672  0.00  0.00    +0.045 C 
ATOM     27  C   UNL     1      34.909 -15.310 -23.052  0.00  0.00    +0.050 C 
ATOM     28  C   UNL     1      34.490 -13.144 -22.601  0.00  0.00    +0.026 C 
ATOM     29  C   UNL     1      34.757 -13.763 -21.401  0.00  0.00    +0.014 C 
ATOM     30  C   UNL     1      35.352 -16.247 -20.872  0.00  0.00    +0.176 C 
ATOM     31  C   UNL     1      35.550 -17.476 -21.491  0.00  0.00    +0.174 C 
ATOM     32  C   UNL     1      35.108 -16.546 -23.676  0.00  0.00    +0.018 C 
ATOM     33  C   UNL     1      35.433 -17.635 -22.863  0.00  0.00    +0.041 C 
ATOM     34  C   UNL     1      34.153 -11.741 -22.907  0.00  0.00    +0.047 C 
ATOM     35  H   UNL     1      34.442 -13.910 -24.549  0.00  0.00    +0.152 HD
ENDBRANCH  23  31
ENDBRANCH   9  23
TORSDOF 8
ENDMDL
MODEL 2
REMARK VINA RESULT:     -11.5      3.339     11.297
REMARK  Name = 9933475
REMARK  8 active torsions:
REMARK  status: ('A' for Active; 'I' for Inactive)
REMARK    1  A    between atoms: C_3  and  O_13
REMARK    2  A    between atoms: C_4  and  O_11
REMARK    3  A    between atoms: C_9  and  O_23
REMARK    4  A    between atoms: O_13  and  C_14
REMARK    5  A    between atoms: C_14  and  C_15
REMARK    6  A    between atoms: C_15  and  C_16
REMARK    7  A    between atoms: C_16  and  N_17
REMARK    8  A    between atoms: O_23  and  C_31
REMARK                            x       y       z     vdW  Elec       q    Type
REMARK                         _______ _______ _______ _____ _____    ______ ____
ROOT
ATOM      1  N   UNL     1      34.186 -17.443 -25.137  0.00  0.00    -0.248 NA
ATOM      2  N   UNL     1      35.047 -19.015 -23.526  0.00  0.00    -0.214 NA
ATOM      3  C   UNL     1      34.324 -14.062 -23.752  0.00  0.00    +0.173 C 
ATOM      4  C   UNL     1      34.869 -14.289 -22.498  0.00  0.00    +0.169 C 
ATOM      5  C   UNL     1      34.097 -15.119 -24.631  0.00  0.00    +0.055 C 
ATOM      6  C   UNL     1      34.960 -16.655 -23.008  0.00  0.00    +0.141 C 
ATOM      7  C   UNL     1      34.409 -16.431 -24.280  0.00  0.00    +0.072 C 
ATOM      8  C   UNL     1      35.189 -15.589 -22.121  0.00  0.00    +0.029 C 
ATOM      9  C   UNL     1      35.257 -17.978 -22.693  0.00  0.00    +0.213 C 
ATOM     10  C   UNL     1      34.517 -18.680 -24.713  0.00  0.00    +0.253 C 
ENDROOT
BRANCH   4  11
ATOM     11  O   UNL     1      35.093 -13.262 -21.632  0.00  0.00    -0.469 OA
ATOM     12  C   UNL     1      34.108 -13.034 -20.626  0.00  0.00    +0.253 C 
ENDBRANCH   4  11
BRANCH   3  13
ATOM     13  O   UNL     1      33.999 -12.789 -24.145  0.00  0.00    -0.472 OA
BRANCH  13  14
ATOM     14  C   UNL     1      33.743 -12.590 -25.528  0.00  0.00    +0.203 C 
BRANCH  14  15
ATOM     15  C   UNL     1      33.705 -11.095 -25.812  0.00  0.00    +0.025 C 
BRANCH  15  16
ATOM     16  C   UNL     1      35.028 -10.424 -25.454  0.00  0.00    -0.074 C 
BRANCH  16  17
ATOM     17  N   UNL     1      34.898  -9.682 -24.209  0.00  0.00    +0.387 N 
ATOM     18  C   UNL     1      35.800  -8.533 -24.147  0.00  0.00    -0.077 C 
ATOM     19  C   UNL     1      33.558  -9.123 -24.030  0.00  0.00    -0.077 C 
ATOM     20  C   UNL     1      35.233  -7.716 -22.997  0.00  0.00    -0.025 C 
ATOM     21  C   UNL     1      33.760  -8.106 -22.916  0.00  0.00    -0.025 C 
ATOM     22  H   UNL     1      35.116 -10.369 -23.488  0.00  0.00    -0.080 HD
ENDBRANCH  16  17
ENDBRANCH  15  16
ENDBRANCH  14  15
ENDBRANCH  13  14
ENDBRANCH   3  13
BRANCH   9  23
ATOM     23  O   UNL     1      35.800 -18.297 -21.475  0.00  0.00    -0.437 OA
BRANCH  23  31
ATOM     24  F   UNL     1      37.039 -19.919 -19.637  0.00  0.00    -0.201 F 
ATOM     25  N   UNL     1      33.024 -21.555 -18.048  0.00  0.00    -0.316 N 
ATOM     26  C   UNL     1      34.925 -20.721 -18.865  0.00  0.00    +0.045 C 
ATOM     27  C   UNL     1      33.534 -20.679 -18.980  0.00  0.00    +0.050 C 
ATOM     28  C   UNL     1      34.041 -22.146 -17.350  0.00  0.00    +0.026 C 
ATOM     29  C   UNL     1      35.231 -21.650 -17.832  0.00  0.00    +0.014 C 
ATOM     30  C   UNL     1      35.700 -19.908 -19.715  0.00  0.00    +0.176 C 
ATOM     31  C   UNL     1      35.048 -19.095 -20.636  0.00  0.00    +0.174 C 
ATOM     32  C   UNL     1      32.876 -19.862 -19.907  0.00  0.00    +0.018 C 
ATOM     33  C   UNL     1      33.666 -19.064 -20.740  0.00  0.00    +0.041 C 
ATOM     34  C   UNL     1      33.769 -23.131 -16.286  0.00  0.00    +0.047 C 
ATOM     35  H   UNL     1      32.065 -21.729 -17.904  0.00  0.00    +0.152 HD
ENDBRANCH  23  31
ENDBRANCH   9  23
TORSDOF 8
ENDMDL
MODEL 3
REMARK VINA RESULT:     -11.1      1.859      3.188
REMARK  Name = 9933475
REMARK  8 active torsions:
REMARK  status: ('A' for Active; 'I' for Inactive)
REMARK    1  A    between atoms: C_3  and  O_13
REMARK    2  A    between atoms: C_4  and  O_11
REMARK    3  A    between atoms: C_9  and  O_23
REMARK    4  A    between atoms: O_13  and  C_14
REMARK    5  A    between atoms: C_14  and  C_15
REMARK    6  A    between atoms: C_15  and  C_16
REMARK    7  A    between atoms: C_16  and  N_17
REMARK    8  A    between atoms: O_23  and  C_31
REMARK                            x       y       z     vdW  Elec       q    Type
REMARK                         _______ _______ _______ _____ _____    ______ ____
ROOT
ATOM      1  N   UNL     1      32.671 -20.796 -19.356  0.00  0.00    -0.248 NA
ATOM      2  N   UNL     1      33.620 -19.190 -20.881  0.00  0.00    -0.214 NA
ATOM      3  C   UNL     1      35.267 -22.034 -17.099  0.00  0.00    +0.173 C 
ATOM      4  C   UNL     1      36.381 -21.334 -17.535  0.00  0.00    +0.169 C 
ATOM      5  C   UNL     1      34.028 -21.851 -17.711  0.00  0.00    +0.055 C 
ATOM      6  C   UNL     1      35.003 -20.258 -19.211  0.00  0.00    +0.141 C 
ATOM      7  C   UNL     1      33.871 -20.964 -18.774  0.00  0.00    +0.072 C 
ATOM      8  C   UNL     1      36.253 -20.443 -18.595  0.00  0.00    +0.029 C 
ATOM      9  C   UNL     1      34.807 -19.383 -20.276  0.00  0.00    +0.213 C 
ATOM     10  C   UNL     1      32.610 -19.918 -20.378  0.00  0.00    +0.253 C 
ENDROOT
BRANCH   4  11
ATOM     11  O   UNL     1      37.596 -21.507 -16.943  0.00  0.00    -0.469 OA
ATOM     12  C   UNL     1      37.786 -20.907 -15.662  0.00  0.00    +0.253 C 
ENDBRANCH   4  11
BRANCH   3  13
ATOM     13  O   UNL     1      35.370 -22.919 -16.057  0.00  0.00    -0.472 OA
BRANCH  13  14
ATOM     14  C   UNL     1      34.694 -22.577 -14.855  0.00  0.00    +0.203 C 
BRANCH  14  15
ATOM     15  C   UNL     1      34.258 -23.856 -14.154  0.00  0.00    +0.025 C 
BRANCH  15  16
ATOM     16  C   UNL     1      33.003 -23.635 -13.316  0.00  0.00    -0.074 C 
BRANCH  16  17
ATOM     17  N   UNL     1      31.822 -23.622 -14.167  0.00  0.00    +0.387 N 
ATOM     18  C   UNL     1      30.819 -24.598 -13.745  0.00  0.00    -0.077 C 
ATOM     19  C   UNL     1      31.132 -22.332 -14.143  0.00  0.00    -0.077 C 
ATOM     20  C   UNL     1      29.571 -24.149 -14.490  0.00  0.00    -0.025 C 
ATOM     21  C   UNL     1      29.777 -22.660 -14.755  0.00  0.00    -0.025 C 
ATOM     22  H   UNL     1      32.185 -23.834 -15.095  0.00  0.00    -0.080 HD
ENDBRANCH  16  17
ENDBRANCH  15  16
ENDBRANCH  14  15
ENDBRANCH  13  14
ENDBRANCH   3  13
BRANCH   9  23
ATOM     23  O   UNL     1      35.852 -18.648 -20.772  0.00  0.00    -0.437 OA
BRANCH  23  31
ATOM     24  F   UNL     1      35.475 -16.201 -19.583  0.00  0.00    -0.201 F 
ATOM     25  N   UNL     1      34.605 -14.130 -23.617  0.00  0.00    -0.316 N 
ATOM     26  C   UNL     1      35.035 -15.196 -21.705  0.00  0.00    +0.045 C 
ATOM     27  C   UNL     1      34.919 -15.361 -23.087  0.00  0.00    +0.050 C 
ATOM     28  C   UNL     1      34.520 -13.195 -22.621  0.00  0.00    +0.026 C 
ATOM     29  C   UNL     1      34.782 -13.824 -21.425  0.00  0.00    +0.014 C 
ATOM     30  C   UNL     1      35.354 -16.317 -20.913  0.00  0.00    +0.176 C 
ATOM     31  C   UNL     1      35.541 -17.544 -21.541  0.00  0.00    +0.174 C 
ATOM     32  C   UNL     1      35.106 -16.595 -23.719  0.00  0.00    +0.018 C 
ATOM     33  C   UNL     1      35.422 -17.693 -22.913  0.00  0.00    +0.041 C 
ATOM     34  C   UNL     1      34.196 -11.787 -22.917  0.00  0.00    +0.047 C 
ATOM     35  H   UNL     1      34.464 -13.948 -24.574  0.00  0.00    +0.152 HD
ENDBRANCH  23  31
ENDBRANCH   9  23
TORSDOF 8
ENDMDL
MODEL 4
REMARK VINA RESULT:     -10.6      2.803      9.893
REMARK  Name = 9933475
REMARK  8 active torsions:
REMARK  status: ('A' for Active; 'I' for Inactive)
REMARK    1  A    between atoms: C_3  and  O_13
REMARK    2  A    between atoms: C_4  and  O_11
REMARK    3  A    between atoms: C_9  and  O_23
REMARK    4  A    between atoms: O_13  and  C_14
REMARK    5  A    between atoms: C_14  and  C_15
REMARK    6  A    between atoms: C_15  and  C_16
REMARK    7  A    between atoms: C_16  and  N_17
REMARK    8  A    between atoms: O_23  and  C_31
REMARK                            x       y       z     vdW  Elec       q    Type
REMARK                         _______ _______ _______ _____ _____    ______ ____
ROOT
ATOM      1  N   UNL     1      30.879 -23.040 -14.832  0.00  0.00    -0.248 NA
ATOM      2  N   UNL     1      32.049 -23.458 -12.768  0.00  0.00    -0.214 NA
ATOM      3  C   UNL     1      33.261 -22.027 -17.414  0.00  0.00    +0.173 C 
ATOM      4  C   UNL     1      34.462 -22.063 -16.724  0.00  0.00    +0.169 C 
ATOM      5  C   UNL     1      32.065 -22.354 -16.777  0.00  0.00    +0.055 C 
ATOM      6  C   UNL     1      33.258 -22.761 -14.741  0.00  0.00    +0.141 C 
ATOM      7  C   UNL     1      32.038 -22.726 -15.436  0.00  0.00    +0.072 C 
ATOM      8  C   UNL     1      34.465 -22.431 -15.383  0.00  0.00    +0.029 C 
ATOM      9  C   UNL     1      33.192 -23.137 -13.402  0.00  0.00    +0.213 C 
ATOM     10  C   UNL     1      30.947 -23.389 -13.531  0.00  0.00    +0.253 C 
ENDROOT
BRANCH   4  11
ATOM     11  O   UNL     1      35.635 -21.744 -17.338  0.00  0.00    -0.469 OA
ATOM     12  C   UNL     1      36.746 -21.438 -16.497  0.00  0.00    +0.253 C 
ENDBRANCH   4  11
BRANCH   3  13
ATOM     13  O   UNL     1      33.233 -21.665 -18.737  0.00  0.00    -0.472 OA
BRANCH  13  14
ATOM     14  C   UNL     1      32.826 -20.337 -19.030  0.00  0.00    +0.203 C 
BRANCH  14  15
ATOM     15  C   UNL     1      33.576 -19.853 -20.263  0.00  0.00    +0.025 C 
BRANCH  15  16
ATOM     16  C   UNL     1      35.039 -19.556 -19.947  0.00  0.00    -0.074 C 
BRANCH  16  17
ATOM     17  N   UNL     1      35.589 -18.627 -20.923  0.00  0.00    +0.387 N 
ATOM     18  C   UNL     1      34.920 -18.718 -22.220  0.00  0.00    -0.077 C 
ATOM     19  C   UNL     1      35.434 -17.231 -20.513  0.00  0.00    -0.077 C 
ATOM     20  C   UNL     1      35.361 -17.443 -22.922  0.00  0.00    -0.025 C 
ATOM     21  C   UNL     1      35.703 -16.466 -21.801  0.00  0.00    -0.025 C 
ATOM     22  H   UNL     1      36.572 -18.890 -20.989  0.00  0.00    -0.080 HD
ENDBRANCH  16  17
ENDBRANCH  15  16
ENDBRANCH  14  15
ENDBRANCH  13  14
ENDBRANCH   3  13
BRANCH   9  23
ATOM     23  O   UNL     1      34.331 -23.202 -12.642  0.00  0.00    -0.437 OA
BRANCH  23  31
ATOM     24  F   UNL     1      36.889 -22.667 -11.795  0.00  0.00    -0.201 F 
ATOM     25  N   UNL     1      38.709 -25.900 -14.544  0.00  0.00    -0.316 N 
ATOM     26  C   UNL     1      37.761 -24.356 -13.243  0.00  0.00    +0.045 C 
ATOM     27  C   UNL     1      37.499 -25.345 -14.194  0.00  0.00    +0.050 C 
ATOM     28  C   UNL     1      39.723 -25.299 -13.849  0.00  0.00    +0.026 C 
ATOM     29  C   UNL     1      39.168 -24.339 -13.034  0.00  0.00    +0.014 C 
ATOM     30  C   UNL     1      36.680 -23.624 -12.711  0.00  0.00    +0.176 C 
ATOM     31  C   UNL     1      35.395 -23.916 -13.156  0.00  0.00    +0.174 C 
ATOM     32  C   UNL     1      36.207 -25.638 -14.643  0.00  0.00    +0.018 C 
ATOM     33  C   UNL     1      35.151 -24.899 -14.101  0.00  0.00    +0.041 C 
ATOM     34  C   UNL     1      41.128 -25.708 -14.036  0.00  0.00    +0.047 C 
ATOM     35  H   UNL     1      38.828 -26.625 -15.199  0.00  0.00    +0.152 HD
ENDBRANCH  23  31
ENDBRANCH   9  23
TORSDOF 8
ENDMDL
MODEL 5
REMARK VINA RESULT:     -10.5      3.494     11.336
REMARK  Name = 9933475
REMARK  8 active torsions:
REMARK  status: ('A' for Active; 'I' for Inactive)
REMARK    1  A    between atoms: C_3  and  O_13
REMARK    2  A    between atoms: C_4  and  O_11
REMARK    3  A    between atoms: C_9  and  O_23
REMARK    4  A    between atoms: O_13  and  C_14
REMARK    5  A    between atoms: C_14  and  C_15
REMARK    6  A    between atoms: C_15  and  C_16
REMARK    7  A    between atoms: C_16  and  N_17
REMARK    8  A    between atoms: O_23  and  C_31
REMARK                            x       y       z     vdW  Elec       q    Type
REMARK                         _______ _______ _______ _____ _____    ______ ____
ROOT
ATOM      1  N   UNL     1      34.791 -14.221 -20.428  0.00  0.00    -0.248 NA
ATOM      2  N   UNL     1      35.687 -16.389 -19.880  0.00  0.00    -0.214 NA
ATOM      3  C   UNL     1      33.812 -14.148 -23.950  0.00  0.00    +0.173 C 
ATOM      4  C   UNL     1      34.142 -15.429 -24.364  0.00  0.00    +0.169 C 
ATOM      5  C   UNL     1      34.031 -13.748 -22.633  0.00  0.00    +0.055 C 
ATOM      6  C   UNL     1      34.917 -15.914 -22.121  0.00  0.00    +0.141 C 
ATOM      7  C   UNL     1      34.585 -14.617 -21.696  0.00  0.00    +0.072 C 
ATOM      8  C   UNL     1      34.697 -16.318 -23.450  0.00  0.00    +0.029 C 
ATOM      9  C   UNL     1      35.468 -16.754 -21.157  0.00  0.00    +0.213 C 
ATOM     10  C   UNL     1      35.331 -15.128 -19.588  0.00  0.00    +0.253 C 
ENDROOT
BRANCH   4  11
ATOM     11  O   UNL     1      33.933 -15.827 -25.649  0.00  0.00    -0.469 OA
ATOM     12  C   UNL     1      33.023 -16.907 -25.854  0.00  0.00    +0.253 C 
ENDBRANCH   4  11
BRANCH   3  13
ATOM     13  O   UNL     1      33.266 -13.254 -24.835  0.00  0.00    -0.472 OA
BRANCH  13  14
ATOM     14  C   UNL     1      34.173 -12.473 -25.600  0.00  0.00    +0.203 C 
BRANCH  14  15
ATOM     15  C   UNL     1      33.796 -11.004 -25.462  0.00  0.00    +0.025 C 
BRANCH  15  16
ATOM     16  C   UNL     1      34.696 -10.288 -24.459  0.00  0.00    -0.074 C 
BRANCH  16  17
ATOM     17  N   UNL     1      33.963  -9.219 -23.797  0.00  0.00    +0.387 N 
ATOM     18  C   UNL     1      33.172  -9.702 -22.666  0.00  0.00    -0.077 C 
ATOM     19  C   UNL     1      34.849  -8.201 -23.233  0.00  0.00    -0.077 C 
ATOM     20  C   UNL     1      32.832  -8.423 -21.916  0.00  0.00    -0.025 C 
ATOM     21  C   UNL     1      33.932  -7.434 -22.292  0.00  0.00    -0.025 C 
ATOM     22  H   UNL     1      33.370  -8.834 -24.531  0.00  0.00    -0.080 HD
ENDBRANCH  16  17
ENDBRANCH  15  16
ENDBRANCH  14  15
ENDBRANCH  13  14
ENDBRANCH   3  13
BRANCH   9  23
ATOM     23  O   UNL     1      35.823 -18.038 -21.477  0.00  0.00    -0.437 OA
BRANCH  23  31
ATOM     24  F   UNL     1      33.384 -19.103 -20.797  0.00  0.00    -0.201 F 
ATOM     25  N   UNL     1      35.228 -21.808 -17.540  0.00  0.00    -0.316 N 
ATOM     26  C   UNL     1      34.407 -20.475 -19.129  0.00  0.00    +0.045 C 
ATOM     27  C   UNL     1      35.581 -20.869 -18.483  0.00  0.00    +0.050 C 
ATOM     28  C   UNL     1      33.877 -22.021 -17.568  0.00  0.00    +0.026 C 
ATOM     29  C   UNL     1      33.340 -21.210 -18.542  0.00  0.00    +0.014 C 
ATOM     30  C   UNL     1      34.488 -19.509 -20.152  0.00  0.00    +0.176 C 
ATOM     31  C   UNL     1      35.735 -18.987 -20.477  0.00  0.00    +0.174 C 
ATOM     32  C   UNL     1      36.836 -20.343 -18.809  0.00  0.00    +0.018 C 
ATOM     33  C   UNL     1      36.892 -19.387 -19.827  0.00  0.00    +0.041 C 
ATOM     34  C   UNL     1      33.233 -22.984 -16.655  0.00  0.00    +0.047 C 
ATOM     35  H   UNL     1      35.858 -22.262 -16.934  0.00  0.00    +0.152 HD
ENDBRANCH  23  31
ENDBRANCH   9  23
TORSDOF 8
ENDMDL
MODEL 6
REMARK VINA RESULT:     -10.1      2.515     10.019
REMARK  Name = 9933475
REMARK  8 active torsions:
REMARK  status: ('A' for Active; 'I' for Inactive)
REMARK    1  A    between atoms: C_3  and  O_13
REMARK    2  A    between atoms: C_4  and  O_11
REMARK    3  A    between atoms: C_9  and  O_23
REMARK    4  A    between atoms: O_13  and  C_14
REMARK    5  A    between atoms: C_14  and  C_15
REMARK    6  A    between atoms: C_15  and  C_16
REMARK    7  A    between atoms: C_16  and  N_17
REMARK    8  A    between atoms: O_23  and  C_31
REMARK                            x       y       z     vdW  Elec       q    Type
REMARK                         _______ _______ _______ _____ _____    ______ ____
ROOT
ATOM      1  N   UNL     1      31.337 -22.395 -16.508  0.00  0.00    -0.248 NA
ATOM      2  N   UNL     1      31.849 -23.124 -14.269  0.00  0.00    -0.214 NA
ATOM      3  C   UNL     1      34.414 -21.388 -18.208  0.00  0.00    +0.173 C 
ATOM      4  C   UNL     1      35.368 -21.613 -17.228  0.00  0.00    +0.169 C 
ATOM      5  C   UNL     1      33.067 -21.651 -17.963  0.00  0.00    +0.055 C 
ATOM      6  C   UNL     1      33.609 -22.370 -15.744  0.00  0.00    +0.141 C 
ATOM      7  C   UNL     1      32.639 -22.145 -16.733  0.00  0.00    +0.072 C 
ATOM      8  C   UNL     1      34.968 -22.105 -15.990  0.00  0.00    +0.029 C 
ATOM      9  C   UNL     1      33.144 -22.863 -14.528  0.00  0.00    +0.213 C 
ATOM     10  C   UNL     1      31.013 -22.871 -15.289  0.00  0.00    +0.253 C 
ENDROOT
BRANCH   4  11
ATOM     11  O   UNL     1      36.686 -21.358 -17.458  0.00  0.00    -0.469 OA
ATOM     12  C   UNL     1      37.533 -21.239 -16.317  0.00  0.00    +0.253 C 
ENDBRANCH   4  11
BRANCH   3  13
ATOM     13  O   UNL     1      34.785 -20.902 -19.436  0.00  0.00    -0.472 OA
BRANCH  13  14
ATOM     14  C   UNL     1      34.057 -19.787 -19.930  0.00  0.00    +0.203 C 
BRANCH  14  15
ATOM     15  C   UNL     1      35.040 -18.759 -20.473  0.00  0.00    +0.025 C 
BRANCH  15  16
ATOM     16  C   UNL     1      35.236 -18.914 -21.978  0.00  0.00    -0.074 C 
BRANCH  16  17
ATOM     17  N   UNL     1      34.650 -17.783 -22.683  0.00  0.00    +0.387 N 
ATOM     18  C   UNL     1      35.548 -16.630 -22.733  0.00  0.00    -0.077 C 
ATOM     19  C   UNL     1      34.350 -18.092 -24.081  0.00  0.00    -0.077 C 
ATOM     20  C   UNL     1      34.922 -15.757 -23.810  0.00  0.00    -0.025 C 
ATOM     21  C   UNL     1      34.131 -16.717 -24.694  0.00  0.00    -0.025 C 
ATOM     22  H   UNL     1      33.803 -17.576 -22.155  0.00  0.00    -0.080 HD
ENDBRANCH  16  17
ENDBRANCH  15  16
ENDBRANCH  14  15
ENDBRANCH  13  14
ENDBRANCH   3  13
BRANCH   9  23
ATOM     23  O   UNL     1      34.016 -23.115 -13.501  0.00  0.00    -0.437 OA
BRANCH  23  31
ATOM     24  F   UNL     1      36.466 -22.360 -12.513  0.00  0.00    -0.201 F 
ATOM     25  N   UNL     1      38.620 -25.907 -14.539  0.00  0.00    -0.316 N 
ATOM     26  C   UNL     1      37.513 -24.218 -13.590  0.00  0.00    +0.045 C 
ATOM     27  C   UNL     1      37.368 -25.350 -14.394  0.00  0.00    +0.050 C 
ATOM     28  C   UNL     1      39.547 -25.169 -13.854  0.00  0.00    +0.026 C 
ATOM     29  C   UNL     1      38.892 -24.116 -13.255  0.00  0.00    +0.014 C 
ATOM     30  C   UNL     1      36.370 -23.454 -13.283  0.00  0.00    +0.176 C 
ATOM     31  C   UNL     1      35.142 -23.859 -13.795  0.00  0.00    +0.174 C 
ATOM     32  C   UNL     1      36.133 -25.758 -14.910  0.00  0.00    +0.018 C 
ATOM     33  C   UNL     1      35.013 -24.985 -14.593  0.00  0.00    +0.041 C 
ATOM     34  C   UNL     1      40.972 -25.548 -13.843  0.00  0.00    +0.047 C 
ATOM     35  H   UNL     1      38.818 -26.719 -15.058  0.00  0.00    +0.152 HD
ENDBRANCH  23  31
ENDBRANCH   9  23
TORSDOF 8
ENDMDL
MODEL 7
REMARK VINA RESULT:     -10.1      4.682      9.302
REMARK  Name = 9933475
REMARK  8 active torsions:
REMARK  status: ('A' for Active; 'I' for Inactive)
REMARK    1  A    between atoms: C_3  and  O_13
REMARK    2  A    between atoms: C_4  and  O_11
REMARK    3  A    between atoms: C_9  and  O_23
REMARK    4  A    between atoms: O_13  and  C_14
REMARK    5  A    between atoms: C_14  and  C_15
REMARK    6  A    between atoms: C_15  and  C_16
REMARK    7  A    between atoms: C_16  and  N_17
REMARK    8  A    between atoms: O_23  and  C_31
REMARK                            x       y       z     vdW  Elec       q    Type
REMARK                         _______ _______ _______ _____ _____    ______ ____
ROOT
ATOM      1  N   UNL     1      33.647 -12.673 -25.924  0.00  0.00    -0.248 NA
ATOM      2  N   UNL     1      33.851 -10.374 -25.233  0.00  0.00    -0.214 NA
ATOM      3  C   UNL     1      34.373 -14.877 -23.098  0.00  0.00    +0.173 C 
ATOM      4  C   UNL     1      34.648 -13.967 -22.090  0.00  0.00    +0.169 C 
ATOM      5  C   UNL     1      34.039 -14.440 -24.379  0.00  0.00    +0.055 C 
ATOM      6  C   UNL     1      34.250 -12.165 -23.660  0.00  0.00    +0.141 C 
ATOM      7  C   UNL     1      33.970 -13.083 -24.685  0.00  0.00    +0.072 C 
ATOM      8  C   UNL     1      34.588 -12.605 -22.368  0.00  0.00    +0.029 C 
ATOM      9  C   UNL     1      34.172 -10.818 -24.004  0.00  0.00    +0.213 C 
ATOM     10  C   UNL     1      33.604 -11.342 -26.131  0.00  0.00    +0.253 C 
ENDROOT
BRANCH   4  11
ATOM     11  O   UNL     1      34.976 -14.385 -20.836  0.00  0.00    -0.469 OA
ATOM     12  C   UNL     1      33.931 -14.408 -19.865  0.00  0.00    +0.253 C 
ENDBRANCH   4  11
BRANCH   3  13
ATOM     13  O   UNL     1      34.429 -16.224 -22.848  0.00  0.00    -0.472 OA
BRANCH  13  14
ATOM     14  C   UNL     1      35.719 -16.818 -22.813  0.00  0.00    +0.203 C 
BRANCH  14  15
ATOM     15  C   UNL     1      35.617 -18.177 -22.135  0.00  0.00    +0.025 C 
BRANCH  15  16
ATOM     16  C   UNL     1      36.367 -18.198 -20.807  0.00  0.00    -0.074 C 
BRANCH  16  17
ATOM     17  N   UNL     1      35.630 -18.974 -19.822  0.00  0.00    +0.387 N 
ATOM     18  C   UNL     1      34.317 -19.394 -20.310  0.00  0.00    -0.077 C 
ATOM     19  C   UNL     1      36.316 -20.214 -19.461  0.00  0.00    -0.077 C 
ATOM     20  C   UNL     1      33.915 -20.476 -19.320  0.00  0.00    -0.025 C 
ATOM     21  C   UNL     1      35.228 -21.013 -18.758  0.00  0.00    -0.025 C 
ATOM     22  H   UNL     1      35.549 -18.345 -19.023  0.00  0.00    -0.080 HD
ENDBRANCH  16  17
ENDBRANCH  15  16
ENDBRANCH  14  15
ENDBRANCH  13  14
ENDBRANCH   3  13
BRANCH   9  23
ATOM     23  O   UNL     1      34.426  -9.848 -23.070  0.00  0.00    -0.437 OA
BRANCH  23  31
ATOM     24  F   UNL     1      35.141  -7.615 -24.502  0.00  0.00    -0.201 F 
ATOM     25  N   UNL     1      31.343  -5.317 -23.232  0.00  0.00    -0.316 N 
ATOM     26  C   UNL     1      33.154  -6.487 -23.804  0.00  0.00    +0.045 C 
ATOM     27  C   UNL     1      31.968  -6.532 -23.067  0.00  0.00    +0.050 C 
ATOM     28  C   UNL     1      32.089  -4.508 -24.045  0.00  0.00    +0.026 C 
ATOM     29  C   UNL     1      33.217  -5.204 -24.416  0.00  0.00    +0.014 C 
ATOM     30  C   UNL     1      33.994  -7.618 -23.807  0.00  0.00    +0.176 C 
ATOM     31  C   UNL     1      33.608  -8.736 -23.074  0.00  0.00    +0.174 C 
ATOM     32  C   UNL     1      31.580  -7.656 -22.330  0.00  0.00    +0.018 C 
ATOM     33  C   UNL     1      32.429  -8.766 -22.347  0.00  0.00    +0.041 C 
ATOM     34  C   UNL     1      31.644  -3.144 -24.386  0.00  0.00    +0.047 C 
ATOM     35  H   UNL     1      30.482  -5.067 -22.824  0.00  0.00    +0.152 HD
ENDBRANCH  23  31
ENDBRANCH   9  23
TORSDOF 8
ENDMDL
MODEL 8
REMARK VINA RESULT:     -10.1      5.373      9.835
REMARK  Name = 9933475
REMARK  8 active torsions:
REMARK  status: ('A' for Active; 'I' for Inactive)
REMARK    1  A    between atoms: C_3  and  O_13
REMARK    2  A    between atoms: C_4  and  O_11
REMARK    3  A    between atoms: C_9  and  O_23
REMARK    4  A    between atoms: O_13  and  C_14
REMARK    5  A    between atoms: C_14  and  C_15
REMARK    6  A    between atoms: C_15  and  C_16
REMARK    7  A    between atoms: C_16  and  N_17
REMARK    8  A    between atoms: O_23  and  C_31
REMARK                            x       y       z     vdW  Elec       q    Type
REMARK                         _______ _______ _______ _____ _____    ______ ____
ROOT
ATOM      1  N   UNL     1      32.251 -12.371 -19.051  0.00  0.00    -0.248 NA
ATOM      2  N   UNL     1      31.170 -10.308 -19.669  0.00  0.00    -0.214 NA
ATOM      3  C   UNL     1      34.126 -13.681 -21.903  0.00  0.00    +0.173 C 
ATOM      4  C   UNL     1      33.875 -12.724 -22.874  0.00  0.00    +0.169 C 
ATOM      5  C   UNL     1      33.580 -13.559 -20.626  0.00  0.00    +0.055 C 
ATOM      6  C   UNL     1      32.520 -11.512 -21.272  0.00  0.00    +0.141 C 
ATOM      7  C   UNL     1      32.771 -12.478 -20.286  0.00  0.00    +0.072 C 
ATOM      8  C   UNL     1      33.069 -11.634 -22.561  0.00  0.00    +0.029 C 
ATOM      9  C   UNL     1      31.706 -10.446 -20.896  0.00  0.00    +0.213 C 
ATOM     10  C   UNL     1      31.479 -11.292 -18.809  0.00  0.00    +0.253 C 
ENDROOT
BRANCH   4  11
ATOM     11  O   UNL     1      34.403 -12.835 -24.124  0.00  0.00    -0.469 OA
ATOM     12  C   UNL     1      33.594 -13.465 -25.116  0.00  0.00    +0.253 C 
ENDBRANCH   4  11
BRANCH   3  13
ATOM     13  O   UNL     1      34.915 -14.765 -22.189  0.00  0.00    -0.472 OA
BRANCH  13  14
ATOM     14  C   UNL     1      35.214 -15.643 -21.112  0.00  0.00    +0.203 C 
BRANCH  14  15
ATOM     15  C   UNL     1      35.441 -17.042 -21.666  0.00  0.00    +0.025 C 
BRANCH  15  16
ATOM     16  C   UNL     1      36.473 -17.809 -20.845  0.00  0.00    -0.074 C 
BRANCH  16  17
ATOM     17  N   UNL     1      35.809 -18.694 -19.899  0.00  0.00    +0.387 N 
ATOM     18  C   UNL     1      34.537 -19.203 -20.408  0.00  0.00    -0.077 C 
ATOM     19  C   UNL     1      36.603 -19.886 -19.599  0.00  0.00    -0.077 C 
ATOM     20  C   UNL     1      34.234 -20.363 -19.472  0.00  0.00    -0.025 C 
ATOM     21  C   UNL     1      35.591 -20.810 -18.936  0.00  0.00    -0.025 C 
ATOM     22  H   UNL     1      35.677 -18.115 -19.070  0.00  0.00    -0.080 HD
ENDBRANCH  16  17
ENDBRANCH  15  16
ENDBRANCH  14  15
ENDBRANCH  13  14
ENDBRANCH   3  13
BRANCH   9  23
ATOM     23  O   UNL     1      31.405  -9.452 -21.790  0.00  0.00    -0.437 OA
BRANCH  23  31
ATOM     24  F   UNL     1      31.204  -7.417 -23.624  0.00  0.00    -0.201 F 
ATOM     25  N   UNL     1      32.606  -4.241 -20.580  0.00  0.00    -0.316 N 
ATOM     26  C   UNL     1      31.936  -5.829 -21.996  0.00  0.00    +0.045 C 
ATOM     27  C   UNL     1      32.354  -5.591 -20.685  0.00  0.00    +0.050 C 
ATOM     28  C   UNL     1      32.360  -3.620 -21.774  0.00  0.00    +0.026 C 
ATOM     29  C   UNL     1      31.943  -4.576 -22.671  0.00  0.00    +0.014 C 
ATOM     30  C   UNL     1      31.610  -7.146 -22.375  0.00  0.00    +0.176 C 
ATOM     31  C   UNL     1      31.720  -8.158 -21.427  0.00  0.00    +0.174 C 
ATOM     32  C   UNL     1      32.465  -6.608 -19.731  0.00  0.00    +0.018 C 
ATOM     33  C   UNL     1      32.138  -7.907 -20.130  0.00  0.00    +0.041 C 
ATOM     34  C   UNL     1      32.551  -2.166 -21.935  0.00  0.00    +0.047 C 
ATOM     35  H   UNL     1      32.915  -3.788 -19.762  0.00  0.00    +0.152 HD
ENDBRANCH  23  31
ENDBRANCH   9  23
TORSDOF 8
ENDMDL
MODEL 9
REMARK VINA RESULT:     -10.1      2.479      4.265
REMARK  Name = 9933475
REMARK  8 active torsions:
REMARK  status: ('A' for Active; 'I' for Inactive)
REMARK    1  A    between atoms: C_3  and  O_13
REMARK    2  A    between atoms: C_4  and  O_11
REMARK    3  A    between atoms: C_9  and  O_23
REMARK    4  A    between atoms: O_13  and  C_14
REMARK    5  A    between atoms: C_14  and  C_15
REMARK    6  A    between atoms: C_15  and  C_16
REMARK    7  A    between atoms: C_16  and  N_17
REMARK    8  A    between atoms: O_23  and  C_31
REMARK                            x       y       z     vdW  Elec       q    Type
REMARK                         _______ _______ _______ _____ _____    ______ ____
ROOT
ATOM      1  N   UNL     1      37.595 -21.662 -15.141  0.00  0.00    -0.248 NA
ATOM      2  N   UNL     1      37.174 -20.963 -17.409  0.00  0.00    -0.214 NA
ATOM      3  C   UNL     1      34.570 -23.156 -13.732  0.00  0.00    +0.173 C 
ATOM      4  C   UNL     1      33.681 -23.054 -14.791  0.00  0.00    +0.169 C 
ATOM      5  C   UNL     1      35.878 -22.689 -13.854  0.00  0.00    +0.055 C 
ATOM      6  C   UNL     1      35.427 -22.007 -16.105  0.00  0.00    +0.141 C 
ATOM      7  C   UNL     1      36.331 -22.108 -15.036  0.00  0.00    +0.072 C 
ATOM      8  C   UNL     1      34.107 -22.477 -15.983  0.00  0.00    +0.029 C 
ATOM      9  C   UNL     1      35.915 -21.420 -17.269  0.00  0.00    +0.213 C 
ATOM     10  C   UNL     1      37.948 -21.113 -16.322  0.00  0.00    +0.253 C 
ENDROOT
BRANCH   4  11
ATOM     11  O   UNL     1      32.402 -23.507 -14.680  0.00  0.00    -0.469 OA
ATOM     12  C   UNL     1      31.382 -22.733 -15.310  0.00  0.00    +0.253 C 
ENDBRANCH   4  11
BRANCH   3  13
ATOM     13  O   UNL     1      34.172 -23.719 -12.547  0.00  0.00    -0.472 OA
BRANCH  13  14
ATOM     14  C   UNL     1      34.862 -23.304 -11.376  0.00  0.00    +0.203 C 
BRANCH  14  15
ATOM     15  C   UNL     1      35.820 -24.408 -10.952  0.00  0.00    +0.025 C 
BRANCH  15  16
ATOM     16  C   UNL     1      37.259 -23.906 -10.888  0.00  0.00    -0.074 C 
BRANCH  16  17
ATOM     17  N   UNL     1      38.135 -24.782 -11.653  0.00  0.00    +0.387 N 
ATOM     18  C   UNL     1      37.399 -25.617 -12.601  0.00  0.00    -0.077 C 
ATOM     19  C   UNL     1      39.096 -24.038 -12.467  0.00  0.00    -0.077 C 
ATOM     20  C   UNL     1      38.493 -26.129 -13.525  0.00  0.00    -0.025 C 
ATOM     21  C   UNL     1      39.611 -25.094 -13.435  0.00  0.00    -0.025 C 
ATOM     22  H   UNL     1      38.603 -25.344 -10.942  0.00  0.00    -0.080 HD
ENDBRANCH  16  17
ENDBRANCH  15  16
ENDBRANCH  14  15
ENDBRANCH  13  14
ENDBRANCH   3  13
BRANCH   9  23
ATOM     23  O   UNL     1      35.107 -21.279 -18.367  0.00  0.00    -0.437 OA
BRANCH  23  31
ATOM     24  F   UNL     1      33.274 -20.377 -20.204  0.00  0.00    -0.201 F 
ATOM     25  N   UNL     1      36.328 -17.533 -22.180  0.00  0.00    -0.316 N 
ATOM     26  C   UNL     1      34.907 -18.929 -21.177  0.00  0.00    +0.045 C 
ATOM     27  C   UNL     1      36.220 -18.452 -21.161  0.00  0.00    +0.050 C 
ATOM     28  C   UNL     1      35.134 -17.412 -22.837  0.00  0.00    +0.026 C 
ATOM     29  C   UNL     1      34.233 -18.263 -22.238  0.00  0.00    +0.014 C 
ATOM     30  C   UNL     1      34.525 -19.893 -20.223  0.00  0.00    +0.176 C 
ATOM     31  C   UNL     1      35.472 -20.332 -19.304  0.00  0.00    +0.174 C 
ATOM     32  C   UNL     1      37.173 -18.893 -20.236  0.00  0.00    +0.018 C 
ATOM     33  C   UNL     1      36.771 -19.850 -19.301  0.00  0.00    +0.041 C 
ATOM     34  C   UNL     1      34.976 -16.489 -23.976  0.00  0.00    +0.047 C 
ATOM     35  H   UNL     1      37.147 -17.033 -22.403  0.00  0.00    +0.152 HD
ENDBRANCH  23  31
ENDBRANCH   9  23
TORSDOF 8
ENDMDL
