MODEL 1
REMARK VINA RESULT:     -13.0      0.000      0.000
REMARK  Name = 216239
REMARK  6 active torsions:
REMARK  status: ('A' for Active; 'I' for Inactive)
REMARK    1  A    between atoms: C_1  and  N_9
REMARK    2  A    between atoms: C_2  and  O_24
REMARK    3  A    between atoms: N_8  and  C_14
REMARK    4  A    between atoms: C_15  and  C_23
REMARK    5  A    between atoms: O_24  and  C_26
REMARK    6  A    between atoms: C_28  and  C_33
REMARK                            x       y       z     vdW  Elec       q    Type
REMARK                         _______ _______ _______ _____ _____    ______ ____
ROOT
ATOM      1  C   UNL     1      35.724 -20.246 -19.189  0.00  0.00    +0.052 C 
ATOM      2  C   UNL     1      35.719 -18.320 -21.180  0.00  0.00    +0.145 C 
ATOM      3  C   UNL     1      34.534 -19.928 -19.821  0.00  0.00    +0.018 C 
ATOM      4  C   UNL     1      36.912 -19.623 -19.531  0.00  0.00    +0.018 C 
ATOM      5  C   UNL     1      34.532 -18.958 -20.824  0.00  0.00    +0.039 C 
ATOM      6  C   UNL     1      36.910 -18.652 -20.533  0.00  0.00    +0.039 C 
ENDROOT
BRANCH   1   9
ATOM      7  O   UNL     1      37.212 -20.339 -16.601  0.00  0.00    -0.252 OA
ATOM      8  N   UNL     1      36.165 -22.401 -16.230  0.00  0.00    -0.268 N 
ATOM      9  N   UNL     1      35.726 -21.230 -18.173  0.00  0.00    -0.268 N 
ATOM     10  C   UNL     1      36.448 -21.225 -16.967  0.00  0.00    +0.308 C 
ATOM     11  H   UNL     1      35.530 -23.027 -16.650  0.00  0.00    +0.156 HD
ATOM     12  H   UNL     1      35.152 -22.014 -18.328  0.00  0.00    +0.156 HD
BRANCH   8  14
ATOM     13 CL   UNL     1      38.253 -24.036 -10.948  0.00  0.00    -0.082 Cl
ATOM     14  C   UNL     1      36.665 -22.792 -14.988  0.00  0.00    +0.052 C 
ATOM     15  C   UNL     1      38.354 -23.909 -13.669  0.00  0.00    +0.083 C 
ATOM     16  C   UNL     1      37.853 -23.518 -14.911  0.00  0.00    +0.019 C 
ATOM     17  C   UNL     1      35.976 -22.457 -13.822  0.00  0.00    +0.016 C 
ATOM     18  C   UNL     1      37.665 -23.573 -12.503  0.00  0.00    +0.062 C 
ATOM     19  C   UNL     1      36.476 -22.847 -12.580  0.00  0.00    +0.013 C 
BRANCH  15  23
ATOM     20  F   UNL     1      40.218 -24.828 -14.852  0.00  0.00    -0.166 F 
ATOM     21  F   UNL     1      40.586 -24.117 -12.837  0.00  0.00    -0.166 F 
ATOM     22  F   UNL     1      39.458 -25.949 -13.151  0.00  0.00    -0.166 F 
ATOM     23  C   UNL     1      39.631 -24.684 -13.629  0.00  0.00    +0.419 C 
ENDBRANCH  15  23
ENDBRANCH   8  14
ENDBRANCH   1   9
BRANCH   2  24
ATOM     24  O   UNL     1      35.716 -17.373 -22.157  0.00  0.00    -0.453 OA
BRANCH  24  26
ATOM     25  N   UNL     1      34.465 -13.545 -21.127  0.00  0.00    -0.239 NA
ATOM     26  C   UNL     1      35.300 -16.097 -21.814  0.00  0.00    +0.149 C 
ATOM     27  C   UNL     1      34.994 -15.197 -22.812  0.00  0.00    +0.061 C 
ATOM     28  C   UNL     1      34.581 -13.935 -22.417  0.00  0.00    +0.137 C 
ATOM     29  C   UNL     1      35.201 -15.756 -20.482  0.00  0.00    +0.058 C 
ATOM     30  C   UNL     1      34.780 -14.468 -20.191  0.00  0.00    +0.102 C 
BRANCH  28  33
ATOM     31  O   UNL     1      33.646 -13.253 -24.457  0.00  0.00    -0.268 OA
ATOM     32  N   UNL     1      34.587 -11.606 -23.123  0.00  0.00    -0.298 N 
ATOM     33  C   UNL     1      34.239 -12.932 -23.411  0.00  0.00    +0.264 C 
ATOM     34  C   UNL     1      34.295 -10.495 -24.000  0.00  0.00    +0.111 C 
ATOM     35  H   UNL     1      35.056 -11.421 -22.278  0.00  0.00    +0.150 HD
ENDBRANCH  28  33
ENDBRANCH  24  26
ENDBRANCH   2  24
TORSDOF 6
ENDMDL
MODEL 2
REMARK VINA RESULT:     -12.3      6.007     11.891
REMARK  Name = 216239
REMARK  6 active torsions:
REMARK  status: ('A' for Active; 'I' for Inactive)
REMARK    1  A    between atoms: C_1  and  N_9
REMARK    2  A    between atoms: C_2  and  O_24
REMARK    3  A    between atoms: N_8  and  C_14
REMARK    4  A    between atoms: C_15  and  C_23
REMARK    5  A    between atoms: O_24  and  C_26
REMARK    6  A    between atoms: C_28  and  C_33
REMARK                            x       y       z     vdW  Elec       q    Type
REMARK                         _______ _______ _______ _____ _____    ______ ____
ROOT
ATOM      1  C   UNL     1      35.207 -21.347 -18.008  0.00  0.00    +0.052 C 
ATOM      2  C   UNL     1      34.413 -22.837 -15.812  0.00  0.00    +0.145 C 
ATOM      3  C   UNL     1      36.020 -21.390 -16.889  0.00  0.00    +0.018 C 
ATOM      4  C   UNL     1      34.004 -22.033 -18.054  0.00  0.00    +0.018 C 
ATOM      5  C   UNL     1      35.621 -22.140 -15.783  0.00  0.00    +0.039 C 
ATOM      6  C   UNL     1      33.604 -22.783 -16.947  0.00  0.00    +0.039 C 
ENDROOT
BRANCH   1   9
ATOM      7  O   UNL     1      33.638 -19.493 -19.746  0.00  0.00    -0.252 OA
ATOM      8  N   UNL     1      35.623 -19.155 -20.943  0.00  0.00    -0.268 N 
ATOM      9  N   UNL     1      35.612 -20.586 -19.129  0.00  0.00    -0.268 N 
ATOM     10  C   UNL     1      34.830 -19.724 -19.916  0.00  0.00    +0.308 C 
ATOM     11  H   UNL     1      36.568 -19.434 -20.958  0.00  0.00    +0.156 HD
ATOM     12  H   UNL     1      36.557 -20.669 -19.390  0.00  0.00    +0.156 HD
BRANCH   8  14
ATOM     13 CL   UNL     1      34.019 -15.369 -25.189  0.00  0.00    -0.082 Cl
ATOM     14  C   UNL     1      35.245 -18.254 -21.938  0.00  0.00    +0.052 C 
ATOM     15  C   UNL     1      34.803 -15.989 -22.653  0.00  0.00    +0.083 C 
ATOM     16  C   UNL     1      35.181 -16.890 -21.657  0.00  0.00    +0.019 C 
ATOM     17  C   UNL     1      34.930 -18.719 -23.216  0.00  0.00    +0.016 C 
ATOM     18  C   UNL     1      34.488 -16.453 -23.931  0.00  0.00    +0.062 C 
ATOM     19  C   UNL     1      34.553 -17.818 -24.212  0.00  0.00    +0.013 C 
BRANCH  15  23
ATOM     20  F   UNL     1      35.514 -13.755 -23.130  0.00  0.00    -0.166 F 
ATOM     21  F   UNL     1      33.493 -14.005 -22.383  0.00  0.00    -0.166 F 
ATOM     22  F   UNL     1      35.186 -14.279 -21.046  0.00  0.00    -0.166 F 
ATOM     23  C   UNL     1      34.749 -14.534 -22.312  0.00  0.00    +0.419 C 
ENDBRANCH  15  23
ENDBRANCH   8  14
ENDBRANCH   1   9
BRANCH   2  24
ATOM     24  O   UNL     1      34.023 -23.568 -14.732  0.00  0.00    -0.453 OA
BRANCH  24  26
ATOM     25  N   UNL     1      36.920 -24.559 -11.922  0.00  0.00    -0.239 NA
ATOM     26  C   UNL     1      34.988 -23.899 -13.796  0.00  0.00    +0.149 C 
ATOM     27  C   UNL     1      36.120 -24.571 -14.204  0.00  0.00    +0.061 C 
ATOM     28  C   UNL     1      37.056 -24.877 -13.229  0.00  0.00    +0.137 C 
ATOM     29  C   UNL     1      34.795 -23.548 -12.477  0.00  0.00    +0.058 C 
ATOM     30  C   UNL     1      35.790 -23.901 -11.579  0.00  0.00    +0.102 C 
BRANCH  28  33
ATOM     31  O   UNL     1      38.253 -26.806 -13.817  0.00  0.00    -0.268 OA
ATOM     32  N   UNL     1      39.450 -24.826 -13.663  0.00  0.00    -0.298 N 
ATOM     33  C   UNL     1      38.276 -25.584 -13.582  0.00  0.00    +0.264 C 
ATOM     34  C   UNL     1      40.736 -25.380 -14.024  0.00  0.00    +0.111 C 
ATOM     35  H   UNL     1      39.398 -23.863 -13.464  0.00  0.00    +0.150 HD
ENDBRANCH  28  33
ENDBRANCH  24  26
ENDBRANCH   2  24
TORSDOF 6
ENDMDL
MODEL 3
REMARK VINA RESULT:     -12.1      1.681      2.194
REMARK  Name = 216239
REMARK  6 active torsions:
REMARK  status: ('A' for Active; 'I' for Inactive)
REMARK    1  A    between atoms: C_1  and  N_9
REMARK    2  A    between atoms: C_2  and  O_24
REMARK    3  A    between atoms: N_8  and  C_14
REMARK    4  A    between atoms: C_15  and  C_23
REMARK    5  A    between atoms: O_24  and  C_26
REMARK    6  A    between atoms: C_28  and  C_33
REMARK                            x       y       z     vdW  Elec       q    Type
REMARK                         _______ _______ _______ _____ _____    ______ ____
ROOT
ATOM      1  C   UNL     1      36.537 -19.188 -19.778  0.00  0.00    +0.052 C 
ATOM      2  C   UNL     1      35.666 -18.280 -22.245  0.00  0.00    +0.145 C 
ATOM      3  C   UNL     1      35.245 -19.471 -20.186  0.00  0.00    +0.018 C 
ATOM      4  C   UNL     1      37.404 -18.461 -20.576  0.00  0.00    +0.018 C 
ATOM      5  C   UNL     1      34.806 -19.014 -21.429  0.00  0.00    +0.039 C 
ATOM      6  C   UNL     1      36.965 -18.002 -21.819  0.00  0.00    +0.039 C 
ENDROOT
BRANCH   1   9
ATOM      7  O   UNL     1      35.763 -21.630 -18.242  0.00  0.00    -0.252 OA
ATOM      8  N   UNL     1      37.271 -20.909 -16.601  0.00  0.00    -0.268 N 
ATOM      9  N   UNL     1      36.981 -19.652 -18.517  0.00  0.00    -0.268 N 
ATOM     10  C   UNL     1      36.583 -20.815 -17.835  0.00  0.00    +0.308 C 
ATOM     11  H   UNL     1      37.901 -20.178 -16.405  0.00  0.00    +0.156 HD
ATOM     12  H   UNL     1      37.650 -19.093 -18.062  0.00  0.00    +0.156 HD
BRANCH   8  14
ATOM     13 CL   UNL     1      36.816 -25.092 -12.449  0.00  0.00    -0.082 Cl
ATOM     14  C   UNL     1      37.174 -21.900 -15.623  0.00  0.00    +0.052 C 
ATOM     15  C   UNL     1      38.191 -23.659 -14.317  0.00  0.00    +0.083 C 
ATOM     16  C   UNL     1      38.289 -22.670 -15.295  0.00  0.00    +0.019 C 
ATOM     17  C   UNL     1      35.959 -22.119 -14.973  0.00  0.00    +0.016 C 
ATOM     18  C   UNL     1      36.976 -23.879 -13.666  0.00  0.00    +0.062 C 
ATOM     19  C   UNL     1      35.861 -23.108 -13.994  0.00  0.00    +0.013 C 
BRANCH  15  23
ATOM     20  F   UNL     1      39.238 -25.804 -14.163  0.00  0.00    -0.166 F 
ATOM     21  F   UNL     1      40.493 -24.138 -14.757  0.00  0.00    -0.166 F 
ATOM     22  F   UNL     1      39.810 -24.302 -12.699  0.00  0.00    -0.166 F 
ATOM     23  C   UNL     1      39.410 -24.462 -13.993  0.00  0.00    +0.419 C 
ENDBRANCH  15  23
ENDBRANCH   8  14
ENDBRANCH   1   9
BRANCH   2  24
ATOM     24  O   UNL     1      35.237 -17.832 -23.457  0.00  0.00    -0.453 OA
BRANCH  24  26
ATOM     25  N   UNL     1      34.028 -13.866 -23.734  0.00  0.00    -0.239 NA
ATOM     26  C   UNL     1      34.834 -16.511 -23.548  0.00  0.00    +0.149 C 
ATOM     27  C   UNL     1      34.696 -15.767 -22.397  0.00  0.00    +0.061 C 
ATOM     28  C   UNL     1      34.291 -14.450 -22.542  0.00  0.00    +0.137 C 
ATOM     29  C   UNL     1      34.579 -15.969 -24.791  0.00  0.00    +0.058 C 
ATOM     30  C   UNL     1      34.179 -14.643 -24.829  0.00  0.00    +0.102 C 
BRANCH  28  33
ATOM     31  O   UNL     1      35.078 -13.390 -20.604  0.00  0.00    -0.268 OA
ATOM     32  N   UNL     1      32.862 -13.026 -21.181  0.00  0.00    -0.298 N 
ATOM     33  C   UNL     1      34.124 -13.601 -21.374  0.00  0.00    +0.264 C 
ATOM     34  C   UNL     1      32.547 -12.143 -20.081  0.00  0.00    +0.111 C 
ATOM     35  H   UNL     1      32.151 -13.235 -21.829  0.00  0.00    +0.150 HD
ENDBRANCH  28  33
ENDBRANCH  24  26
ENDBRANCH   2  24
TORSDOF 6
ENDMDL
MODEL 4
REMARK VINA RESULT:     -11.9      8.595     13.870
REMARK  Name = 216239
REMARK  6 active torsions:
REMARK  status: ('A' for Active; 'I' for Inactive)
REMARK    1  A    between atoms: C_1  and  N_9
REMARK    2  A    between atoms: C_2  and  O_24
REMARK    3  A    between atoms: N_8  and  C_14
REMARK    4  A    between atoms: C_15  and  C_23
REMARK    5  A    between atoms: O_24  and  C_26
REMARK    6  A    between atoms: C_28  and  C_33
REMARK                            x       y       z     vdW  Elec       q    Type
REMARK                         _______ _______ _______ _____ _____    ______ ____
ROOT
ATOM      1  C   UNL     1      33.642 -13.239 -22.320  0.00  0.00    +0.052 C 
ATOM      2  C   UNL     1      34.966 -15.627 -22.788  0.00  0.00    +0.145 C 
ATOM      3  C   UNL     1      34.362 -13.827 -21.294  0.00  0.00    +0.018 C 
ATOM      4  C   UNL     1      33.570 -13.819 -23.576  0.00  0.00    +0.018 C 
ATOM      5  C   UNL     1      35.029 -15.030 -21.529  0.00  0.00    +0.039 C 
ATOM      6  C   UNL     1      34.236 -15.022 -23.811  0.00  0.00    +0.039 C 
ENDROOT
BRANCH   1   9
ATOM      7  O   UNL     1      34.287 -10.469 -23.229  0.00  0.00    -0.252 OA
ATOM      8  N   UNL     1      32.369  -9.788 -22.069  0.00  0.00    -0.268 N 
ATOM      9  N   UNL     1      32.966 -12.020 -22.080  0.00  0.00    -0.268 N 
ATOM     10  C   UNL     1      33.313 -10.736 -22.534  0.00  0.00    +0.308 C 
ATOM     11  H   UNL     1      31.637 -10.149 -21.518  0.00  0.00    +0.156 HD
ATOM     12  H   UNL     1      32.154 -12.077 -21.528  0.00  0.00    +0.156 HD
BRANCH   8  14
ATOM     13 CL   UNL     1      32.252  -3.958 -23.034  0.00  0.00    -0.082 Cl
ATOM     14  C   UNL     1      32.338  -8.410 -22.287  0.00  0.00    +0.052 C 
ATOM     15  C   UNL     1      32.054  -6.164 -21.446  0.00  0.00    +0.083 C 
ATOM     16  C   UNL     1      32.083  -7.541 -21.227  0.00  0.00    +0.019 C 
ATOM     17  C   UNL     1      32.563  -7.903 -23.567  0.00  0.00    +0.016 C 
ATOM     18  C   UNL     1      32.278  -5.656 -22.725  0.00  0.00    +0.062 C 
ATOM     19  C   UNL     1      32.534  -6.526 -23.786  0.00  0.00    +0.013 C 
BRANCH  15  23
ATOM     20  F   UNL     1      32.710  -4.281 -20.125  0.00  0.00    -0.166 F 
ATOM     21  F   UNL     1      30.581  -4.619 -20.367  0.00  0.00    -0.166 F 
ATOM     22  F   UNL     1      31.752  -5.941 -19.098  0.00  0.00    -0.166 F 
ATOM     23  C   UNL     1      31.779  -5.266 -20.283  0.00  0.00    +0.419 C 
ENDBRANCH  15  23
ENDBRANCH   8  14
ENDBRANCH   1   9
BRANCH   2  24
ATOM     24  O   UNL     1      35.615 -16.801 -23.017  0.00  0.00    -0.453 OA
BRANCH  24  26
ATOM     25  N   UNL     1      36.213 -19.344 -19.784  0.00  0.00    -0.239 NA
ATOM     26  C   UNL     1      35.813 -17.648 -21.940  0.00  0.00    +0.149 C 
ATOM     27  C   UNL     1      34.745 -18.357 -21.434  0.00  0.00    +0.061 C 
ATOM     28  C   UNL     1      34.997 -19.191 -20.356  0.00  0.00    +0.137 C 
ATOM     29  C   UNL     1      37.076 -17.763 -21.397  0.00  0.00    +0.058 C 
ATOM     30  C   UNL     1      37.223 -18.623 -20.321  0.00  0.00    +0.102 C 
BRANCH  28  33
ATOM     31  O   UNL     1      32.767 -19.903 -20.225  0.00  0.00    -0.268 OA
ATOM     32  N   UNL     1      34.256 -20.808 -18.695  0.00  0.00    -0.298 N 
ATOM     33  C   UNL     1      33.922 -19.972 -19.768  0.00  0.00    +0.264 C 
ATOM     34  C   UNL     1      33.304 -21.662 -18.021  0.00  0.00    +0.111 C 
ATOM     35  H   UNL     1      35.190 -20.815 -18.383  0.00  0.00    +0.150 HD
ENDBRANCH  28  33
ENDBRANCH  24  26
ENDBRANCH   2  24
TORSDOF 6
ENDMDL
MODEL 5
REMARK VINA RESULT:     -11.8      7.540     12.897
REMARK  Name = 216239
REMARK  6 active torsions:
REMARK  status: ('A' for Active; 'I' for Inactive)
REMARK    1  A    between atoms: C_1  and  N_9
REMARK    2  A    between atoms: C_2  and  O_24
REMARK    3  A    between atoms: N_8  and  C_14
REMARK    4  A    between atoms: C_15  and  C_23
REMARK    5  A    between atoms: O_24  and  C_26
REMARK    6  A    between atoms: C_28  and  C_33
REMARK                            x       y       z     vdW  Elec       q    Type
REMARK                         _______ _______ _______ _____ _____    ______ ____
ROOT
ATOM      1  C   UNL     1      35.033 -15.768 -22.243  0.00  0.00    +0.052 C 
ATOM      2  C   UNL     1      35.916 -18.148 -21.133  0.00  0.00    +0.145 C 
ATOM      3  C   UNL     1      35.285 -16.849 -23.070  0.00  0.00    +0.018 C 
ATOM      4  C   UNL     1      35.213 -15.850 -20.872  0.00  0.00    +0.018 C 
ATOM      5  C   UNL     1      35.730 -18.047 -22.512  0.00  0.00    +0.039 C 
ATOM      6  C   UNL     1      35.659 -17.049 -20.313  0.00  0.00    +0.039 C 
ENDROOT
BRANCH   1   9
ATOM      7  O   UNL     1      34.859 -13.035 -21.053  0.00  0.00    -0.252 OA
ATOM      8  N   UNL     1      34.007 -12.337 -23.121  0.00  0.00    -0.268 N 
ATOM      9  N   UNL     1      34.582 -14.553 -22.810  0.00  0.00    -0.268 N 
ATOM     10  C   UNL     1      34.521 -13.287 -22.204  0.00  0.00    +0.308 C 
ATOM     11  H   UNL     1      33.776 -12.685 -24.013  0.00  0.00    +0.156 HD
ATOM     12  H   UNL     1      34.274 -14.600 -23.743  0.00  0.00    +0.156 HD
BRANCH   8  14
ATOM     13 CL   UNL     1      33.020  -6.570 -22.285  0.00  0.00    -0.082 Cl
ATOM     14  C   UNL     1      33.783 -10.974 -22.929  0.00  0.00    +0.052 C 
ATOM     15  C   UNL     1      34.415  -8.674 -23.313  0.00  0.00    +0.083 C 
ATOM     16  C   UNL     1      34.640 -10.037 -23.505  0.00  0.00    +0.019 C 
ATOM     17  C   UNL     1      32.700 -10.548 -22.159  0.00  0.00    +0.016 C 
ATOM     18  C   UNL     1      33.333  -8.247 -22.543  0.00  0.00    +0.062 C 
ATOM     19  C   UNL     1      32.475  -9.185 -21.967  0.00  0.00    +0.013 C 
BRANCH  15  23
ATOM     20  F   UNL     1      34.724  -6.692 -24.616  0.00  0.00    -0.166 F 
ATOM     21  F   UNL     1      36.183  -7.083 -23.060  0.00  0.00    -0.166 F 
ATOM     22  F   UNL     1      36.174  -8.293 -24.867  0.00  0.00    -0.166 F 
ATOM     23  C   UNL     1      35.355  -7.702 -23.950  0.00  0.00    +0.419 C 
ENDBRANCH  15  23
ENDBRANCH   8  14
ENDBRANCH   1   9
BRANCH   2  24
ATOM     24  O   UNL     1      36.352 -19.316 -20.588  0.00  0.00    -0.453 OA
BRANCH  24  26
ATOM     25  N   UNL     1      33.756 -21.350 -18.059  0.00  0.00    -0.239 NA
ATOM     26  C   UNL     1      35.488 -19.995 -19.746  0.00  0.00    +0.149 C 
ATOM     27  C   UNL     1      35.997 -20.663 -18.653  0.00  0.00    +0.061 C 
ATOM     28  C   UNL     1      35.090 -21.325 -17.841  0.00  0.00    +0.137 C 
ATOM     29  C   UNL     1      34.136 -19.985 -20.019  0.00  0.00    +0.058 C 
ATOM     30  C   UNL     1      33.313 -20.679 -19.145  0.00  0.00    +0.102 C 
BRANCH  28  33
ATOM     31  O   UNL     1      34.848 -22.945 -16.163  0.00  0.00    -0.268 OA
ATOM     32  N   UNL     1      36.814 -21.715 -16.168  0.00  0.00    -0.298 N 
ATOM     33  C   UNL     1      35.551 -22.052 -16.670  0.00  0.00    +0.264 C 
ATOM     34  C   UNL     1      37.418 -22.363 -15.026  0.00  0.00    +0.111 C 
ATOM     35  H   UNL     1      37.317 -20.998 -16.616  0.00  0.00    +0.150 HD
ENDBRANCH  28  33
ENDBRANCH  24  26
ENDBRANCH   2  24
TORSDOF 6
ENDMDL
MODEL 6
REMARK VINA RESULT:     -11.8      1.708      2.353
REMARK  Name = 216239
REMARK  6 active torsions:
REMARK  status: ('A' for Active; 'I' for Inactive)
REMARK    1  A    between atoms: C_1  and  N_9
REMARK    2  A    between atoms: C_2  and  O_24
REMARK    3  A    between atoms: N_8  and  C_14
REMARK    4  A    between atoms: C_15  and  C_23
REMARK    5  A    between atoms: O_24  and  C_26
REMARK    6  A    between atoms: C_28  and  C_33
REMARK                            x       y       z     vdW  Elec       q    Type
REMARK                         _______ _______ _______ _____ _____    ______ ____
ROOT
ATOM      1  C   UNL     1      35.647 -20.164 -19.273  0.00  0.00    +0.052 C 
ATOM      2  C   UNL     1      35.658 -18.237 -21.263  0.00  0.00    +0.145 C 
ATOM      3  C   UNL     1      36.844 -19.566 -19.631  0.00  0.00    +0.018 C 
ATOM      4  C   UNL     1      34.455 -19.819 -19.889  0.00  0.00    +0.018 C 
ATOM      5  C   UNL     1      36.849 -18.595 -20.633  0.00  0.00    +0.039 C 
ATOM      6  C   UNL     1      34.461 -18.849 -20.892  0.00  0.00    +0.039 C 
ENDROOT
BRANCH   1   9
ATOM      7  O   UNL     1      37.271 -20.360 -16.774  0.00  0.00    -0.252 OA
ATOM      8  N   UNL     1      36.113 -22.350 -16.341  0.00  0.00    -0.268 N 
ATOM      9  N   UNL     1      35.643 -21.148 -18.257  0.00  0.00    -0.268 N 
ATOM     10  C   UNL     1      36.431 -21.193 -17.095  0.00  0.00    +0.308 C 
ATOM     11  H   UNL     1      35.417 -22.932 -16.723  0.00  0.00    +0.156 HD
ATOM     12  H   UNL     1      35.010 -21.892 -18.379  0.00  0.00    +0.156 HD
BRANCH   8  14
ATOM     13 CL   UNL     1      38.456 -24.166 -11.228  0.00  0.00    -0.082 Cl
ATOM     14  C   UNL     1      36.657 -22.776 -15.129  0.00  0.00    +0.052 C 
ATOM     15  C   UNL     1      36.398 -23.285 -12.782  0.00  0.00    +0.083 C 
ATOM     16  C   UNL     1      35.853 -22.857 -13.993  0.00  0.00    +0.019 C 
ATOM     17  C   UNL     1      38.007 -23.122 -15.055  0.00  0.00    +0.016 C 
ATOM     18  C   UNL     1      37.747 -23.630 -12.707  0.00  0.00    +0.062 C 
ATOM     19  C   UNL     1      38.551 -23.549 -13.844  0.00  0.00    +0.013 C 
BRANCH  15  23
ATOM     20  F   UNL     1      35.864 -22.512 -10.582  0.00  0.00    -0.166 F 
ATOM     21  F   UNL     1      34.201 -23.057 -11.864  0.00  0.00    -0.166 F 
ATOM     22  F   UNL     1      35.481 -24.605 -11.030  0.00  0.00    -0.166 F 
ATOM     23  C   UNL     1      35.502 -23.360 -11.587  0.00  0.00    +0.419 C 
ENDBRANCH  15  23
ENDBRANCH   8  14
ENDBRANCH   1   9
BRANCH   2  24
ATOM     24  O   UNL     1      35.663 -17.291 -22.242  0.00  0.00    -0.453 OA
BRANCH  24  26
ATOM     25  N   UNL     1      34.469 -13.445 -21.215  0.00  0.00    -0.239 NA
ATOM     26  C   UNL     1      35.266 -16.009 -21.900  0.00  0.00    +0.149 C 
ATOM     27  C   UNL     1      34.946 -15.114 -22.899  0.00  0.00    +0.061 C 
ATOM     28  C   UNL     1      34.553 -13.845 -22.504  0.00  0.00    +0.137 C 
ATOM     29  C   UNL     1      35.198 -15.658 -20.569  0.00  0.00    +0.058 C 
ATOM     30  C   UNL     1      34.795 -14.364 -20.279  0.00  0.00    +0.102 C 
BRANCH  28  33
ATOM     31  O   UNL     1      33.585 -13.170 -24.530  0.00  0.00    -0.268 OA
ATOM     32  N   UNL     1      34.561 -11.521 -23.226  0.00  0.00    -0.298 N 
ATOM     33  C   UNL     1      34.200 -12.846 -23.499  0.00  0.00    +0.264 C 
ATOM     34  C   UNL     1      34.260 -10.413 -24.104  0.00  0.00    +0.111 C 
ATOM     35  H   UNL     1      35.048 -11.333 -22.390  0.00  0.00    +0.150 HD
ENDBRANCH  28  33
ENDBRANCH  24  26
ENDBRANCH   2  24
TORSDOF 6
ENDMDL
MODEL 7
REMARK VINA RESULT:     -11.8      7.404     12.890
REMARK  Name = 216239
REMARK  6 active torsions:
REMARK  status: ('A' for Active; 'I' for Inactive)
REMARK    1  A    between atoms: C_1  and  N_9
REMARK    2  A    between atoms: C_2  and  O_24
REMARK    3  A    between atoms: N_8  and  C_14
REMARK    4  A    between atoms: C_15  and  C_23
REMARK    5  A    between atoms: O_24  and  C_26
REMARK    6  A    between atoms: C_28  and  C_33
REMARK                            x       y       z     vdW  Elec       q    Type
REMARK                         _______ _______ _______ _____ _____    ______ ____
ROOT
ATOM      1  C   UNL     1      34.993 -15.832 -22.558  0.00  0.00    +0.052 C 
ATOM      2  C   UNL     1      35.678 -18.178 -21.254  0.00  0.00    +0.145 C 
ATOM      3  C   UNL     1      35.291 -15.794 -21.207  0.00  0.00    +0.018 C 
ATOM      4  C   UNL     1      35.030 -17.018 -23.273  0.00  0.00    +0.018 C 
ATOM      5  C   UNL     1      35.636 -16.975 -20.550  0.00  0.00    +0.039 C 
ATOM      6  C   UNL     1      35.374 -18.200 -22.616  0.00  0.00    +0.039 C 
ENDROOT
BRANCH   1   9
ATOM      7  O   UNL     1      34.887 -13.026 -21.543  0.00  0.00    -0.252 OA
ATOM      8  N   UNL     1      34.205 -12.416 -23.700  0.00  0.00    -0.268 N 
ATOM      9  N   UNL     1      34.643 -14.634 -23.224  0.00  0.00    -0.268 N 
ATOM     10  C   UNL     1      34.610 -13.332 -22.698  0.00  0.00    +0.308 C 
ATOM     11  H   UNL     1      34.014 -12.806 -24.584  0.00  0.00    +0.156 HD
ATOM     12  H   UNL     1      34.392 -14.723 -24.171  0.00  0.00    +0.156 HD
BRANCH   8  14
ATOM     13 CL   UNL     1      33.546  -6.555 -23.315  0.00  0.00    -0.082 Cl
ATOM     14  C   UNL     1      34.042 -11.034 -23.603  0.00  0.00    +0.052 C 
ATOM     15  C   UNL     1      32.918  -9.122 -22.645  0.00  0.00    +0.083 C 
ATOM     16  C   UNL     1      33.081 -10.503 -22.743  0.00  0.00    +0.019 C 
ATOM     17  C   UNL     1      34.840 -10.183 -24.367  0.00  0.00    +0.016 C 
ATOM     18  C   UNL     1      33.717  -8.270 -23.409  0.00  0.00    +0.062 C 
ATOM     19  C   UNL     1      34.678  -8.801 -24.270  0.00  0.00    +0.013 C 
BRANCH  15  23
ATOM     20  F   UNL     1      31.119  -9.568 -21.134  0.00  0.00    -0.166 F 
ATOM     21  F   UNL     1      32.397  -7.878 -20.669  0.00  0.00    -0.166 F 
ATOM     22  F   UNL     1      30.998  -7.756 -22.330  0.00  0.00    -0.166 F 
ATOM     23  C   UNL     1      31.879  -8.592 -21.710  0.00  0.00    +0.419 C 
ENDBRANCH  15  23
ENDBRANCH   8  14
ENDBRANCH   1   9
BRANCH   2  24
ATOM     24  O   UNL     1      36.012 -19.331 -20.613  0.00  0.00    -0.453 OA
BRANCH  24  26
ATOM     25  N   UNL     1      33.092 -21.165 -18.293  0.00  0.00    -0.239 NA
ATOM     26  C   UNL     1      35.040 -19.943 -19.841  0.00  0.00    +0.149 C 
ATOM     27  C   UNL     1      35.422 -20.756 -18.795  0.00  0.00    +0.061 C 
ATOM     28  C   UNL     1      34.411 -21.343 -18.051  0.00  0.00    +0.137 C 
ATOM     29  C   UNL     1      33.710 -19.725 -20.134  0.00  0.00    +0.058 C 
ATOM     30  C   UNL     1      32.776 -20.359 -19.331  0.00  0.00    +0.102 C 
BRANCH  28  33
ATOM     31  O   UNL     1      34.010 -23.186 -16.659  0.00  0.00    -0.268 OA
ATOM     32  N   UNL     1      35.896 -21.914 -16.210  0.00  0.00    -0.298 N 
ATOM     33  C   UNL     1      34.735 -22.213 -16.933  0.00  0.00    +0.264 C 
ATOM     34  C   UNL     1      36.362 -22.697 -15.088  0.00  0.00    +0.111 C 
ATOM     35  H   UNL     1      36.424 -21.128 -16.480  0.00  0.00    +0.150 HD
ENDBRANCH  28  33
ENDBRANCH  24  26
ENDBRANCH   2  24
TORSDOF 6
ENDMDL
MODEL 8
REMARK VINA RESULT:     -11.6      1.515      2.027
REMARK  Name = 216239
REMARK  6 active torsions:
REMARK  status: ('A' for Active; 'I' for Inactive)
REMARK    1  A    between atoms: C_1  and  N_9
REMARK    2  A    between atoms: C_2  and  O_24
REMARK    3  A    between atoms: N_8  and  C_14
REMARK    4  A    between atoms: C_15  and  C_23
REMARK    5  A    between atoms: O_24  and  C_26
REMARK    6  A    between atoms: C_28  and  C_33
REMARK                            x       y       z     vdW  Elec       q    Type
REMARK                         _______ _______ _______ _____ _____    ______ ____
ROOT
ATOM      1  C   UNL     1      35.654 -20.289 -19.153  0.00  0.00    +0.052 C 
ATOM      2  C   UNL     1      36.286 -18.410 -21.088  0.00  0.00    +0.145 C 
ATOM      3  C   UNL     1      36.980 -19.951 -19.361  0.00  0.00    +0.018 C 
ATOM      4  C   UNL     1      34.636 -19.708 -19.891  0.00  0.00    +0.018 C 
ATOM      5  C   UNL     1      37.299 -19.005 -20.335  0.00  0.00    +0.039 C 
ATOM      6  C   UNL     1      34.955 -18.763 -20.867  0.00  0.00    +0.039 C 
ENDROOT
BRANCH   1   9
ATOM      7  O   UNL     1      36.791 -20.698 -16.422  0.00  0.00    -0.252 OA
ATOM      8  N   UNL     1      35.290 -22.485 -16.213  0.00  0.00    -0.268 N 
ATOM      9  N   UNL     1      35.332 -21.249 -18.165  0.00  0.00    -0.268 N 
ATOM     10  C   UNL     1      35.899 -21.399 -16.889  0.00  0.00    +0.308 C 
ATOM     11  H   UNL     1      34.586 -22.959 -16.714  0.00  0.00    +0.156 HD
ATOM     12  H   UNL     1      34.623 -21.890 -18.399  0.00  0.00    +0.156 HD
BRANCH   8  14
ATOM     13 CL   UNL     1      36.367 -24.546 -10.780  0.00  0.00    -0.082 Cl
ATOM     14  C   UNL     1      35.554 -22.974 -14.934  0.00  0.00    +0.052 C 
ATOM     15  C   UNL     1      37.096 -23.910 -13.328  0.00  0.00    +0.083 C 
ATOM     16  C   UNL     1      36.833 -23.422 -14.607  0.00  0.00    +0.019 C 
ATOM     17  C   UNL     1      34.536 -23.014 -13.980  0.00  0.00    +0.016 C 
ATOM     18  C   UNL     1      36.079 -23.951 -12.373  0.00  0.00    +0.062 C 
ATOM     19  C   UNL     1      34.799 -23.502 -12.700  0.00  0.00    +0.013 C 
BRANCH  15  23
ATOM     20  F   UNL     1      39.353 -24.224 -14.054  0.00  0.00    -0.166 F 
ATOM     21  F   UNL     1      39.053 -23.726 -11.965  0.00  0.00    -0.166 F 
ATOM     22  F   UNL     1      38.523 -25.704 -12.695  0.00  0.00    -0.166 F 
ATOM     23  C   UNL     1      38.481 -24.379 -13.017  0.00  0.00    +0.419 C 
ENDBRANCH  15  23
ENDBRANCH   8  14
ENDBRANCH   1   9
BRANCH   2  24
ATOM     24  O   UNL     1      36.597 -17.489 -22.039  0.00  0.00    -0.453 OA
BRANCH  24  26
ATOM     25  N   UNL     1      33.594 -16.344 -24.674  0.00  0.00    -0.239 NA
ATOM     26  C   UNL     1      35.596 -17.107 -22.916  0.00  0.00    +0.149 C 
ATOM     27  C   UNL     1      35.266 -15.773 -23.024  0.00  0.00    +0.061 C 
ATOM     28  C   UNL     1      34.259 -15.443 -23.917  0.00  0.00    +0.137 C 
ATOM     29  C   UNL     1      34.952 -18.070 -23.664  0.00  0.00    +0.058 C 
ATOM     30  C   UNL     1      33.958 -17.637 -24.527  0.00  0.00    +0.102 C 
BRANCH  28  33
ATOM     31  O   UNL     1      33.114 -13.725 -25.028  0.00  0.00    -0.268 OA
ATOM     32  N   UNL     1      34.319 -13.139 -23.136  0.00  0.00    -0.298 N 
ATOM     33  C   UNL     1      33.856 -14.057 -24.086  0.00  0.00    +0.264 C 
ATOM     34  C   UNL     1      33.985 -11.732 -23.156  0.00  0.00    +0.111 C 
ATOM     35  H   UNL     1      34.904 -13.468 -22.415  0.00  0.00    +0.150 HD
ENDBRANCH  28  33
ENDBRANCH  24  26
ENDBRANCH   2  24
TORSDOF 6
ENDMDL
MODEL 9
REMARK VINA RESULT:     -11.5      6.567     11.083
REMARK  Name = 216239
REMARK  6 active torsions:
REMARK  status: ('A' for Active; 'I' for Inactive)
REMARK    1  A    between atoms: C_1  and  N_9
REMARK    2  A    between atoms: C_2  and  O_24
REMARK    3  A    between atoms: N_8  and  C_14
REMARK    4  A    between atoms: C_15  and  C_23
REMARK    5  A    between atoms: O_24  and  C_26
REMARK    6  A    between atoms: C_28  and  C_33
REMARK                            x       y       z     vdW  Elec       q    Type
REMARK                         _______ _______ _______ _____ _____    ______ ____
ROOT
ATOM      1  C   UNL     1      35.347 -21.319 -18.006  0.00  0.00    +0.052 C 
ATOM      2  C   UNL     1      34.607 -22.833 -15.808  0.00  0.00    +0.145 C 
ATOM      3  C   UNL     1      36.174 -21.352 -16.896  0.00  0.00    +0.018 C 
ATOM      4  C   UNL     1      34.157 -22.027 -18.041  0.00  0.00    +0.018 C 
ATOM      5  C   UNL     1      35.802 -22.115 -15.789  0.00  0.00    +0.039 C 
ATOM      6  C   UNL     1      33.783 -22.789 -16.933  0.00  0.00    +0.039 C 
ENDROOT
BRANCH   1   9
ATOM      7  O   UNL     1      33.716 -19.519 -19.743  0.00  0.00    -0.252 OA
ATOM      8  N   UNL     1      35.687 -19.117 -20.943  0.00  0.00    -0.268 N 
ATOM      9  N   UNL     1      35.725 -20.546 -19.128  0.00  0.00    -0.268 N 
ATOM     10  C   UNL     1      34.915 -19.710 -19.915  0.00  0.00    +0.308 C 
ATOM     11  H   UNL     1      36.640 -19.365 -20.960  0.00  0.00    +0.156 HD
ATOM     12  H   UNL     1      36.672 -20.599 -19.391  0.00  0.00    +0.156 HD
BRANCH   8  14
ATOM     13 CL   UNL     1      33.951 -15.388 -25.188  0.00  0.00    -0.082 Cl
ATOM     14  C   UNL     1      35.277 -18.229 -21.938  0.00  0.00    +0.052 C 
ATOM     15  C   UNL     1      34.801 -15.975 -22.666  0.00  0.00    +0.083 C 
ATOM     16  C   UNL     1      35.210 -16.862 -21.670  0.00  0.00    +0.019 C 
ATOM     17  C   UNL     1      34.935 -18.710 -23.203  0.00  0.00    +0.016 C 
ATOM     18  C   UNL     1      34.459 -16.455 -23.930  0.00  0.00    +0.062 C 
ATOM     19  C   UNL     1      34.526 -17.822 -24.198  0.00  0.00    +0.013 C 
BRANCH  15  23
ATOM     20  F   UNL     1      35.470 -13.740 -23.194  0.00  0.00    -0.166 F 
ATOM     21  F   UNL     1      33.481 -14.002 -22.368  0.00  0.00    -0.166 F 
ATOM     22  F   UNL     1      35.227 -14.243 -21.093  0.00  0.00    -0.166 F 
ATOM     23  C   UNL     1      34.745 -14.517 -22.339  0.00  0.00    +0.419 C 
ENDBRANCH  15  23
ENDBRANCH   8  14
ENDBRANCH   1   9
BRANCH   2  24
ATOM     24  O   UNL     1      34.242 -23.575 -14.727  0.00  0.00    -0.453 OA
BRANCH  24  26
ATOM     25  N   UNL     1      30.228 -23.578 -13.649  0.00  0.00    -0.239 NA
ATOM     26  C   UNL     1      32.905 -23.575 -14.368  0.00  0.00    +0.149 C 
ATOM     27  C   UNL     1      31.993 -22.916 -15.164  0.00  0.00    +0.061 C 
ATOM     28  C   UNL     1      30.667 -22.947 -14.761  0.00  0.00    +0.137 C 
ATOM     29  C   UNL     1      32.515 -24.236 -13.222  0.00  0.00    +0.058 C 
ATOM     30  C   UNL     1      31.166 -24.207 -12.906  0.00  0.00    +0.102 C 
BRANCH  28  33
ATOM     31  O   UNL     1      29.940 -21.725 -16.626  0.00  0.00    -0.268 OA
ATOM     32  N   UNL     1      28.339 -22.300 -15.050  0.00  0.00    -0.298 N 
ATOM     33  C   UNL     1      29.647 -22.275 -15.549  0.00  0.00    +0.264 C 
ATOM     34  C   UNL     1      27.213 -21.698 -15.728  0.00  0.00    +0.111 C 
ATOM     35  H   UNL     1      28.177 -22.753 -14.190  0.00  0.00    +0.150 HD
ENDBRANCH  28  33
ENDBRANCH  24  26
ENDBRANCH   2  24
TORSDOF 6
ENDMDL
