MODEL 1
REMARK VINA RESULT:     -12.0      0.000      0.000
REMARK  Name = 6852141
REMARK  6 active torsions:
REMARK  status: ('A' for Active; 'I' for Inactive)
REMARK    1  A    between atoms: C_3  and  N_18
REMARK    2  A    between atoms: C_7  and  C_31
REMARK    3  A    between atoms: C_9  and  C_13
REMARK    4  A    between atoms: C_19  and  C_21
REMARK    5  A    between atoms: C_24  and  O_28
REMARK    6  A    between atoms: C_31  and  O_32
REMARK                            x       y       z     vdW  Elec       q    Type
REMARK                         _______ _______ _______ _____ _____    ______ ____
ROOT
ATOM      1  C   UNL     1      32.030 -23.088 -14.938  0.00  0.00    +0.014 C 
ATOM      2  C   UNL     1      31.830 -23.876 -13.780  0.00  0.00    +0.001 C 
ATOM      3  C   UNL     1      33.318 -22.605 -15.225  0.00  0.00    +0.051 C 
ATOM      4  C   UNL     1      30.938 -22.806 -15.774  0.00  0.00    +0.004 C 
ATOM      5  C   UNL     1      32.922 -24.159 -12.943  0.00  0.00    +0.007 C 
ATOM      6  C   UNL     1      34.391 -22.897 -14.383  0.00  0.00    +0.021 C 
ATOM      7  C   UNL     1      34.193 -23.671 -13.244  0.00  0.00    +0.077 C 
ATOM      8  C   UNL     1      30.542 -24.359 -13.492  0.00  0.00    +0.000 C 
ATOM      9  C   UNL     1      29.666 -23.294 -15.473  0.00  0.00    +0.031 C 
ATOM     10  C   UNL     1      29.469 -24.069 -14.334  0.00  0.00    +0.003 C 
ENDROOT
BRANCH   9  13
ATOM     11  N   UNL     1      28.137 -21.680 -16.579  0.00  0.00    -0.343 N 
ATOM     12  N   UNL     1      27.893 -23.975 -16.945  0.00  0.00    -0.285 NA
ATOM     13  C   UNL     1      28.546 -22.993 -16.350  0.00  0.00    +0.117 C 
ATOM     14  H   UNL     1      27.376 -21.499 -17.176  0.00  0.00    +0.144 HD
ATOM     15  H   UNL     1      28.609 -20.934 -16.142  0.00  0.00    +0.144 HD
ATOM     16  H   UNL     1      27.135 -23.774 -17.539  0.00  0.00    +0.188 HD
ENDBRANCH   9  13
BRANCH   3  18
ATOM     17  O   UNL     1      33.925 -23.411 -18.048  0.00  0.00    -0.270 OA
ATOM     18  N   UNL     1      33.576 -21.819 -16.356  0.00  0.00    -0.280 N 
ATOM     19  C   UNL     1      33.855 -22.253 -17.655  0.00  0.00    +0.249 C 
ATOM     20  H   UNL     1      33.560 -20.845 -16.217  0.00  0.00    +0.155 HD
BRANCH  19  21
ATOM     21  C   UNL     1      34.117 -21.171 -18.639  0.00  0.00    +0.053 C 
ATOM     22  C   UNL     1      35.384 -20.639 -18.767  0.00  0.00    +0.016 C 
ATOM     23  C   UNL     1      33.057 -20.730 -19.406  0.00  0.00    +0.004 C 
ATOM     24  C   UNL     1      35.601 -19.625 -19.700  0.00  0.00    +0.130 C 
ATOM     25  C   UNL     1      36.523 -21.129 -17.929  0.00  0.00    +0.034 C 
ATOM     26  C   UNL     1      33.273 -19.715 -20.339  0.00  0.00    +0.003 C 
ATOM     27  C   UNL     1      34.545 -19.164 -20.485  0.00  0.00    +0.036 C 
BRANCH  24  28
ATOM     28  O   UNL     1      36.838 -19.074 -19.858  0.00  0.00    -0.506 OA
ATOM     29  H   UNL     1      37.575 -19.623 -20.039  0.00  0.00    +0.292 HD
ENDBRANCH  24  28
ENDBRANCH  19  21
ENDBRANCH   3  18
BRANCH   7  31
ATOM     30  O   UNL     1      35.211 -24.224 -11.159  0.00  0.00    -0.245 OA
ATOM     31  C   UNL     1      35.315 -23.973 -12.367  0.00  0.00    +0.341 C 
BRANCH  31  32
ATOM     32  O   UNL     1      36.504 -23.946 -13.043  0.00  0.00    -0.441 OA
ATOM     33  C   UNL     1      37.232 -25.176 -13.122  0.00  0.00    +0.256 C 
ENDBRANCH  31  32
ENDBRANCH   7  31
TORSDOF 6
ENDMDL
MODEL 2
REMARK VINA RESULT:     -11.9      2.462      5.323
REMARK  Name = 6852141
REMARK  6 active torsions:
REMARK  status: ('A' for Active; 'I' for Inactive)
REMARK    1  A    between atoms: C_3  and  N_18
REMARK    2  A    between atoms: C_7  and  C_31
REMARK    3  A    between atoms: C_9  and  C_13
REMARK    4  A    between atoms: C_19  and  C_21
REMARK    5  A    between atoms: C_24  and  O_28
REMARK    6  A    between atoms: C_31  and  O_32
REMARK                            x       y       z     vdW  Elec       q    Type
REMARK                         _______ _______ _______ _____ _____    ______ ____
ROOT
ATOM      1  C   UNL     1      32.217 -22.848 -15.126  0.00  0.00    +0.014 C 
ATOM      2  C   UNL     1      31.174 -23.469 -14.399  0.00  0.00    +0.001 C 
ATOM      3  C   UNL     1      31.909 -22.141 -16.300  0.00  0.00    +0.051 C 
ATOM      4  C   UNL     1      33.537 -22.954 -14.659  0.00  0.00    +0.004 C 
ATOM      5  C   UNL     1      29.853 -23.364 -14.865  0.00  0.00    +0.007 C 
ATOM      6  C   UNL     1      30.592 -22.046 -16.748  0.00  0.00    +0.021 C 
ATOM      7  C   UNL     1      29.566 -22.657 -16.033  0.00  0.00    +0.077 C 
ATOM      8  C   UNL     1      31.482 -24.177 -13.225  0.00  0.00    +0.000 C 
ATOM      9  C   UNL     1      33.824 -23.660 -13.491  0.00  0.00    +0.031 C 
ATOM     10  C   UNL     1      32.799 -24.270 -12.775  0.00  0.00    +0.003 C 
ENDROOT
BRANCH   9  13
ATOM     11  N   UNL     1      35.716 -22.846 -12.104  0.00  0.00    -0.343 N 
ATOM     12  N   UNL     1      35.979 -24.726 -13.467  0.00  0.00    -0.285 NA
ATOM     13  C   UNL     1      35.197 -23.759 -13.021  0.00  0.00    +0.117 C 
ATOM     14  H   UNL     1      36.648 -22.931 -11.799  0.00  0.00    +0.144 HD
ATOM     15  H   UNL     1      35.150 -22.116 -11.762  0.00  0.00    +0.144 HD
ATOM     16  H   UNL     1      36.908 -24.794 -13.150  0.00  0.00    +0.188 HD
ENDBRANCH   9  13
BRANCH   3  18
ATOM     17  O   UNL     1      33.763 -23.252 -18.377  0.00  0.00    -0.270 OA
ATOM     18  N   UNL     1      32.899 -21.508 -17.062  0.00  0.00    -0.280 N 
ATOM     19  C   UNL     1      33.739 -22.080 -18.022  0.00  0.00    +0.249 C 
ATOM     20  H   UNL     1      33.018 -20.544 -16.901  0.00  0.00    +0.155 HD
BRANCH  19  21
ATOM     21  C   UNL     1      34.716 -21.148 -18.643  0.00  0.00    +0.053 C 
ATOM     22  C   UNL     1      34.295 -20.220 -19.573  0.00  0.00    +0.016 C 
ATOM     23  C   UNL     1      36.037 -21.251 -18.256  0.00  0.00    +0.004 C 
ATOM     24  C   UNL     1      35.234 -19.358 -20.140  0.00  0.00    +0.130 C 
ATOM     25  C   UNL     1      32.859 -20.121 -19.982  0.00  0.00    +0.034 C 
ATOM     26  C   UNL     1      36.976 -20.389 -18.823  0.00  0.00    +0.003 C 
ATOM     27  C   UNL     1      36.574 -19.443 -19.764  0.00  0.00    +0.036 C 
BRANCH  24  28
ATOM     28  O   UNL     1      34.860 -18.425 -21.061  0.00  0.00    -0.506 OA
ATOM     29  H   UNL     1      34.231 -17.769 -20.835  0.00  0.00    +0.292 HD
ENDBRANCH  24  28
ENDBRANCH  19  21
ENDBRANCH   3  18
BRANCH   7  31
ATOM     30  O   UNL     1      27.576 -23.474 -17.064  0.00  0.00    -0.245 OA
ATOM     31  C   UNL     1      28.193 -22.557 -16.504  0.00  0.00    +0.341 C 
BRANCH  31  32
ATOM     32  O   UNL     1      27.662 -21.322 -16.251  0.00  0.00    -0.441 OA
ATOM     33  C   UNL     1      26.435 -20.996 -16.912  0.00  0.00    +0.256 C 
ENDBRANCH  31  32
ENDBRANCH   7  31
TORSDOF 6
ENDMDL
MODEL 3
REMARK VINA RESULT:     -11.6      2.443      5.013
REMARK  Name = 6852141
REMARK  6 active torsions:
REMARK  status: ('A' for Active; 'I' for Inactive)
REMARK    1  A    between atoms: C_3  and  N_18
REMARK    2  A    between atoms: C_7  and  C_31
REMARK    3  A    between atoms: C_9  and  C_13
REMARK    4  A    between atoms: C_19  and  C_21
REMARK    5  A    between atoms: C_24  and  O_28
REMARK    6  A    between atoms: C_31  and  O_32
REMARK                            x       y       z     vdW  Elec       q    Type
REMARK                         _______ _______ _______ _____ _____    ______ ____
ROOT
ATOM      1  C   UNL     1      33.627 -22.824 -15.018  0.00  0.00    +0.014 C 
ATOM      2  C   UNL     1      33.103 -23.638 -13.985  0.00  0.00    +0.001 C 
ATOM      3  C   UNL     1      32.764 -22.341 -16.015  0.00  0.00    +0.051 C 
ATOM      4  C   UNL     1      34.997 -22.519 -15.023  0.00  0.00    +0.004 C 
ATOM      5  C   UNL     1      31.732 -23.943 -13.979  0.00  0.00    +0.007 C 
ATOM      6  C   UNL     1      31.405 -22.653 -15.993  0.00  0.00    +0.021 C 
ATOM      7  C   UNL     1      30.890 -23.454 -14.978  0.00  0.00    +0.077 C 
ATOM      8  C   UNL     1      33.965 -24.122 -12.988  0.00  0.00    +0.000 C 
ATOM      9  C   UNL     1      35.839 -23.009 -14.024  0.00  0.00    +0.031 C 
ATOM     10  C   UNL     1      35.324 -23.808 -13.008  0.00  0.00    +0.003 C 
ENDROOT
BRANCH   9  13
ATOM     11  N   UNL     1      37.975 -22.644 -15.238  0.00  0.00    -0.343 N 
ATOM     12  N   UNL     1      37.888 -22.419 -12.914  0.00  0.00    -0.285 NA
ATOM     13  C   UNL     1      37.256 -22.682 -14.044  0.00  0.00    +0.117 C 
ATOM     14  H   UNL     1      38.933 -22.421 -15.229  0.00  0.00    +0.144 HD
ATOM     15  H   UNL     1      37.522 -22.841 -16.091  0.00  0.00    +0.144 HD
ATOM     16  H   UNL     1      38.846 -22.198 -12.925  0.00  0.00    +0.188 HD
ENDBRANCH   9  13
BRANCH   3  18
ATOM     17  O   UNL     1      34.005 -23.090 -18.639  0.00  0.00    -0.270 OA
ATOM     18  N   UNL     1      33.225 -21.533 -17.062  0.00  0.00    -0.280 N 
ATOM     19  C   UNL     1      33.799 -21.940 -18.270  0.00  0.00    +0.249 C 
ATOM     20  H   UNL     1      33.135 -20.562 -16.931  0.00  0.00    +0.155 HD
BRANCH  19  21
ATOM     21  C   UNL     1      34.218 -20.838 -19.174  0.00  0.00    +0.053 C 
ATOM     22  C   UNL     1      35.530 -20.411 -19.187  0.00  0.00    +0.016 C 
ATOM     23  C   UNL     1      33.255 -20.271 -19.985  0.00  0.00    +0.004 C 
ATOM     24  C   UNL     1      35.895 -19.374 -20.046  0.00  0.00    +0.130 C 
ATOM     25  C   UNL     1      36.562 -21.037 -18.302  0.00  0.00    +0.034 C 
ATOM     26  C   UNL     1      33.620 -19.234 -20.844  0.00  0.00    +0.003 C 
ATOM     27  C   UNL     1      34.940 -18.787 -20.874  0.00  0.00    +0.036 C 
BRANCH  24  28
ATOM     28  O   UNL     1      37.181 -18.924 -20.091  0.00  0.00    -0.506 OA
ATOM     29  H   UNL     1      37.406 -18.108 -19.687  0.00  0.00    +0.292 HD
ENDBRANCH  24  28
ENDBRANCH  19  21
ENDBRANCH   3  18
BRANCH   7  31
ATOM     30  O   UNL     1      28.954 -24.609 -14.198  0.00  0.00    -0.245 OA
ATOM     31  C   UNL     1      29.472 -23.779 -14.958  0.00  0.00    +0.341 C 
BRANCH  31  32
ATOM     32  O   UNL     1      28.775 -23.053 -15.885  0.00  0.00    -0.441 OA
ATOM     33  C   UNL     1      27.841 -22.090 -15.384  0.00  0.00    +0.256 C 
ENDBRANCH  31  32
ENDBRANCH   7  31
TORSDOF 6
ENDMDL
MODEL 4
REMARK VINA RESULT:     -11.3      2.003      6.628
REMARK  Name = 6852141
REMARK  6 active torsions:
REMARK  status: ('A' for Active; 'I' for Inactive)
REMARK    1  A    between atoms: C_3  and  N_18
REMARK    2  A    between atoms: C_7  and  C_31
REMARK    3  A    between atoms: C_9  and  C_13
REMARK    4  A    between atoms: C_19  and  C_21
REMARK    5  A    between atoms: C_24  and  O_28
REMARK    6  A    between atoms: C_31  and  O_32
REMARK                            x       y       z     vdW  Elec       q    Type
REMARK                         _______ _______ _______ _____ _____    ______ ____
ROOT
ATOM      1  C   UNL     1      33.393 -22.413 -15.863  0.00  0.00    +0.014 C 
ATOM      2  C   UNL     1      32.553 -22.016 -16.930  0.00  0.00    +0.001 C 
ATOM      3  C   UNL     1      34.782 -22.247 -15.984  0.00  0.00    +0.051 C 
ATOM      4  C   UNL     1      32.819 -22.966 -14.707  0.00  0.00    +0.004 C 
ATOM      5  C   UNL     1      33.126 -21.463 -18.087  0.00  0.00    +0.007 C 
ATOM      6  C   UNL     1      35.335 -21.696 -17.140  0.00  0.00    +0.021 C 
ATOM      7  C   UNL     1      34.509 -21.305 -18.190  0.00  0.00    +0.077 C 
ATOM      8  C   UNL     1      31.163 -22.183 -16.810  0.00  0.00    +0.000 C 
ATOM      9  C   UNL     1      31.436 -23.124 -14.604  0.00  0.00    +0.031 C 
ATOM     10  C   UNL     1      30.610 -22.732 -15.653  0.00  0.00    +0.003 C 
ENDROOT
BRANCH   9  13
ATOM     11  N   UNL     1      29.931 -24.735 -13.463  0.00  0.00    -0.343 N 
ATOM     12  N   UNL     1      31.208 -23.229 -12.213  0.00  0.00    -0.285 NA
ATOM     13  C   UNL     1      30.858 -23.697 -13.399  0.00  0.00    +0.117 C 
ATOM     14  H   UNL     1      29.552 -25.109 -12.635  0.00  0.00    +0.144 HD
ATOM     15  H   UNL     1      29.655 -25.095 -14.338  0.00  0.00    +0.144 HD
ATOM     16  H   UNL     1      30.818 -23.616 -11.397  0.00  0.00    +0.188 HD
ENDBRANCH   9  13
BRANCH   3  18
ATOM     17  O   UNL     1      35.783 -24.959 -15.189  0.00  0.00    -0.270 OA
ATOM     18  N   UNL     1      35.663 -22.624 -14.962  0.00  0.00    -0.280 N 
ATOM     19  C   UNL     1      36.096 -23.912 -14.636  0.00  0.00    +0.249 C 
ATOM     20  H   UNL     1      36.018 -21.893 -14.407  0.00  0.00    +0.155 HD
BRANCH  19  21
ATOM     21  C   UNL     1      37.015 -23.993 -13.470  0.00  0.00    +0.053 C 
ATOM     22  C   UNL     1      36.527 -23.839 -12.189  0.00  0.00    +0.016 C 
ATOM     23  C   UNL     1      38.353 -24.225 -13.722  0.00  0.00    +0.004 C 
ATOM     24  C   UNL     1      37.413 -23.920 -11.114  0.00  0.00    +0.130 C 
ATOM     25  C   UNL     1      35.075 -23.589 -11.933  0.00  0.00    +0.034 C 
ATOM     26  C   UNL     1      39.239 -24.306 -12.648  0.00  0.00    +0.003 C 
ATOM     27  C   UNL     1      38.768 -24.154 -11.344  0.00  0.00    +0.036 C 
BRANCH  24  28
ATOM     28  O   UNL     1      36.972 -23.776  -9.832  0.00  0.00    -0.506 OA
ATOM     29  H   UNL     1      37.524 -24.024  -9.116  0.00  0.00    +0.292 HD
ENDBRANCH  24  28
ENDBRANCH  19  21
ENDBRANCH   3  18
BRANCH   7  31
ATOM     30  O   UNL     1      36.230 -20.974 -19.808  0.00  0.00    -0.245 OA
ATOM     31  C   UNL     1      35.088 -20.731 -19.395  0.00  0.00    +0.341 C 
BRANCH  31  32
ATOM     32  O   UNL     1      34.212 -19.885 -20.020  0.00  0.00    -0.441 OA
ATOM     33  C   UNL     1      34.757 -19.008 -21.012  0.00  0.00    +0.256 C 
ENDBRANCH  31  32
ENDBRANCH   7  31
TORSDOF 6
ENDMDL
MODEL 5
REMARK VINA RESULT:     -10.9      3.146      6.898
REMARK  Name = 6852141
REMARK  6 active torsions:
REMARK  status: ('A' for Active; 'I' for Inactive)
REMARK    1  A    between atoms: C_3  and  N_18
REMARK    2  A    between atoms: C_7  and  C_31
REMARK    3  A    between atoms: C_9  and  C_13
REMARK    4  A    between atoms: C_19  and  C_21
REMARK    5  A    between atoms: C_24  and  O_28
REMARK    6  A    between atoms: C_31  and  O_32
REMARK                            x       y       z     vdW  Elec       q    Type
REMARK                         _______ _______ _______ _____ _____    ______ ____
ROOT
ATOM      1  C   UNL     1      34.276 -22.094 -16.756  0.00  0.00    +0.014 C 
ATOM      2  C   UNL     1      32.992 -21.826 -17.286  0.00  0.00    +0.001 C 
ATOM      3  C   UNL     1      34.389 -22.842 -15.572  0.00  0.00    +0.051 C 
ATOM      4  C   UNL     1      35.411 -21.605 -17.424  0.00  0.00    +0.004 C 
ATOM      5  C   UNL     1      31.857 -22.315 -16.619  0.00  0.00    +0.007 C 
ATOM      6  C   UNL     1      33.250 -23.320 -14.923  0.00  0.00    +0.021 C 
ATOM      7  C   UNL     1      31.987 -23.057 -15.444  0.00  0.00    +0.077 C 
ATOM      8  C   UNL     1      32.880 -21.077 -18.469  0.00  0.00    +0.000 C 
ATOM      9  C   UNL     1      35.281 -20.863 -18.598  0.00  0.00    +0.031 C 
ATOM     10  C   UNL     1      34.018 -20.601 -19.120  0.00  0.00    +0.003 C 
ENDROOT
BRANCH   9  13
ATOM     11  N   UNL     1      36.651 -19.003 -19.508  0.00  0.00    -0.343 N 
ATOM     12  N   UNL     1      37.391 -21.212 -19.694  0.00  0.00    -0.285 NA
ATOM     13  C   UNL     1      36.466 -20.365 -19.278  0.00  0.00    +0.117 C 
ATOM     14  H   UNL     1      37.461 -18.688 -19.970  0.00  0.00    +0.144 HD
ATOM     15  H   UNL     1      35.971 -18.357 -19.208  0.00  0.00    +0.144 HD
ATOM     16  H   UNL     1      38.194 -20.877 -20.155  0.00  0.00    +0.188 HD
ENDBRANCH   9  13
BRANCH   3  18
ATOM     17  O   UNL     1      35.683 -25.485 -15.005  0.00  0.00    -0.270 OA
ATOM     18  N   UNL     1      35.632 -23.136 -15.000  0.00  0.00    -0.280 N 
ATOM     19  C   UNL     1      36.188 -24.396 -14.758  0.00  0.00    +0.249 C 
ATOM     20  H   UNL     1      36.180 -22.363 -14.735  0.00  0.00    +0.155 HD
BRANCH  19  21
ATOM     21  C   UNL     1      37.523 -24.383 -14.105  0.00  0.00    +0.053 C 
ATOM     22  C   UNL     1      37.714 -23.691 -12.927  0.00  0.00    +0.016 C 
ATOM     23  C   UNL     1      38.544 -25.082 -14.719  0.00  0.00    +0.004 C 
ATOM     24  C   UNL     1      38.978 -23.697 -12.337  0.00  0.00    +0.130 C 
ATOM     25  C   UNL     1      36.597 -22.939 -12.275  0.00  0.00    +0.034 C 
ATOM     26  C   UNL     1      39.808 -25.088 -14.129  0.00  0.00    +0.003 C 
ATOM     27  C   UNL     1      40.024 -24.396 -12.939  0.00  0.00    +0.036 C 
BRANCH  24  28
ATOM     28  O   UNL     1      39.209 -23.027 -11.173  0.00  0.00    -0.506 OA
ATOM     29  H   UNL     1      38.786 -22.207 -11.013  0.00  0.00    +0.292 HD
ENDBRANCH  24  28
ENDBRANCH  19  21
ENDBRANCH   3  18
BRANCH   7  31
ATOM     30  O   UNL     1      30.768 -24.589 -14.082  0.00  0.00    -0.245 OA
ATOM     31  C   UNL     1      30.802 -23.556 -14.764  0.00  0.00    +0.341 C 
BRANCH  31  32
ATOM     32  O   UNL     1      29.722 -22.741 -14.971  0.00  0.00    -0.441 OA
ATOM     33  C   UNL     1      28.572 -23.333 -15.584  0.00  0.00    +0.256 C 
ENDBRANCH  31  32
ENDBRANCH   7  31
TORSDOF 6
ENDMDL
MODEL 6
REMARK VINA RESULT:     -10.6      1.230      1.994
REMARK  Name = 6852141
REMARK  6 active torsions:
REMARK  status: ('A' for Active; 'I' for Inactive)
REMARK    1  A    between atoms: C_3  and  N_18
REMARK    2  A    between atoms: C_7  and  C_31
REMARK    3  A    between atoms: C_9  and  C_13
REMARK    4  A    between atoms: C_19  and  C_21
REMARK    5  A    between atoms: C_24  and  O_28
REMARK    6  A    between atoms: C_31  and  O_32
REMARK                            x       y       z     vdW  Elec       q    Type
REMARK                         _______ _______ _______ _____ _____    ______ ____
ROOT
ATOM      1  C   UNL     1      33.279 -22.958 -14.350  0.00  0.00    +0.014 C 
ATOM      2  C   UNL     1      33.057 -23.653 -13.138  0.00  0.00    +0.001 C 
ATOM      3  C   UNL     1      34.576 -22.520 -14.664  0.00  0.00    +0.051 C 
ATOM      4  C   UNL     1      32.197 -22.721 -15.214  0.00  0.00    +0.004 C 
ATOM      5  C   UNL     1      34.139 -23.890 -12.274  0.00  0.00    +0.007 C 
ATOM      6  C   UNL     1      35.639 -22.765 -13.794  0.00  0.00    +0.021 C 
ATOM      7  C   UNL     1      35.421 -23.448 -12.601  0.00  0.00    +0.077 C 
ATOM      8  C   UNL     1      31.760 -24.090 -12.824  0.00  0.00    +0.000 C 
ATOM      9  C   UNL     1      30.915 -23.164 -14.886  0.00  0.00    +0.031 C 
ATOM     10  C   UNL     1      30.697 -23.847 -13.694  0.00  0.00    +0.003 C 
ENDROOT
BRANCH   9  13
ATOM     11  N   UNL     1      28.740 -23.803 -15.900  0.00  0.00    -0.343 N 
ATOM     12  N   UNL     1      29.798 -21.819 -16.537  0.00  0.00    -0.285 NA
ATOM     13  C   UNL     1      29.806 -22.911 -15.792  0.00  0.00    +0.117 C 
ATOM     14  H   UNL     1      27.999 -23.612 -16.519  0.00  0.00    +0.144 HD
ATOM     15  H   UNL     1      28.729 -24.624 -15.355  0.00  0.00    +0.144 HD
ATOM     16  H   UNL     1      29.049 -21.646 -17.150  0.00  0.00    +0.188 HD
ENDBRANCH   9  13
BRANCH   3  18
ATOM     17  O   UNL     1      34.120 -23.303 -17.521  0.00  0.00    -0.270 OA
ATOM     18  N   UNL     1      34.855 -21.826 -15.848  0.00  0.00    -0.280 N 
ATOM     19  C   UNL     1      34.620 -22.244 -17.161  0.00  0.00    +0.249 C 
ATOM     20  H   UNL     1      35.268 -20.939 -15.742  0.00  0.00    +0.155 HD
BRANCH  19  21
ATOM     21  C   UNL     1      35.056 -21.290 -18.215  0.00  0.00    +0.053 C 
ATOM     22  C   UNL     1      34.121 -20.627 -18.982  0.00  0.00    +0.016 C 
ATOM     23  C   UNL     1      36.414 -21.102 -18.388  0.00  0.00    +0.004 C 
ATOM     24  C   UNL     1      34.560 -19.738 -19.964  0.00  0.00    +0.130 C 
ATOM     25  C   UNL     1      32.654 -20.842 -18.782  0.00  0.00    +0.034 C 
ATOM     26  C   UNL     1      36.852 -20.213 -19.370  0.00  0.00    +0.003 C 
ATOM     27  C   UNL     1      35.925 -19.532 -20.157  0.00  0.00    +0.036 C 
BRANCH  24  28
ATOM     28  O   UNL     1      33.669 -19.062 -20.743  0.00  0.00    -0.506 OA
ATOM     29  H   UNL     1      32.938 -19.513 -21.119  0.00  0.00    +0.292 HD
ENDBRANCH  24  28
ENDBRANCH  19  21
ENDBRANCH   3  18
BRANCH   7  31
ATOM     30  O   UNL     1      37.304 -22.830 -11.274  0.00  0.00    -0.245 OA
ATOM     31  C   UNL     1      36.531 -23.701 -11.696  0.00  0.00    +0.341 C 
BRANCH  31  32
ATOM     32  O   UNL     1      36.618 -25.026 -11.364  0.00  0.00    -0.441 OA
ATOM     33  C   UNL     1      37.635 -25.792 -12.019  0.00  0.00    +0.256 C 
ENDBRANCH  31  32
ENDBRANCH   7  31
TORSDOF 6
ENDMDL
MODEL 7
REMARK VINA RESULT:     -10.3      2.140      6.240
REMARK  Name = 6852141
REMARK  6 active torsions:
REMARK  status: ('A' for Active; 'I' for Inactive)
REMARK    1  A    between atoms: C_3  and  N_18
REMARK    2  A    between atoms: C_7  and  C_31
REMARK    3  A    between atoms: C_9  and  C_13
REMARK    4  A    between atoms: C_19  and  C_21
REMARK    5  A    between atoms: C_24  and  O_28
REMARK    6  A    between atoms: C_31  and  O_32
REMARK                            x       y       z     vdW  Elec       q    Type
REMARK                         _______ _______ _______ _____ _____    ______ ____
ROOT
ATOM      1  C   UNL     1      32.983 -22.703 -15.949  0.00  0.00    +0.014 C 
ATOM      2  C   UNL     1      32.129 -22.027 -16.851  0.00  0.00    +0.001 C 
ATOM      3  C   UNL     1      34.372 -22.660 -16.155  0.00  0.00    +0.051 C 
ATOM      4  C   UNL     1      32.425 -23.403 -14.867  0.00  0.00    +0.004 C 
ATOM      5  C   UNL     1      32.686 -21.326 -17.933  0.00  0.00    +0.007 C 
ATOM      6  C   UNL     1      34.909 -21.958 -17.235  0.00  0.00    +0.021 C 
ATOM      7  C   UNL     1      34.068 -21.294 -18.123  0.00  0.00    +0.077 C 
ATOM      8  C   UNL     1      30.740 -22.071 -16.645  0.00  0.00    +0.000 C 
ATOM      9  C   UNL     1      31.043 -23.436 -14.678  0.00  0.00    +0.031 C 
ATOM     10  C   UNL     1      30.202 -22.770 -15.565  0.00  0.00    +0.003 C 
ENDROOT
BRANCH   9  13
ATOM     11  N   UNL     1      29.310 -24.908 -13.681  0.00  0.00    -0.343 N 
ATOM     12  N   UNL     1      31.083 -24.125 -12.375  0.00  0.00    -0.285 NA
ATOM     13  C   UNL     1      30.482 -24.165 -13.552  0.00  0.00    +0.117 C 
ATOM     14  H   UNL     1      28.947 -25.394 -12.907  0.00  0.00    +0.144 HD
ATOM     15  H   UNL     1      28.845 -24.947 -14.549  0.00  0.00    +0.144 HD
ATOM     16  H   UNL     1      30.704 -24.618 -11.612  0.00  0.00    +0.188 HD
ENDBRANCH   9  13
BRANCH   3  18
ATOM     17  O   UNL     1      36.302 -21.537 -14.155  0.00  0.00    -0.270 OA
ATOM     18  N   UNL     1      35.267 -23.310 -15.297  0.00  0.00    -0.280 N 
ATOM     19  C   UNL     1      36.149 -22.732 -14.380  0.00  0.00    +0.249 C 
ATOM     20  H   UNL     1      35.276 -24.293 -15.347  0.00  0.00    +0.155 HD
BRANCH  19  21
ATOM     21  C   UNL     1      36.999 -23.692 -13.628  0.00  0.00    +0.053 C 
ATOM     22  C   UNL     1      38.312 -23.895 -13.998  0.00  0.00    +0.016 C 
ATOM     23  C   UNL     1      36.426 -24.359 -12.563  0.00  0.00    +0.004 C 
ATOM     24  C   UNL     1      39.086 -24.803 -13.274  0.00  0.00    +0.130 C 
ATOM     25  C   UNL     1      38.918 -23.164 -15.155  0.00  0.00    +0.034 C 
ATOM     26  C   UNL     1      37.200 -25.266 -11.839  0.00  0.00    +0.003 C 
ATOM     27  C   UNL     1      38.529 -25.487 -12.195  0.00  0.00    +0.036 C 
BRANCH  24  28
ATOM     28  O   UNL     1      40.388 -25.032 -13.606  0.00  0.00    -0.506 OA
ATOM     29  H   UNL     1      40.803 -24.508 -14.263  0.00  0.00    +0.292 HD
ENDBRANCH  24  28
ENDBRANCH  19  21
ENDBRANCH   3  18
BRANCH   7  31
ATOM     30  O   UNL     1      33.966 -19.901 -20.057  0.00  0.00    -0.245 OA
ATOM     31  C   UNL     1      34.631 -20.564 -19.249  0.00  0.00    +0.341 C 
BRANCH  31  32
ATOM     32  O   UNL     1      35.991 -20.699 -19.306  0.00  0.00    -0.441 OA
ATOM     33  C   UNL     1      36.736 -19.559 -19.750  0.00  0.00    +0.256 C 
ENDBRANCH  31  32
ENDBRANCH   7  31
TORSDOF 6
ENDMDL
MODEL 8
REMARK VINA RESULT:     -10.3      2.748      5.327
REMARK  Name = 6852141
REMARK  6 active torsions:
REMARK  status: ('A' for Active; 'I' for Inactive)
REMARK    1  A    between atoms: C_3  and  N_18
REMARK    2  A    between atoms: C_7  and  C_31
REMARK    3  A    between atoms: C_9  and  C_13
REMARK    4  A    between atoms: C_19  and  C_21
REMARK    5  A    between atoms: C_24  and  O_28
REMARK    6  A    between atoms: C_31  and  O_32
REMARK                            x       y       z     vdW  Elec       q    Type
REMARK                         _______ _______ _______ _____ _____    ______ ____
ROOT
ATOM      1  C   UNL     1      34.348 -22.825 -15.335  0.00  0.00    +0.014 C 
ATOM      2  C   UNL     1      33.646 -23.609 -14.389  0.00  0.00    +0.001 C 
ATOM      3  C   UNL     1      33.626 -22.117 -16.310  0.00  0.00    +0.051 C 
ATOM      4  C   UNL     1      35.750 -22.774 -15.280  0.00  0.00    +0.004 C 
ATOM      5  C   UNL     1      32.243 -23.660 -14.443  0.00  0.00    +0.007 C 
ATOM      6  C   UNL     1      32.233 -22.179 -16.350  0.00  0.00    +0.021 C 
ATOM      7  C   UNL     1      31.543 -22.950 -15.419  0.00  0.00    +0.077 C 
ATOM      8  C   UNL     1      34.367 -24.318 -13.414  0.00  0.00    +0.000 C 
ATOM      9  C   UNL     1      36.450 -23.484 -14.305  0.00  0.00    +0.031 C 
ATOM     10  C   UNL     1      35.760 -24.254 -13.373  0.00  0.00    +0.003 C 
ENDROOT
BRANCH   9  13
ATOM     11  N   UNL     1      38.624 -24.014 -13.227  0.00  0.00    -0.343 N 
ATOM     12  N   UNL     1      38.563 -22.783 -15.212  0.00  0.00    -0.285 NA
ATOM     13  C   UNL     1      37.902 -23.419 -14.261  0.00  0.00    +0.117 C 
ATOM     14  H   UNL     1      39.606 -23.958 -13.217  0.00  0.00    +0.144 HD
ATOM     15  H   UNL     1      38.149 -24.490 -12.507  0.00  0.00    +0.144 HD
ATOM     16  H   UNL     1      39.545 -22.737 -15.184  0.00  0.00    +0.188 HD
ENDBRANCH   9  13
BRANCH   3  18
ATOM     17  O   UNL     1      34.269 -22.701 -19.179  0.00  0.00    -0.270 OA
ATOM     18  N   UNL     1      34.266 -21.327 -17.274  0.00  0.00    -0.280 N 
ATOM     19  C   UNL     1      34.541 -21.653 -18.605  0.00  0.00    +0.249 C 
ATOM     20  H   UNL     1      34.558 -20.435 -16.977  0.00  0.00    +0.155 HD
BRANCH  19  21
ATOM     21  C   UNL     1      35.265 -20.608 -19.375  0.00  0.00    +0.053 C 
ATOM     22  C   UNL     1      34.566 -19.718 -20.165  0.00  0.00    +0.016 C 
ATOM     23  C   UNL     1      36.641 -20.569 -19.267  0.00  0.00    +0.004 C 
ATOM     24  C   UNL     1      35.272 -18.748 -20.877  0.00  0.00    +0.130 C 
ATOM     25  C   UNL     1      33.074 -19.774 -20.270  0.00  0.00    +0.034 C 
ATOM     26  C   UNL     1      37.346 -19.599 -19.979  0.00  0.00    +0.003 C 
ATOM     27  C   UNL     1      36.661 -18.689 -20.783  0.00  0.00    +0.036 C 
BRANCH  24  28
ATOM     28  O   UNL     1      34.620 -17.849 -21.667  0.00  0.00    -0.506 OA
ATOM     29  H   UNL     1      34.311 -18.107 -22.514  0.00  0.00    +0.292 HD
ENDBRANCH  24  28
ENDBRANCH  19  21
ENDBRANCH   3  18
BRANCH   7  31
ATOM     30  O   UNL     1      29.404 -22.695 -16.443  0.00  0.00    -0.245 OA
ATOM     31  C   UNL     1      30.090 -23.014 -15.462  0.00  0.00    +0.341 C 
BRANCH  31  32
ATOM     32  O   UNL     1      29.571 -23.472 -14.282  0.00  0.00    -0.441 OA
ATOM     33  C   UNL     1      29.046 -24.804 -14.280  0.00  0.00    +0.256 C 
ENDBRANCH  31  32
ENDBRANCH   7  31
TORSDOF 6
ENDMDL
MODEL 9
REMARK VINA RESULT:     -10.2      2.522      7.237
REMARK  Name = 6852141
REMARK  6 active torsions:
REMARK  status: ('A' for Active; 'I' for Inactive)
REMARK    1  A    between atoms: C_3  and  N_18
REMARK    2  A    between atoms: C_7  and  C_31
REMARK    3  A    between atoms: C_9  and  C_13
REMARK    4  A    between atoms: C_19  and  C_21
REMARK    5  A    between atoms: C_24  and  O_28
REMARK    6  A    between atoms: C_31  and  O_32
REMARK                            x       y       z     vdW  Elec       q    Type
REMARK                         _______ _______ _______ _____ _____    ______ ____
ROOT
ATOM      1  C   UNL     1      35.351 -22.432 -15.774  0.00  0.00    +0.014 C 
ATOM      2  C   UNL     1      36.656 -21.975 -16.073  0.00  0.00    +0.001 C 
ATOM      3  C   UNL     1      34.305 -22.158 -16.671  0.00  0.00    +0.051 C 
ATOM      4  C   UNL     1      35.130 -23.149 -14.588  0.00  0.00    +0.004 C 
ATOM      5  C   UNL     1      36.879 -21.257 -17.259  0.00  0.00    +0.007 C 
ATOM      6  C   UNL     1      34.545 -21.444 -17.846  0.00  0.00    +0.021 C 
ATOM      7  C   UNL     1      35.828 -20.994 -18.139  0.00  0.00    +0.077 C 
ATOM      8  C   UNL     1      37.702 -22.248 -15.176  0.00  0.00    +0.000 C 
ATOM      9  C   UNL     1      36.180 -23.412 -13.708  0.00  0.00    +0.031 C 
ATOM     10  C   UNL     1      37.464 -22.963 -14.002  0.00  0.00    +0.003 C 
ENDROOT
BRANCH   9  13
ATOM     11  N   UNL     1      36.845 -25.101 -12.013  0.00  0.00    -0.343 N 
ATOM     12  N   UNL     1      34.824 -23.949 -11.797  0.00  0.00    -0.285 NA
ATOM     13  C   UNL     1      35.933 -24.158 -12.484  0.00  0.00    +0.117 C 
ATOM     14  H   UNL     1      36.659 -25.594 -11.183  0.00  0.00    +0.144 HD
ATOM     15  H   UNL     1      37.677 -25.273 -12.513  0.00  0.00    +0.144 HD
ATOM     16  H   UNL     1      34.655 -24.452 -10.969  0.00  0.00    +0.188 HD
ENDBRANCH   9  13
BRANCH   3  18
ATOM     17  O   UNL     1      32.476 -21.581 -14.367  0.00  0.00    -0.270 OA
ATOM     18  N   UNL     1      32.993 -22.583 -16.428  0.00  0.00    -0.280 N 
ATOM     19  C   UNL     1      32.184 -22.281 -15.329  0.00  0.00    +0.249 C 
ATOM     20  H   UNL     1      32.594 -23.166 -17.113  0.00  0.00    +0.155 HD
BRANCH  19  21
ATOM     21  C   UNL     1      30.838 -22.912 -15.343  0.00  0.00    +0.053 C 
ATOM     22  C   UNL     1      30.575 -24.005 -14.543  0.00  0.00    +0.016 C 
ATOM     23  C   UNL     1      29.882 -22.366 -16.176  0.00  0.00    +0.004 C 
ATOM     24  C   UNL     1      29.303 -24.577 -14.576  0.00  0.00    +0.130 C 
ATOM     25  C   UNL     1      31.623 -24.584 -13.645  0.00  0.00    +0.034 C 
ATOM     26  C   UNL     1      28.609 -22.938 -16.209  0.00  0.00    +0.003 C 
ATOM     27  C   UNL     1      28.321 -24.042 -15.409  0.00  0.00    +0.036 C 
BRANCH  24  28
ATOM     28  O   UNL     1      29.001 -25.656 -13.801  0.00  0.00    -0.506 OA
ATOM     29  H   UNL     1      29.658 -26.035 -13.250  0.00  0.00    +0.292 HD
ENDBRANCH  24  28
ENDBRANCH  19  21
ENDBRANCH   3  18
BRANCH   7  31
ATOM     30  O   UNL     1      37.200 -19.995 -19.816  0.00  0.00    -0.245 OA
ATOM     31  C   UNL     1      36.075 -20.249 -19.364  0.00  0.00    +0.341 C 
BRANCH  31  32
ATOM     32  O   UNL     1      34.906 -19.861 -19.961  0.00  0.00    -0.441 OA
ATOM     33  C   UNL     1      35.014 -18.974 -21.079  0.00  0.00    +0.256 C 
ENDBRANCH  31  32
ENDBRANCH   7  31
TORSDOF 6
ENDMDL
