MODEL 1
REMARK VINA RESULT:     -11.4      0.000      0.000
REMARK  Name = 153241
REMARK  8 active torsions:
REMARK  status: ('A' for Active; 'I' for Inactive)
REMARK    1  A    between atoms: N_2  and  C_9
REMARK    2  A    between atoms: N_3  and  C_24
REMARK    3  A    between atoms: C_7  and  C_13
REMARK    4  A    between atoms: C_13  and  N_15
REMARK    5  A    between atoms: C_16  and  O_18
REMARK    6  A    between atoms: O_18  and  C_20
REMARK    7  A    between atoms: C_25  and  C_32
REMARK    8  A    between atoms: C_26  and  O_35
REMARK                            x       y       z     vdW  Elec       q    Type
REMARK                         _______ _______ _______ _____ _____    ______ ____
ROOT
ATOM      1  O   UNL     1      35.582 -21.783 -17.618  0.00  0.00    -0.252 OA
ATOM      2  N   UNL     1      37.399 -21.339 -16.206  0.00  0.00    -0.268 N 
ATOM      3  N   UNL     1      37.073 -20.044 -18.090  0.00  0.00    -0.268 N 
ATOM      4  C   UNL     1      36.578 -21.122 -17.340  0.00  0.00    +0.308 C 
ATOM      5  H   UNL     1      38.166 -20.729 -16.110  0.00  0.00    +0.156 HD
ATOM      6  H   UNL     1      37.884 -19.610 -17.739  0.00  0.00    +0.156 HD
ENDROOT
BRANCH   2   9
ATOM      7  C   UNL     1      35.980 -23.307 -13.433  0.00  0.00    -0.001 C 
ATOM      8  C   UNL     1      36.106 -22.344 -14.427  0.00  0.00    +0.012 C 
ATOM      9  C   UNL     1      37.263 -22.302 -15.204  0.00  0.00    +0.051 C 
ATOM     10  C   UNL     1      36.995 -24.230 -13.205  0.00  0.00    -0.003 C 
ATOM     11  C   UNL     1      38.286 -23.225 -14.983  0.00  0.00    +0.015 C 
ATOM     12  C   UNL     1      38.152 -24.188 -13.984  0.00  0.00    +0.001 C 
BRANCH   7  13
ATOM     13  C   UNL     1      34.736 -23.351 -12.595  0.00  0.00    +0.119 C 
BRANCH  13  15
ATOM     14  O   UNL     1      32.028 -24.394 -12.487  0.00  0.00    -0.226 OA
ATOM     15  N   UNL     1      33.578 -22.884 -13.321  0.00  0.00    -0.267 N 
ATOM     16  C   UNL     1      32.324 -23.446 -13.205  0.00  0.00    +0.402 C 
ATOM     17  H   UNL     1      33.691 -22.122 -13.935  0.00  0.00    +0.153 HD
BRANCH  16  18
ATOM     18  O   UNL     1      31.439 -22.786 -14.017  0.00  0.00    -0.436 OA
BRANCH  18  20
ATOM     19  O   UNL     1      30.037 -21.683 -16.471  0.00  0.00    -0.350 OA
ATOM     20  C   UNL     1      31.189 -23.381 -15.287  0.00  0.00    +0.202 C 
ATOM     21  C   UNL     1      29.736 -23.772 -15.396  0.00  0.00    +0.078 C 
ATOM     22  C   UNL     1      31.320 -22.322 -16.362  0.00  0.00    +0.186 C 
ATOM     23  C   UNL     1      29.075 -22.451 -15.736  0.00  0.00    +0.146 C 
ENDBRANCH  18  20
ENDBRANCH  16  18
ENDBRANCH  13  15
ENDBRANCH   7  13
ENDBRANCH   2   9
BRANCH   3  24
ATOM     24  C   UNL     1      36.552 -19.505 -19.289  0.00  0.00    +0.055 C 
ATOM     25  C   UNL     1      35.529 -18.449 -21.638  0.00  0.00    +0.070 C 
ATOM     26  C   UNL     1      34.708 -19.194 -20.792  0.00  0.00    +0.143 C 
ATOM     27  C   UNL     1      35.222 -19.726 -19.609  0.00  0.00    +0.052 C 
ATOM     28  C   UNL     1      37.381 -18.767 -20.118  0.00  0.00    +0.015 C 
ATOM     29  C   UNL     1      36.866 -18.236 -21.301  0.00  0.00    +0.007 C 
BRANCH  25  32
ATOM     30  O   UNL     1      35.174 -16.552 -23.022  0.00  0.00    -0.431 OA
ATOM     31  N   UNL     1      34.124 -17.370 -24.850  0.00  0.00    -0.203 NA
ATOM     32  C   UNL     1      35.016 -17.890 -22.867  0.00  0.00    +0.169 C 
ATOM     33  C   UNL     1      34.382 -18.386 -23.968  0.00  0.00    +0.140 C 
ATOM     34  C   UNL     1      34.613 -16.314 -24.239  0.00  0.00    +0.285 C 
ENDBRANCH  25  32
BRANCH  26  35
ATOM     35  O   UNL     1      33.398 -19.418 -21.097  0.00  0.00    -0.471 OA
ATOM     36  C   UNL     1      32.583 -19.985 -20.074  0.00  0.00    +0.252 C 
ENDBRANCH  26  35
ENDBRANCH   3  24
TORSDOF 8
ENDMDL
MODEL 2
REMARK VINA RESULT:     -11.3      3.126      5.821
REMARK  Name = 153241
REMARK  8 active torsions:
REMARK  status: ('A' for Active; 'I' for Inactive)
REMARK    1  A    between atoms: N_2  and  C_9
REMARK    2  A    between atoms: N_3  and  C_24
REMARK    3  A    between atoms: C_7  and  C_13
REMARK    4  A    between atoms: C_13  and  N_15
REMARK    5  A    between atoms: C_16  and  O_18
REMARK    6  A    between atoms: O_18  and  C_20
REMARK    7  A    between atoms: C_25  and  C_32
REMARK    8  A    between atoms: C_26  and  O_35
REMARK                            x       y       z     vdW  Elec       q    Type
REMARK                         _______ _______ _______ _____ _____    ______ ____
ROOT
ATOM      1  O   UNL     1      34.213 -18.223 -19.918  0.00  0.00    -0.252 OA
ATOM      2  N   UNL     1      35.576 -20.110 -20.190  0.00  0.00    -0.268 N 
ATOM      3  N   UNL     1      35.474 -18.523 -21.864  0.00  0.00    -0.268 N 
ATOM      4  C   UNL     1      35.003 -18.878 -20.590  0.00  0.00    +0.308 C 
ATOM      5  H   UNL     1      36.195 -20.523 -20.834  0.00  0.00    +0.156 HD
ATOM      6  H   UNL     1      36.107 -19.152 -22.281  0.00  0.00    +0.156 HD
ENDROOT
BRANCH   2   9
ATOM      7  C   UNL     1      36.188 -21.571 -16.863  0.00  0.00    -0.001 C 
ATOM      8  C   UNL     1      36.393 -20.866 -18.044  0.00  0.00    +0.012 C 
ATOM      9  C   UNL     1      35.380 -20.816 -19.001  0.00  0.00    +0.051 C 
ATOM     10  C   UNL     1      34.984 -22.225 -16.627  0.00  0.00    -0.003 C 
ATOM     11  C   UNL     1      34.168 -21.469 -18.771  0.00  0.00    +0.015 C 
ATOM     12  C   UNL     1      33.971 -22.173 -17.584  0.00  0.00    +0.001 C 
BRANCH   7  13
ATOM     13  C   UNL     1      37.278 -21.628 -15.834  0.00  0.00    +0.119 C 
BRANCH  13  15
ATOM     14  O   UNL     1      39.356 -23.366 -14.784  0.00  0.00    -0.226 OA
ATOM     15  N   UNL     1      37.123 -22.756 -14.944  0.00  0.00    -0.267 N 
ATOM     16  C   UNL     1      38.175 -23.527 -14.496  0.00  0.00    +0.402 C 
ATOM     17  H   UNL     1      36.215 -22.987 -14.641  0.00  0.00    +0.153 HD
BRANCH  16  18
ATOM     18  O   UNL     1      37.711 -24.517 -13.670  0.00  0.00    -0.436 OA
BRANCH  18  20
ATOM     19  O   UNL     1      36.761 -25.117 -10.851  0.00  0.00    -0.350 OA
ATOM     20  C   UNL     1      38.448 -24.730 -12.470  0.00  0.00    +0.202 C 
ATOM     21  C   UNL     1      38.348 -23.516 -11.580  0.00  0.00    +0.078 C 
ATOM     22  C   UNL     1      37.751 -25.793 -11.646  0.00  0.00    +0.186 C 
ATOM     23  C   UNL     1      36.988 -23.704 -10.937  0.00  0.00    +0.146 C 
ENDBRANCH  18  20
ENDBRANCH  16  18
ENDBRANCH  13  15
ENDBRANCH   7  13
ENDBRANCH   2   9
BRANCH   3  24
ATOM     24  C   UNL     1      35.150 -17.374 -22.624  0.00  0.00    +0.055 C 
ATOM     25  C   UNL     1      34.516 -15.124 -24.111  0.00  0.00    +0.070 C 
ATOM     26  C   UNL     1      35.076 -14.986 -22.841  0.00  0.00    +0.143 C 
ATOM     27  C   UNL     1      35.395 -16.119 -22.091  0.00  0.00    +0.052 C 
ATOM     28  C   UNL     1      34.595 -17.529 -23.884  0.00  0.00    +0.015 C 
ATOM     29  C   UNL     1      34.276 -16.396 -24.632  0.00  0.00    +0.007 C 
BRANCH  25  32
ATOM     30  O   UNL     1      34.664 -13.948 -26.169  0.00  0.00    -0.431 OA
ATOM     31  N   UNL     1      33.472 -12.056 -25.829  0.00  0.00    -0.203 NA
ATOM     32  C   UNL     1      34.178 -13.964 -24.902  0.00  0.00    +0.169 C 
ATOM     33  C   UNL     1      33.460 -12.824 -24.694  0.00  0.00    +0.140 C 
ATOM     34  C   UNL     1      34.196 -12.768 -26.663  0.00  0.00    +0.285 C 
ENDBRANCH  25  32
BRANCH  26  35
ATOM     35  O   UNL     1      35.322 -13.756 -22.307  0.00  0.00    -0.471 OA
ATOM     36  C   UNL     1      34.582 -13.397 -21.142  0.00  0.00    +0.252 C 
ENDBRANCH  26  35
ENDBRANCH   3  24
TORSDOF 8
ENDMDL
MODEL 3
REMARK VINA RESULT:     -11.1      3.438     10.483
REMARK  Name = 153241
REMARK  8 active torsions:
REMARK  status: ('A' for Active; 'I' for Inactive)
REMARK    1  A    between atoms: N_2  and  C_9
REMARK    2  A    between atoms: N_3  and  C_24
REMARK    3  A    between atoms: C_7  and  C_13
REMARK    4  A    between atoms: C_13  and  N_15
REMARK    5  A    between atoms: C_16  and  O_18
REMARK    6  A    between atoms: O_18  and  C_20
REMARK    7  A    between atoms: C_25  and  C_32
REMARK    8  A    between atoms: C_26  and  O_35
REMARK                            x       y       z     vdW  Elec       q    Type
REMARK                         _______ _______ _______ _____ _____    ______ ____
ROOT
ATOM      1  O   UNL     1      33.630 -19.127 -19.842  0.00  0.00    -0.252 OA
ATOM      2  N   UNL     1      35.408 -19.346 -21.354  0.00  0.00    -0.268 N 
ATOM      3  N   UNL     1      35.327 -20.695 -19.482  0.00  0.00    -0.268 N 
ATOM      4  C   UNL     1      34.676 -19.669 -20.184  0.00  0.00    +0.308 C 
ATOM      5  H   UNL     1      36.231 -19.865 -21.500  0.00  0.00    +0.156 HD
ATOM      6  H   UNL     1      36.161 -21.032 -19.882  0.00  0.00    +0.156 HD
ENDROOT
BRANCH   2   9
ATOM      7  C   UNL     1      35.074 -16.095 -23.056  0.00  0.00    -0.001 C 
ATOM      8  C   UNL     1      35.369 -17.041 -22.080  0.00  0.00    +0.012 C 
ATOM      9  C   UNL     1      35.114 -18.389 -22.327  0.00  0.00    +0.051 C 
ATOM     10  C   UNL     1      34.529 -16.480 -24.276  0.00  0.00    -0.003 C 
ATOM     11  C   UNL     1      34.568 -18.784 -23.549  0.00  0.00    +0.015 C 
ATOM     12  C   UNL     1      34.276 -17.830 -24.523  0.00  0.00    +0.001 C 
BRANCH   7  13
ATOM     13  C   UNL     1      35.347 -14.644 -22.790  0.00  0.00    +0.119 C 
BRANCH  13  15
ATOM     14  O   UNL     1      33.225 -13.109 -24.046  0.00  0.00    -0.226 OA
ATOM     15  N   UNL     1      34.227 -13.992 -22.150  0.00  0.00    -0.267 N 
ATOM     16  C   UNL     1      33.263 -13.281 -22.833  0.00  0.00    +0.402 C 
ATOM     17  H   UNL     1      34.149 -14.059 -21.171  0.00  0.00    +0.153 HD
BRANCH  16  18
ATOM     18  O   UNL     1      32.337 -12.784 -21.953  0.00  0.00    -0.436 OA
BRANCH  18  20
ATOM     19  O   UNL     1      30.844 -11.142 -19.884  0.00  0.00    -0.350 OA
ATOM     20  C   UNL     1      32.807 -11.799 -21.039  0.00  0.00    +0.202 C 
ATOM     21  C   UNL     1      32.408 -10.423 -21.512  0.00  0.00    +0.078 C 
ATOM     22  C   UNL     1      32.039 -11.928 -19.739  0.00  0.00    +0.186 C 
ATOM     23  C   UNL     1      30.962 -10.340 -21.067  0.00  0.00    +0.146 C 
ENDBRANCH  18  20
ENDBRANCH  16  18
ENDBRANCH  13  15
ENDBRANCH   7  13
ENDBRANCH   2   9
BRANCH   3  24
ATOM     24  C   UNL     1      34.932 -21.307 -18.268  0.00  0.00    +0.055 C 
ATOM     25  C   UNL     1      34.159 -22.504 -15.892  0.00  0.00    +0.070 C 
ATOM     26  C   UNL     1      35.467 -22.046 -16.050  0.00  0.00    +0.143 C 
ATOM     27  C   UNL     1      35.857 -21.444 -17.246  0.00  0.00    +0.052 C 
ATOM     28  C   UNL     1      33.629 -21.755 -18.128  0.00  0.00    +0.015 C 
ATOM     29  C   UNL     1      33.240 -22.358 -16.932  0.00  0.00    +0.007 C 
BRANCH  25  32
ATOM     30  O   UNL     1      32.437 -23.519 -14.610  0.00  0.00    -0.431 OA
ATOM     31  N   UNL     1      33.427 -24.052 -12.648  0.00  0.00    -0.203 NA
ATOM     32  C   UNL     1      33.735 -23.131 -14.662  0.00  0.00    +0.169 C 
ATOM     33  C   UNL     1      34.335 -23.450 -13.479  0.00  0.00    +0.140 C 
ATOM     34  C   UNL     1      32.328 -24.064 -13.367  0.00  0.00    +0.285 C 
ENDBRANCH  25  32
BRANCH  26  35
ATOM     35  O   UNL     1      36.385 -22.176 -15.050  0.00  0.00    -0.471 OA
ATOM     36  C   UNL     1      37.742 -21.886 -15.378  0.00  0.00    +0.252 C 
ENDBRANCH  26  35
ENDBRANCH   3  24
TORSDOF 8
ENDMDL
MODEL 4
REMARK VINA RESULT:     -11.1      4.918      7.667
REMARK  Name = 153241
REMARK  8 active torsions:
REMARK  status: ('A' for Active; 'I' for Inactive)
REMARK    1  A    between atoms: N_2  and  C_9
REMARK    2  A    between atoms: N_3  and  C_24
REMARK    3  A    between atoms: C_7  and  C_13
REMARK    4  A    between atoms: C_13  and  N_15
REMARK    5  A    between atoms: C_16  and  O_18
REMARK    6  A    between atoms: O_18  and  C_20
REMARK    7  A    between atoms: C_25  and  C_32
REMARK    8  A    between atoms: C_26  and  O_35
REMARK                            x       y       z     vdW  Elec       q    Type
REMARK                         _______ _______ _______ _____ _____    ______ ____
ROOT
ATOM      1  O   UNL     1      34.579 -14.951 -20.235  0.00  0.00    -0.252 OA
ATOM      2  N   UNL     1      35.097 -16.502 -21.913  0.00  0.00    -0.268 N 
ATOM      3  N   UNL     1      34.388 -14.383 -22.495  0.00  0.00    -0.268 N 
ATOM      4  C   UNL     1      34.676 -15.241 -21.422  0.00  0.00    +0.308 C 
ATOM      5  H   UNL     1      35.126 -16.592 -22.893  0.00  0.00    +0.156 HD
ATOM      6  H   UNL     1      34.514 -14.760 -23.396  0.00  0.00    +0.156 HD
ENDROOT
BRANCH   2   9
ATOM      7  C   UNL     1      34.894 -19.632 -19.980  0.00  0.00    -0.001 C 
ATOM      8  C   UNL     1      34.506 -18.507 -20.698  0.00  0.00    +0.012 C 
ATOM      9  C   UNL     1      35.477 -17.634 -21.190  0.00  0.00    +0.051 C 
ATOM     10  C   UNL     1      36.239 -19.898 -19.748  0.00  0.00    -0.003 C 
ATOM     11  C   UNL     1      36.829 -17.894 -20.962  0.00  0.00    +0.015 C 
ATOM     12  C   UNL     1      37.209 -19.025 -20.242  0.00  0.00    +0.001 C 
BRANCH   7  13
ATOM     13  C   UNL     1      33.851 -20.571 -19.449  0.00  0.00    +0.119 C 
BRANCH  13  15
ATOM     14  O   UNL     1      32.435 -22.032 -17.376  0.00  0.00    -0.226 OA
ATOM     15  N   UNL     1      34.399 -21.504 -18.492  0.00  0.00    -0.267 N 
ATOM     16  C   UNL     1      33.644 -22.154 -17.538  0.00  0.00    +0.402 C 
ATOM     17  H   UNL     1      35.366 -21.685 -18.522  0.00  0.00    +0.153 HD
BRANCH  16  18
ATOM     18  O   UNL     1      34.446 -22.969 -16.782  0.00  0.00    -0.436 OA
BRANCH  18  20
ATOM     19  O   UNL     1      36.829 -23.600 -15.012  0.00  0.00    -0.350 OA
ATOM     20  C   UNL     1      34.794 -22.483 -15.489  0.00  0.00    +0.202 C 
ATOM     21  C   UNL     1      34.527 -23.545 -14.451  0.00  0.00    +0.078 C 
ATOM     22  C   UNL     1      36.298 -22.324 -15.411  0.00  0.00    +0.186 C 
ATOM     23  C   UNL     1      35.744 -24.438 -14.590  0.00  0.00    +0.146 C 
ENDBRANCH  18  20
ENDBRANCH  16  18
ENDBRANCH  13  15
ENDBRANCH   7  13
ENDBRANCH   2   9
BRANCH   3  24
ATOM     24  C   UNL     1      33.939 -13.042 -22.442  0.00  0.00    +0.055 C 
ATOM     25  C   UNL     1      33.059 -10.417 -22.336  0.00  0.00    +0.070 C 
ATOM     26  C   UNL     1      32.451 -11.389 -21.542  0.00  0.00    +0.143 C 
ATOM     27  C   UNL     1      32.893 -12.712 -21.595  0.00  0.00    +0.052 C 
ATOM     28  C   UNL     1      34.554 -12.089 -23.237  0.00  0.00    +0.015 C 
ATOM     29  C   UNL     1      34.110 -10.768 -23.184  0.00  0.00    +0.007 C 
BRANCH  25  32
ATOM     30  O   UNL     1      32.287  -8.491 -23.491  0.00  0.00    -0.431 OA
ATOM     31  N   UNL     1      31.979  -6.942 -21.872  0.00  0.00    -0.203 NA
ATOM     32  C   UNL     1      32.615  -9.043 -22.297  0.00  0.00    +0.169 C 
ATOM     33  C   UNL     1      32.432  -8.111 -21.318  0.00  0.00    +0.140 C 
ATOM     34  C   UNL     1      31.914  -7.226 -23.153  0.00  0.00    +0.285 C 
ENDBRANCH  25  32
BRANCH  26  35
ATOM     35  O   UNL     1      31.421 -11.075 -20.705  0.00  0.00    -0.471 OA
ATOM     36  C   UNL     1      31.618 -11.324 -19.316  0.00  0.00    +0.252 C 
ENDBRANCH  26  35
ENDBRANCH   3  24
TORSDOF 8
ENDMDL
MODEL 5
REMARK VINA RESULT:     -10.8      2.651      5.282
REMARK  Name = 153241
REMARK  8 active torsions:
REMARK  status: ('A' for Active; 'I' for Inactive)
REMARK    1  A    between atoms: N_2  and  C_9
REMARK    2  A    between atoms: N_3  and  C_24
REMARK    3  A    between atoms: C_7  and  C_13
REMARK    4  A    between atoms: C_13  and  N_15
REMARK    5  A    between atoms: C_16  and  O_18
REMARK    6  A    between atoms: O_18  and  C_20
REMARK    7  A    between atoms: C_25  and  C_32
REMARK    8  A    between atoms: C_26  and  O_35
REMARK                            x       y       z     vdW  Elec       q    Type
REMARK                         _______ _______ _______ _____ _____    ______ ____
ROOT
ATOM      1  O   UNL     1      33.411 -19.935 -19.131  0.00  0.00    -0.252 OA
ATOM      2  N   UNL     1      35.280 -21.028 -18.234  0.00  0.00    -0.268 N 
ATOM      3  N   UNL     1      35.558 -19.518 -19.959  0.00  0.00    -0.268 N 
ATOM      4  C   UNL     1      34.621 -20.135 -19.115  0.00  0.00    +0.308 C 
ATOM      5  H   UNL     1      36.257 -21.086 -18.336  0.00  0.00    +0.156 HD
ATOM      6  H   UNL     1      36.498 -19.780 -19.827  0.00  0.00    +0.156 HD
ENDROOT
BRANCH   2   9
ATOM      7  C   UNL     1      34.913 -22.965 -15.122  0.00  0.00    -0.001 C 
ATOM      8  C   UNL     1      35.473 -22.159 -16.107  0.00  0.00    +0.012 C 
ATOM      9  C   UNL     1      34.727 -21.837 -17.240  0.00  0.00    +0.051 C 
ATOM     10  C   UNL     1      33.617 -23.452 -15.254  0.00  0.00    -0.003 C 
ATOM     11  C   UNL     1      33.426 -22.321 -17.380  0.00  0.00    +0.015 C 
ATOM     12  C   UNL     1      32.871 -23.128 -16.387  0.00  0.00    +0.001 C 
BRANCH   7  13
ATOM     13  C   UNL     1      35.716 -23.314 -13.903  0.00  0.00    +0.119 C 
BRANCH  13  15
ATOM     14  O   UNL     1      36.089 -26.096 -14.653  0.00  0.00    -0.226 OA
ATOM     15  N   UNL     1      36.952 -23.981 -14.243  0.00  0.00    -0.267 N 
ATOM     16  C   UNL     1      37.031 -25.314 -14.588  0.00  0.00    +0.402 C 
ATOM     17  H   UNL     1      37.784 -23.455 -14.225  0.00  0.00    +0.153 HD
BRANCH  16  18
ATOM     18  O   UNL     1      38.333 -25.652 -14.854  0.00  0.00    -0.436 OA
BRANCH  18  20
ATOM     19  O   UNL     1      39.506 -23.999 -12.595  0.00  0.00    -0.350 OA
ATOM     20  C   UNL     1      39.121 -26.042 -13.733  0.00  0.00    +0.202 C 
ATOM     21  C   UNL     1      40.558 -25.637 -13.946  0.00  0.00    +0.078 C 
ATOM     22  C   UNL     1      38.723 -25.204 -12.536  0.00  0.00    +0.186 C 
ATOM     23  C   UNL     1      40.531 -24.165 -13.585  0.00  0.00    +0.146 C 
ENDBRANCH  18  20
ENDBRANCH  16  18
ENDBRANCH  13  15
ENDBRANCH   7  13
ENDBRANCH   2   9
BRANCH   3  24
ATOM     24  C   UNL     1      35.318 -18.565 -20.977  0.00  0.00    +0.055 C 
ATOM     25  C   UNL     1      34.848 -16.700 -22.971  0.00  0.00    +0.070 C 
ATOM     26  C   UNL     1      35.185 -16.277 -21.685  0.00  0.00    +0.143 C 
ATOM     27  C   UNL     1      35.421 -17.216 -20.681  0.00  0.00    +0.052 C 
ATOM     28  C   UNL     1      34.985 -19.002 -22.249  0.00  0.00    +0.015 C 
ATOM     29  C   UNL     1      34.748 -18.063 -23.253  0.00  0.00    +0.007 C 
BRANCH  25  32
ATOM     30  O   UNL     1      33.784 -14.708 -23.706  0.00  0.00    -0.431 OA
ATOM     31  N   UNL     1      34.435 -14.476 -25.860  0.00  0.00    -0.203 NA
ATOM     32  C   UNL     1      34.599 -15.744 -24.025  0.00  0.00    +0.169 C 
ATOM     33  C   UNL     1      34.993 -15.608 -25.324  0.00  0.00    +0.140 C 
ATOM     34  C   UNL     1      33.734 -13.989 -24.861  0.00  0.00    +0.285 C 
ENDBRANCH  25  32
BRANCH  26  35
ATOM     35  O   UNL     1      35.289 -14.952 -21.383  0.00  0.00    -0.471 OA
ATOM     36  C   UNL     1      34.766 -14.533 -20.124  0.00  0.00    +0.252 C 
ENDBRANCH  26  35
ENDBRANCH   3  24
TORSDOF 8
ENDMDL
MODEL 6
REMARK VINA RESULT:     -10.8      5.886      9.575
REMARK  Name = 153241
REMARK  8 active torsions:
REMARK  status: ('A' for Active; 'I' for Inactive)
REMARK    1  A    between atoms: N_2  and  C_9
REMARK    2  A    between atoms: N_3  and  C_24
REMARK    3  A    between atoms: C_7  and  C_13
REMARK    4  A    between atoms: C_13  and  N_15
REMARK    5  A    between atoms: C_16  and  O_18
REMARK    6  A    between atoms: O_18  and  C_20
REMARK    7  A    between atoms: C_25  and  C_32
REMARK    8  A    between atoms: C_26  and  O_35
REMARK                            x       y       z     vdW  Elec       q    Type
REMARK                         _______ _______ _______ _____ _____    ______ ____
ROOT
ATOM      1  O   UNL     1      33.656 -13.732 -21.739  0.00  0.00    -0.252 OA
ATOM      2  N   UNL     1      34.779 -14.567 -23.619  0.00  0.00    -0.268 N 
ATOM      3  N   UNL     1      34.244 -12.323 -23.510  0.00  0.00    -0.268 N 
ATOM      4  C   UNL     1      34.169 -13.553 -22.838  0.00  0.00    +0.308 C 
ATOM      5  H   UNL     1      35.150 -14.276 -24.482  0.00  0.00    +0.156 HD
ATOM      6  H   UNL     1      34.688 -12.337 -24.389  0.00  0.00    +0.156 HD
ENDROOT
BRANCH   2   9
ATOM      7  C   UNL     1      35.814 -17.677 -21.935  0.00  0.00    -0.001 C 
ATOM      8  C   UNL     1      35.676 -16.323 -22.221  0.00  0.00    +0.012 C 
ATOM      9  C   UNL     1      34.923 -15.924 -23.324  0.00  0.00    +0.051 C 
ATOM     10  C   UNL     1      35.207 -18.637 -22.737  0.00  0.00    -0.003 C 
ATOM     11  C   UNL     1      34.310 -16.881 -24.134  0.00  0.00    +0.015 C 
ATOM     12  C   UNL     1      34.452 -18.237 -23.840  0.00  0.00    +0.001 C 
BRANCH   7  13
ATOM     13  C   UNL     1      36.626 -18.107 -20.749  0.00  0.00    +0.119 C 
BRANCH  13  15
ATOM     14  O   UNL     1      37.317 -20.719 -19.683  0.00  0.00    -0.226 OA
ATOM     15  N   UNL     1      35.859 -18.920 -19.835  0.00  0.00    -0.267 N 
ATOM     16  C   UNL     1      36.271 -20.156 -19.381  0.00  0.00    +0.402 C 
ATOM     17  H   UNL     1      34.993 -18.574 -19.519  0.00  0.00    +0.153 HD
BRANCH  16  18
ATOM     18  O   UNL     1      35.331 -20.678 -18.530  0.00  0.00    -0.436 OA
BRANCH  18  20
ATOM     19  O   UNL     1      32.381 -21.058 -17.930  0.00  0.00    -0.350 OA
ATOM     20  C   UNL     1      34.373 -21.554 -19.115  0.00  0.00    +0.202 C 
ATOM     21  C   UNL     1      34.076 -22.696 -18.174  0.00  0.00    +0.078 C 
ATOM     22  C   UNL     1      33.038 -20.843 -19.191  0.00  0.00    +0.186 C 
ATOM     23  C   UNL     1      33.101 -22.062 -17.202  0.00  0.00    +0.146 C 
ENDBRANCH  18  20
ENDBRANCH  16  18
ENDBRANCH  13  15
ENDBRANCH   7  13
ENDBRANCH   2   9
BRANCH   3  24
ATOM     24  C   UNL     1      33.758 -11.066 -23.081  0.00  0.00    +0.055 C 
ATOM     25  C   UNL     1      32.805  -8.604 -22.240  0.00  0.00    +0.070 C 
ATOM     26  C   UNL     1      32.302  -9.776 -21.676  0.00  0.00    +0.143 C 
ATOM     27  C   UNL     1      32.780 -11.016 -22.100  0.00  0.00    +0.052 C 
ATOM     28  C   UNL     1      34.269  -9.911 -23.650  0.00  0.00    +0.015 C 
ATOM     29  C   UNL     1      33.789  -8.672 -23.227  0.00  0.00    +0.007 C 
BRANCH  25  32
ATOM     30  O   UNL     1      32.935  -6.775 -20.731  0.00  0.00    -0.431 OA
ATOM     31  N   UNL     1      31.343  -5.334 -21.443  0.00  0.00    -0.203 NA
ATOM     32  C   UNL     1      32.322  -7.310 -21.816  0.00  0.00    +0.169 C 
ATOM     33  C   UNL     1      31.361  -6.444 -22.248  0.00  0.00    +0.140 C 
ATOM     34  C   UNL     1      32.291  -5.586 -20.569  0.00  0.00    +0.285 C 
ENDBRANCH  25  32
BRANCH  26  35
ATOM     35  O   UNL     1      31.340  -9.739 -20.710  0.00  0.00    -0.471 OA
ATOM     36  C   UNL     1      31.741 -10.080 -19.386  0.00  0.00    +0.252 C 
ENDBRANCH  26  35
ENDBRANCH   3  24
TORSDOF 8
ENDMDL
MODEL 7
REMARK VINA RESULT:     -10.8      2.413      4.982
REMARK  Name = 153241
REMARK  8 active torsions:
REMARK  status: ('A' for Active; 'I' for Inactive)
REMARK    1  A    between atoms: N_2  and  C_9
REMARK    2  A    between atoms: N_3  and  C_24
REMARK    3  A    between atoms: C_7  and  C_13
REMARK    4  A    between atoms: C_13  and  N_15
REMARK    5  A    between atoms: C_16  and  O_18
REMARK    6  A    between atoms: O_18  and  C_20
REMARK    7  A    between atoms: C_25  and  C_32
REMARK    8  A    between atoms: C_26  and  O_35
REMARK                            x       y       z     vdW  Elec       q    Type
REMARK                         _______ _______ _______ _____ _____    ______ ____
ROOT
ATOM      1  O   UNL     1      32.762 -20.840 -18.162  0.00  0.00    -0.252 OA
ATOM      2  N   UNL     1      34.457 -21.941 -16.978  0.00  0.00    -0.268 N 
ATOM      3  N   UNL     1      34.995 -20.687 -18.841  0.00  0.00    -0.268 N 
ATOM      4  C   UNL     1      33.947 -21.122 -18.015  0.00  0.00    +0.308 C 
ATOM      5  H   UNL     1      35.432 -22.082 -16.985  0.00  0.00    +0.156 HD
ATOM      6  H   UNL     1      35.896 -20.997 -18.595  0.00  0.00    +0.156 HD
ENDROOT
BRANCH   2   9
ATOM      7  C   UNL     1      33.699 -23.470 -13.713  0.00  0.00    -0.001 C 
ATOM      8  C   UNL     1      34.400 -22.839 -14.735  0.00  0.00    +0.012 C 
ATOM      9  C   UNL     1      33.762 -22.575 -15.946  0.00  0.00    +0.051 C 
ATOM     10  C   UNL     1      32.370 -23.840 -13.886  0.00  0.00    -0.003 C 
ATOM     11  C   UNL     1      32.429 -22.942 -16.129  0.00  0.00    +0.015 C 
ATOM     12  C   UNL     1      31.733 -23.574 -15.099  0.00  0.00    +0.001 C 
BRANCH   7  13
ATOM     13  C   UNL     1      34.384 -23.756 -12.409  0.00  0.00    +0.119 C 
BRANCH  13  15
ATOM     14  O   UNL     1      36.267 -24.646 -10.383  0.00  0.00    -0.226 OA
ATOM     15  N   UNL     1      35.744 -24.205 -12.600  0.00  0.00    -0.267 N 
ATOM     16  C   UNL     1      36.568 -24.611 -11.571  0.00  0.00    +0.402 C 
ATOM     17  H   UNL     1      36.103 -24.221 -13.517  0.00  0.00    +0.153 HD
BRANCH  16  18
ATOM     18  O   UNL     1      37.792 -24.976 -12.068  0.00  0.00    -0.436 OA
BRANCH  18  20
ATOM     19  O   UNL     1      39.610 -26.439 -14.008  0.00  0.00    -0.350 OA
ATOM     20  C   UNL     1      37.974 -24.810 -13.471  0.00  0.00    +0.202 C 
ATOM     21  C   UNL     1      39.281 -24.108 -13.742  0.00  0.00    +0.078 C 
ATOM     22  C   UNL     1      38.201 -26.169 -14.102  0.00  0.00    +0.186 C 
ATOM     23  C   UNL     1      40.283 -25.237 -13.609  0.00  0.00    +0.146 C 
ENDBRANCH  18  20
ENDBRANCH  16  18
ENDBRANCH  13  15
ENDBRANCH   7  13
ENDBRANCH   2   9
BRANCH   3  24
ATOM     24  C   UNL     1      34.916 -19.857 -19.984  0.00  0.00    +0.055 C 
ATOM     25  C   UNL     1      34.761 -18.233 -22.223  0.00  0.00    +0.070 C 
ATOM     26  C   UNL     1      35.969 -18.364 -21.538  0.00  0.00    +0.143 C 
ATOM     27  C   UNL     1      36.047 -19.181 -20.410  0.00  0.00    +0.052 C 
ATOM     28  C   UNL     1      33.709 -19.739 -20.654  0.00  0.00    +0.015 C 
ATOM     29  C   UNL     1      33.631 -18.920 -21.780  0.00  0.00    +0.007 C 
BRANCH  25  32
ATOM     30  O   UNL     1      35.051 -16.102 -23.232  0.00  0.00    -0.431 OA
ATOM     31  N   UNL     1      34.376 -16.389 -25.372  0.00  0.00    -0.203 NA
ATOM     32  C   UNL     1      34.659 -17.391 -23.392  0.00  0.00    +0.169 C 
ATOM     33  C   UNL     1      34.251 -17.567 -24.682  0.00  0.00    +0.140 C 
ATOM     34  C   UNL     1      34.851 -15.564 -24.466  0.00  0.00    +0.285 C 
ENDBRANCH  25  32
BRANCH  26  35
ATOM     35  O   UNL     1      37.089 -17.703 -21.948  0.00  0.00    -0.471 OA
ATOM     36  C   UNL     1      38.328 -18.108 -21.371  0.00  0.00    +0.252 C 
ENDBRANCH  26  35
ENDBRANCH   3  24
TORSDOF 8
ENDMDL
MODEL 8
REMARK VINA RESULT:     -10.7      6.353     10.664
REMARK  Name = 153241
REMARK  8 active torsions:
REMARK  status: ('A' for Active; 'I' for Inactive)
REMARK    1  A    between atoms: N_2  and  C_9
REMARK    2  A    between atoms: N_3  and  C_24
REMARK    3  A    between atoms: C_7  and  C_13
REMARK    4  A    between atoms: C_13  and  N_15
REMARK    5  A    between atoms: C_16  and  O_18
REMARK    6  A    between atoms: O_18  and  C_20
REMARK    7  A    between atoms: C_25  and  C_32
REMARK    8  A    between atoms: C_26  and  O_35
REMARK                            x       y       z     vdW  Elec       q    Type
REMARK                         _______ _______ _______ _____ _____    ______ ____
ROOT
ATOM      1  O   UNL     1      33.249 -13.180 -22.043  0.00  0.00    -0.252 OA
ATOM      2  N   UNL     1      34.058 -13.600 -24.201  0.00  0.00    -0.268 N 
ATOM      3  N   UNL     1      33.724 -11.422 -23.510  0.00  0.00    -0.268 N 
ATOM      4  C   UNL     1      33.635 -12.771 -23.133  0.00  0.00    +0.308 C 
ATOM      5  H   UNL     1      34.342 -13.131 -25.019  0.00  0.00    +0.156 HD
ATOM      6  H   UNL     1      34.053 -11.248 -24.421  0.00  0.00    +0.156 HD
ENDROOT
BRANCH   2   9
ATOM      7  C   UNL     1      35.114 -17.061 -23.508  0.00  0.00    -0.001 C 
ATOM      8  C   UNL     1      35.052 -15.672 -23.455  0.00  0.00    +0.012 C 
ATOM      9  C   UNL     1      34.128 -14.993 -24.248  0.00  0.00    +0.051 C 
ATOM     10  C   UNL     1      34.263 -17.778 -24.342  0.00  0.00    -0.003 C 
ATOM     11  C   UNL     1      33.270 -15.705 -25.087  0.00  0.00    +0.015 C 
ATOM     12  C   UNL     1      33.338 -17.097 -25.133  0.00  0.00    +0.001 C 
BRANCH   7  13
ATOM     13  C   UNL     1      36.110 -17.793 -22.657  0.00  0.00    +0.119 C 
BRANCH  13  15
ATOM     14  O   UNL     1      36.031 -17.462 -19.772  0.00  0.00    -0.226 OA
ATOM     15  N   UNL     1      35.466 -18.646 -21.685  0.00  0.00    -0.267 N 
ATOM     16  C   UNL     1      35.482 -18.407 -20.327  0.00  0.00    +0.402 C 
ATOM     17  H   UNL     1      34.990 -19.444 -22.011  0.00  0.00    +0.153 HD
BRANCH  16  18
ATOM     18  O   UNL     1      34.788 -19.390 -19.670  0.00  0.00    -0.436 OA
BRANCH  18  20
ATOM     19  O   UNL     1      35.199 -21.614 -17.648  0.00  0.00    -0.350 OA
ATOM     20  C   UNL     1      35.271 -20.719 -19.841  0.00  0.00    +0.202 C 
ATOM     21  C   UNL     1      36.682 -20.827 -19.319  0.00  0.00    +0.078 C 
ATOM     22  C   UNL     1      34.511 -21.642 -18.910  0.00  0.00    +0.186 C 
ATOM     23  C   UNL     1      36.460 -20.955 -17.825  0.00  0.00    +0.146 C 
ENDBRANCH  18  20
ENDBRANCH  16  18
ENDBRANCH  13  15
ENDBRANCH   7  13
ENDBRANCH   2   9
BRANCH   3  24
ATOM     24  C   UNL     1      33.398 -10.280 -22.741  0.00  0.00    +0.055 C 
ATOM     25  C   UNL     1      32.759  -8.044 -21.235  0.00  0.00    +0.070 C 
ATOM     26  C   UNL     1      32.217  -9.285 -20.905  0.00  0.00    +0.143 C 
ATOM     27  C   UNL     1      32.537 -10.412 -21.663  0.00  0.00    +0.052 C 
ATOM     28  C   UNL     1      33.945  -9.054 -23.082  0.00  0.00    +0.015 C 
ATOM     29  C   UNL     1      33.623  -7.928 -22.324  0.00  0.00    +0.007 C 
BRANCH  25  32
ATOM     30  O   UNL     1      32.956  -6.818 -19.211  0.00  0.00    -0.431 OA
ATOM     31  N   UNL     1      31.756  -4.934 -19.567  0.00  0.00    -0.203 NA
ATOM     32  C   UNL     1      32.438  -6.865 -20.463  0.00  0.00    +0.169 C 
ATOM     33  C   UNL     1      31.713  -5.731 -20.681  0.00  0.00    +0.140 C 
ATOM     34  C   UNL     1      32.502  -5.626 -18.735  0.00  0.00    +0.285 C 
ENDBRANCH  25  32
BRANCH  26  35
ATOM     35  O   UNL     1      31.369  -9.427 -19.846  0.00  0.00    -0.471 OA
ATOM     36  C   UNL     1      30.706 -10.682 -19.711  0.00  0.00    +0.252 C 
ENDBRANCH  26  35
ENDBRANCH   3  24
TORSDOF 8
ENDMDL
MODEL 9
REMARK VINA RESULT:     -10.7      2.868      5.565
REMARK  Name = 153241
REMARK  8 active torsions:
REMARK  status: ('A' for Active; 'I' for Inactive)
REMARK    1  A    between atoms: N_2  and  C_9
REMARK    2  A    between atoms: N_3  and  C_24
REMARK    3  A    between atoms: C_7  and  C_13
REMARK    4  A    between atoms: C_13  and  N_15
REMARK    5  A    between atoms: C_16  and  O_18
REMARK    6  A    between atoms: O_18  and  C_20
REMARK    7  A    between atoms: C_25  and  C_32
REMARK    8  A    between atoms: C_26  and  O_35
REMARK                            x       y       z     vdW  Elec       q    Type
REMARK                         _______ _______ _______ _____ _____    ______ ____
ROOT
ATOM      1  O   UNL     1      33.760 -19.141 -19.741  0.00  0.00    -0.252 OA
ATOM      2  N   UNL     1      35.741 -20.244 -19.151  0.00  0.00    -0.268 N 
ATOM      3  N   UNL     1      35.803 -18.538 -20.706  0.00  0.00    -0.268 N 
ATOM      4  C   UNL     1      34.972 -19.287 -19.858  0.00  0.00    +0.308 C 
ATOM      5  H   UNL     1      36.706 -20.246 -19.347  0.00  0.00    +0.156 HD
ATOM      6  H   UNL     1      36.760 -18.772 -20.691  0.00  0.00    +0.156 HD
ENDROOT
BRANCH   2   9
ATOM      7  C   UNL     1      35.586 -22.294 -16.094  0.00  0.00    -0.001 C 
ATOM      8  C   UNL     1      36.022 -21.356 -17.023  0.00  0.00    +0.012 C 
ATOM      9  C   UNL     1      35.312 -21.183 -18.212  0.00  0.00    +0.051 C 
ATOM     10  C   UNL     1      34.451 -23.060 -16.336  0.00  0.00    -0.003 C 
ATOM     11  C   UNL     1      34.172 -21.948 -18.462  0.00  0.00    +0.015 C 
ATOM     12  C   UNL     1      33.742 -22.885 -17.524  0.00  0.00    +0.001 C 
BRANCH   7  13
ATOM     13  C   UNL     1      36.350 -22.483 -14.815  0.00  0.00    +0.119 C 
BRANCH  13  15
ATOM     14  O   UNL     1      36.069 -25.288 -14.117  0.00  0.00    -0.226 OA
ATOM     15  N   UNL     1      37.342 -23.526 -14.928  0.00  0.00    -0.267 N 
ATOM     16  C   UNL     1      37.116 -24.839 -14.568  0.00  0.00    +0.402 C 
ATOM     17  H   UNL     1      38.230 -23.287 -15.279  0.00  0.00    +0.153 HD
BRANCH  16  18
ATOM     18  O   UNL     1      38.244 -25.585 -14.790  0.00  0.00    -0.436 OA
BRANCH  18  20
ATOM     19  O   UNL     1      39.660 -23.829 -12.761  0.00  0.00    -0.350 OA
ATOM     20  C   UNL     1      39.004 -25.931 -13.636  0.00  0.00    +0.202 C 
ATOM     21  C   UNL     1      40.474 -25.735 -13.908  0.00  0.00    +0.078 C 
ATOM     22  C   UNL     1      38.738 -24.911 -12.548  0.00  0.00    +0.186 C 
ATOM     23  C   UNL     1      40.634 -24.238 -13.730  0.00  0.00    +0.146 C 
ENDBRANCH  18  20
ENDBRANCH  16  18
ENDBRANCH  13  15
ENDBRANCH   7  13
ENDBRANCH   2   9
BRANCH   3  24
ATOM     24  C   UNL     1      35.436 -17.489 -21.581  0.00  0.00    +0.055 C 
ATOM     25  C   UNL     1      34.717 -15.434 -23.295  0.00  0.00    +0.070 C 
ATOM     26  C   UNL     1      34.672 -16.757 -23.734  0.00  0.00    +0.143 C 
ATOM     27  C   UNL     1      35.035 -17.792 -22.872  0.00  0.00    +0.052 C 
ATOM     28  C   UNL     1      35.485 -16.180 -21.129  0.00  0.00    +0.015 C 
ATOM     29  C   UNL     1      35.123 -15.146 -21.992  0.00  0.00    +0.007 C 
BRANCH  25  32
ATOM     30  O   UNL     1      34.301 -13.117 -23.606  0.00  0.00    -0.431 OA
ATOM     31  N   UNL     1      33.750 -12.925 -25.791  0.00  0.00    -0.203 NA
ATOM     32  C   UNL     1      34.346 -14.348 -24.172  0.00  0.00    +0.169 C 
ATOM     33  C   UNL     1      34.013 -14.237 -25.490  0.00  0.00    +0.140 C 
ATOM     34  C   UNL     1      33.935 -12.314 -24.643  0.00  0.00    +0.285 C 
ENDBRANCH  25  32
BRANCH  26  35
ATOM     35  O   UNL     1      34.279 -17.067 -25.003  0.00  0.00    -0.471 OA
ATOM     36  C   UNL     1      33.109 -17.869 -25.139  0.00  0.00    +0.252 C 
ENDBRANCH  26  35
ENDBRANCH   3  24
TORSDOF 8
ENDMDL
