MODEL 1
REMARK VINA RESULT:     -12.2      0.000      0.000
REMARK  Name = 11610553
REMARK  5 active torsions:
REMARK  status: ('A' for Active; 'I' for Inactive)
REMARK    1  A    between atoms: C_1  and  C_9
REMARK    2  A    between atoms: C_4  and  O_19
REMARK    3  A    between atoms: C_10  and  C_14
REMARK    4  A    between atoms: O_19  and  C_20
REMARK    5  A    between atoms: C_20  and  C_22
REMARK                            x       y       z     vdW  Elec       q    Type
REMARK                         _______ _______ _______ _____ _____    ______ ____
ROOT
ATOM      1  C   UNL     1      35.373 -23.201 -13.020  0.00  0.00    +0.015 C 
ATOM      2  C   UNL     1      34.027 -23.552 -13.119  0.00  0.00    +0.004 C 
ATOM      3  C   UNL     1      36.013 -22.582 -14.093  0.00  0.00    +0.004 C 
ATOM      4  C   UNL     1      33.966 -22.669 -15.358  0.00  0.00    +0.139 C 
ATOM      5  C   UNL     1      33.321 -23.285 -14.293  0.00  0.00    +0.037 C 
ATOM      6  C   UNL     1      35.308 -22.315 -15.266  0.00  0.00    +0.037 C 
ENDROOT
BRANCH   1   9
ATOM      7  N   UNL     1      35.645 -23.092 -10.580  0.00  0.00    -0.236 N 
ATOM      8  N   UNL     1      36.456 -23.435  -9.565  0.00  0.00    -0.180 NA
ATOM      9  C   UNL     1      36.102 -23.477 -11.807  0.00  0.00    +0.067 C 
ATOM     10  C   UNL     1      37.297 -24.118 -11.577  0.00  0.00    +0.036 C 
ATOM     11  C   UNL     1      37.463 -24.061 -10.180  0.00  0.00    +0.119 C 
ATOM     12  H   UNL     1      34.798 -22.607 -10.451  0.00  0.00    +0.174 HD
BRANCH  10  14
ATOM     13  N   UNL     1      39.762 -25.807 -14.571  0.00  0.00    -0.242 NA
ATOM     14  C   UNL     1      38.131 -24.690 -12.589  0.00  0.00    +0.006 C 
ATOM     15  C   UNL     1      37.648 -25.711 -13.403  0.00  0.00    +0.021 C 
ATOM     16  C   UNL     1      39.433 -24.229 -12.770  0.00  0.00    +0.021 C 
ATOM     17  C   UNL     1      38.494 -26.231 -14.369  0.00  0.00    +0.099 C 
ATOM     18  C   UNL     1      40.200 -24.815 -13.764  0.00  0.00    +0.099 C 
ENDBRANCH  10  14
ENDBRANCH   1   9
BRANCH   4  19
ATOM     19  O   UNL     1      33.273 -22.406 -16.511  0.00  0.00    -0.468 OA
BRANCH  19  20
ATOM     20  C   UNL     1      33.886 -22.802 -17.731  0.00  0.00    +0.264 C 
BRANCH  20  22
ATOM     21  N   UNL     1      35.418 -21.223 -18.738  0.00  0.00    -0.406 NA
ATOM     22  C   UNL     1      34.128 -21.598 -18.578  0.00  0.00    +0.152 C 
ATOM     23  C   UNL     1      34.646 -19.400 -20.112  0.00  0.00    +0.026 C 
ATOM     24  C   UNL     1      35.676 -20.139 -19.495  0.00  0.00    +0.113 C 
ATOM     25  C   UNL     1      33.055 -20.939 -19.141  0.00  0.00    +0.031 C 
ATOM     26  C   UNL     1      33.324 -19.823 -19.920  0.00  0.00    +0.005 C 
ATOM     27  C   UNL     1      34.951 -18.273 -20.895  0.00  0.00    +0.002 C 
ATOM     28  C   UNL     1      36.989 -19.718 -19.687  0.00  0.00    +0.085 C 
ATOM     29  C   UNL     1      36.273 -17.875 -21.070  0.00  0.00    -0.004 C 
ATOM     30  C   UNL     1      37.293 -18.598 -20.465  0.00  0.00    -0.019 C 
ENDBRANCH  20  22
ENDBRANCH  19  20
ENDBRANCH   4  19
TORSDOF 5
ENDMDL
MODEL 2
REMARK VINA RESULT:     -12.2      2.655      4.398
REMARK  Name = 11610553
REMARK  5 active torsions:
REMARK  status: ('A' for Active; 'I' for Inactive)
REMARK    1  A    between atoms: C_1  and  C_9
REMARK    2  A    between atoms: C_4  and  O_19
REMARK    3  A    between atoms: C_10  and  C_14
REMARK    4  A    between atoms: O_19  and  C_20
REMARK    5  A    between atoms: C_20  and  C_22
REMARK                            x       y       z     vdW  Elec       q    Type
REMARK                         _______ _______ _______ _____ _____    ______ ____
ROOT
ATOM      1  C   UNL     1      34.049 -22.224 -16.580  0.00  0.00    +0.015 C 
ATOM      2  C   UNL     1      33.263 -22.005 -17.711  0.00  0.00    +0.004 C 
ATOM      3  C   UNL     1      35.391 -21.847 -16.579  0.00  0.00    +0.004 C 
ATOM      4  C   UNL     1      35.161 -21.037 -18.835  0.00  0.00    +0.139 C 
ATOM      5  C   UNL     1      33.822 -21.409 -18.843  0.00  0.00    +0.037 C 
ATOM      6  C   UNL     1      35.950 -21.252 -17.710  0.00  0.00    +0.037 C 
ENDROOT
BRANCH   1   9
ATOM      7  N   UNL     1      32.125 -22.853 -15.186  0.00  0.00    -0.236 N 
ATOM      8  N   UNL     1      31.770 -23.472 -14.047  0.00  0.00    -0.180 NA
ATOM      9  C   UNL     1      33.471 -22.840 -15.411  0.00  0.00    +0.067 C 
ATOM     10  C   UNL     1      34.036 -23.496 -14.343  0.00  0.00    +0.036 C 
ATOM     11  C   UNL     1      32.941 -23.862 -13.537  0.00  0.00    +0.119 C 
ATOM     12  H   UNL     1      31.475 -22.448 -15.803  0.00  0.00    +0.174 HD
BRANCH  10  14
ATOM     13  N   UNL     1      38.181 -24.154 -13.806  0.00  0.00    -0.242 NA
ATOM     14  C   UNL     1      35.438 -23.718 -14.162  0.00  0.00    +0.006 C 
ATOM     15  C   UNL     1      36.214 -22.787 -13.477  0.00  0.00    +0.021 C 
ATOM     16  C   UNL     1      36.038 -24.869 -14.668  0.00  0.00    +0.021 C 
ATOM     17  C   UNL     1      37.566 -23.048 -13.328  0.00  0.00    +0.099 C 
ATOM     18  C   UNL     1      37.399 -25.037 -14.466  0.00  0.00    +0.099 C 
ENDBRANCH  10  14
ENDBRANCH   1   9
BRANCH   4  19
ATOM     19  O   UNL     1      35.709 -20.452 -19.946  0.00  0.00    -0.468 OA
BRANCH  19  20
ATOM     20  C   UNL     1      36.598 -19.364 -19.725  0.00  0.00    +0.264 C 
BRANCH  20  22
ATOM     21  N   UNL     1      35.741 -17.106 -19.877  0.00  0.00    -0.406 NA
ATOM     22  C   UNL     1      36.169 -18.198 -20.551  0.00  0.00    +0.152 C 
ATOM     23  C   UNL     1      35.364 -16.028 -21.999  0.00  0.00    +0.026 C 
ATOM     24  C   UNL     1      35.343 -16.034 -20.589  0.00  0.00    +0.113 C 
ATOM     25  C   UNL     1      36.224 -18.285 -21.927  0.00  0.00    +0.031 C 
ATOM     26  C   UNL     1      35.814 -17.180 -22.657  0.00  0.00    +0.005 C 
ATOM     27  C   UNL     1      34.942 -14.891 -22.710  0.00  0.00    +0.002 C 
ATOM     28  C   UNL     1      34.896 -14.888 -19.936  0.00  0.00    +0.085 C 
ATOM     29  C   UNL     1      34.499 -13.760 -22.031  0.00  0.00    -0.004 C 
ATOM     30  C   UNL     1      34.476 -13.759 -20.643  0.00  0.00    -0.019 C 
ENDBRANCH  20  22
ENDBRANCH  19  20
ENDBRANCH   4  19
TORSDOF 5
ENDMDL
MODEL 3
REMARK VINA RESULT:     -12.2      6.717     13.178
REMARK  Name = 11610553
REMARK  5 active torsions:
REMARK  status: ('A' for Active; 'I' for Inactive)
REMARK    1  A    between atoms: C_1  and  C_9
REMARK    2  A    between atoms: C_4  and  O_19
REMARK    3  A    between atoms: C_10  and  C_14
REMARK    4  A    between atoms: O_19  and  C_20
REMARK    5  A    between atoms: C_20  and  C_22
REMARK                            x       y       z     vdW  Elec       q    Type
REMARK                         _______ _______ _______ _____ _____    ______ ____
ROOT
ATOM      1  C   UNL     1      33.487 -12.724 -22.007  0.00  0.00    +0.015 C 
ATOM      2  C   UNL     1      34.193 -13.232 -20.917  0.00  0.00    +0.004 C 
ATOM      3  C   UNL     1      33.554 -13.367 -23.243  0.00  0.00    +0.004 C 
ATOM      4  C   UNL     1      35.029 -15.019 -22.298  0.00  0.00    +0.139 C 
ATOM      5  C   UNL     1      34.967 -14.384 -21.064  0.00  0.00    +0.037 C 
ATOM      6  C   UNL     1      34.327 -14.518 -23.390  0.00  0.00    +0.037 C 
ENDROOT
BRANCH   1   9
ATOM      7  N   UNL     1      31.565 -11.506 -21.079  0.00  0.00    -0.236 N 
ATOM      8  N   UNL     1      30.949 -10.312 -21.056  0.00  0.00    -0.180 NA
ATOM      9  C   UNL     1      32.687 -11.533 -21.855  0.00  0.00    +0.067 C 
ATOM     10  C   UNL     1      32.813 -10.268 -22.377  0.00  0.00    +0.036 C 
ATOM     11  C   UNL     1      31.715  -9.560 -21.851  0.00  0.00    +0.119 C 
ATOM     12  H   UNL     1      31.238 -12.289 -20.581  0.00  0.00    +0.174 HD
BRANCH  10  14
ATOM     13  N   UNL     1      35.906  -9.008 -24.974  0.00  0.00    -0.242 NA
ATOM     14  C   UNL     1      33.859  -9.841 -23.256  0.00  0.00    +0.006 C 
ATOM     15  C   UNL     1      34.738  -8.836 -22.864  0.00  0.00    +0.021 C 
ATOM     16  C   UNL     1      34.006 -10.429 -24.510  0.00  0.00    +0.021 C 
ATOM     17  C   UNL     1      35.734  -8.458 -23.750  0.00  0.00    +0.099 C 
ATOM     18  C   UNL     1      35.034  -9.980 -25.323  0.00  0.00    +0.099 C 
ENDBRANCH  10  14
ENDBRANCH   1   9
BRANCH   4  19
ATOM     19  O   UNL     1      35.789 -16.150 -22.442  0.00  0.00    -0.468 OA
BRANCH  19  20
ATOM     20  C   UNL     1      35.090 -17.370 -22.647  0.00  0.00    +0.264 C 
BRANCH  20  22
ATOM     21  N   UNL     1      34.308 -19.003 -21.042  0.00  0.00    -0.406 NA
ATOM     22  C   UNL     1      35.361 -18.294 -21.507  0.00  0.00    +0.152 C 
ATOM     23  C   UNL     1      35.784 -20.002 -19.420  0.00  0.00    +0.026 C 
ATOM     24  C   UNL     1      34.513 -19.847 -20.012  0.00  0.00    +0.113 C 
ATOM     25  C   UNL     1      36.639 -18.379 -20.993  0.00  0.00    +0.031 C 
ATOM     26  C   UNL     1      36.847 -19.248 -19.932  0.00  0.00    +0.005 C 
ATOM     27  C   UNL     1      35.962 -20.891 -18.346  0.00  0.00    +0.002 C 
ATOM     28  C   UNL     1      33.457 -20.597 -19.502  0.00  0.00    +0.085 C 
ATOM     29  C   UNL     1      34.888 -21.629 -17.856  0.00  0.00    -0.004 C 
ATOM     30  C   UNL     1      33.634 -21.481 -18.434  0.00  0.00    -0.019 C 
ENDBRANCH  20  22
ENDBRANCH  19  20
ENDBRANCH   4  19
TORSDOF 5
ENDMDL
MODEL 4
REMARK VINA RESULT:     -11.9      1.957      3.145
REMARK  Name = 11610553
REMARK  5 active torsions:
REMARK  status: ('A' for Active; 'I' for Inactive)
REMARK    1  A    between atoms: C_1  and  C_9
REMARK    2  A    between atoms: C_4  and  O_19
REMARK    3  A    between atoms: C_10  and  C_14
REMARK    4  A    between atoms: O_19  and  C_20
REMARK    5  A    between atoms: C_20  and  C_22
REMARK                            x       y       z     vdW  Elec       q    Type
REMARK                         _______ _______ _______ _____ _____    ______ ____
ROOT
ATOM      1  C   UNL     1      35.863 -22.469 -14.918  0.00  0.00    +0.015 C 
ATOM      2  C   UNL     1      37.060 -21.802 -15.180  0.00  0.00    +0.004 C 
ATOM      3  C   UNL     1      34.883 -22.559 -15.906  0.00  0.00    +0.004 C 
ATOM      4  C   UNL     1      36.293 -21.316 -17.411  0.00  0.00    +0.139 C 
ATOM      5  C   UNL     1      37.275 -21.223 -16.431  0.00  0.00    +0.037 C 
ATOM      6  C   UNL     1      35.098 -21.980 -17.156  0.00  0.00    +0.037 C 
ENDROOT
BRANCH   1   9
ATOM      7  N   UNL     1      34.560 -22.749 -12.853  0.00  0.00    -0.236 N 
ATOM      8  N   UNL     1      34.517 -23.405 -11.681  0.00  0.00    -0.180 NA
ATOM      9  C   UNL     1      35.640 -23.068 -13.624  0.00  0.00    +0.067 C 
ATOM     10  C   UNL     1      36.354 -23.997 -12.905  0.00  0.00    +0.036 C 
ATOM     11  C   UNL     1      35.615 -24.165 -11.718  0.00  0.00    +0.119 C 
ATOM     12  H   UNL     1      33.876 -22.100 -13.131  0.00  0.00    +0.174 HD
BRANCH  10  14
ATOM     13  N   UNL     1      39.955 -25.817 -14.178  0.00  0.00    -0.242 NA
ATOM     14  C   UNL     1      37.572 -24.612 -13.336  0.00  0.00    +0.006 C 
ATOM     15  C   UNL     1      38.796 -24.169 -12.841  0.00  0.00    +0.021 C 
ATOM     16  C   UNL     1      37.543 -25.660 -14.253  0.00  0.00    +0.021 C 
ATOM     17  C   UNL     1      39.946 -24.798 -13.288  0.00  0.00    +0.099 C 
ATOM     18  C   UNL     1      38.750 -26.222 -14.638  0.00  0.00    +0.099 C 
ENDBRANCH  10  14
ENDBRANCH   1   9
BRANCH   4  19
ATOM     19  O   UNL     1      36.505 -20.747 -18.639  0.00  0.00    -0.468 OA
BRANCH  19  20
ATOM     20  C   UNL     1      35.400 -20.725 -19.534  0.00  0.00    +0.264 C 
BRANCH  20  22
ATOM     21  N   UNL     1      34.868 -19.530 -21.570  0.00  0.00    -0.406 NA
ATOM     22  C   UNL     1      35.448 -19.476 -20.350  0.00  0.00    +0.152 C 
ATOM     23  C   UNL     1      35.503 -17.229 -21.899  0.00  0.00    +0.026 C 
ATOM     24  C   UNL     1      34.893 -18.423 -22.337  0.00  0.00    +0.113 C 
ATOM     25  C   UNL     1      36.069 -18.355 -19.837  0.00  0.00    +0.031 C 
ATOM     26  C   UNL     1      36.094 -17.217 -20.628  0.00  0.00    +0.005 C 
ATOM     27  C   UNL     1      35.512 -16.092 -22.725  0.00  0.00    +0.002 C 
ATOM     28  C   UNL     1      34.306 -18.433 -23.599  0.00  0.00    +0.085 C 
ATOM     29  C   UNL     1      34.918 -16.131 -23.983  0.00  0.00    -0.004 C 
ATOM     30  C   UNL     1      34.314 -17.303 -24.420  0.00  0.00    -0.019 C 
ENDBRANCH  20  22
ENDBRANCH  19  20
ENDBRANCH   4  19
TORSDOF 5
ENDMDL
MODEL 5
REMARK VINA RESULT:     -11.8      1.291      3.062
REMARK  Name = 11610553
REMARK  5 active torsions:
REMARK  status: ('A' for Active; 'I' for Inactive)
REMARK    1  A    between atoms: C_1  and  C_9
REMARK    2  A    between atoms: C_4  and  O_19
REMARK    3  A    between atoms: C_10  and  C_14
REMARK    4  A    between atoms: O_19  and  C_20
REMARK    5  A    between atoms: C_20  and  C_22
REMARK                            x       y       z     vdW  Elec       q    Type
REMARK                         _______ _______ _______ _____ _____    ______ ____
ROOT
ATOM      1  C   UNL     1      37.446 -23.328 -14.949  0.00  0.00    +0.015 C 
ATOM      2  C   UNL     1      36.238 -24.021 -14.875  0.00  0.00    +0.004 C 
ATOM      3  C   UNL     1      37.507 -22.099 -15.605  0.00  0.00    +0.004 C 
ATOM      4  C   UNL     1      35.158 -22.259 -16.112  0.00  0.00    +0.139 C 
ATOM      5  C   UNL     1      35.090 -23.484 -15.459  0.00  0.00    +0.037 C 
ATOM      6  C   UNL     1      36.360 -21.563 -16.189  0.00  0.00    +0.037 C 
ENDROOT
BRANCH   1   9
ATOM      7  N   UNL     1      39.728 -24.231 -15.083  0.00  0.00    -0.236 N 
ATOM      8  N   UNL     1      40.739 -24.731 -14.351  0.00  0.00    -0.180 NA
ATOM      9  C   UNL     1      38.633 -23.883 -14.345  0.00  0.00    +0.067 C 
ATOM     10  C   UNL     1      38.952 -24.175 -13.041  0.00  0.00    +0.036 C 
ATOM     11  C   UNL     1      40.259 -24.694 -13.105  0.00  0.00    +0.119 C 
ATOM     12  H   UNL     1      39.772 -24.126 -16.060  0.00  0.00    +0.174 HD
BRANCH  10  14
ATOM     13  N   UNL     1      36.400 -23.563  -9.722  0.00  0.00    -0.242 NA
ATOM     14  C   UNL     1      38.089 -23.968 -11.917  0.00  0.00    +0.006 C 
ATOM     15  C   UNL     1      38.149 -22.779 -11.195  0.00  0.00    +0.021 C 
ATOM     16  C   UNL     1      37.181 -24.953 -11.538  0.00  0.00    +0.021 C 
ATOM     17  C   UNL     1      37.293 -22.627 -10.117  0.00  0.00    +0.099 C 
ATOM     18  C   UNL     1      36.368 -24.704 -10.444  0.00  0.00    +0.099 C 
ENDBRANCH  10  14
ENDBRANCH   1   9
BRANCH   4  19
ATOM     19  O   UNL     1      34.031 -21.733 -16.685  0.00  0.00    -0.468 OA
BRANCH  19  20
ATOM     20  C   UNL     1      33.733 -22.147 -18.012  0.00  0.00    +0.264 C 
BRANCH  20  22
ATOM     21  N   UNL     1      35.362 -20.706 -19.075  0.00  0.00    -0.406 NA
ATOM     22  C   UNL     1      34.056 -21.042 -18.961  0.00  0.00    +0.152 C 
ATOM     23  C   UNL     1      34.720 -19.024 -20.676  0.00  0.00    +0.026 C 
ATOM     24  C   UNL     1      35.692 -19.712 -19.921  0.00  0.00    +0.113 C 
ATOM     25  C   UNL     1      33.036 -20.427 -19.657  0.00  0.00    +0.031 C 
ATOM     26  C   UNL     1      33.379 -19.402 -20.527  0.00  0.00    +0.005 C 
ATOM     27  C   UNL     1      35.100 -17.990 -21.550  0.00  0.00    +0.002 C 
ATOM     28  C   UNL     1      37.024 -19.335 -20.070  0.00  0.00    +0.085 C 
ATOM     29  C   UNL     1      36.439 -17.634 -21.679  0.00  0.00    -0.004 C 
ATOM     30  C   UNL     1      37.402 -18.308 -20.938  0.00  0.00    -0.019 C 
ENDBRANCH  20  22
ENDBRANCH  19  20
ENDBRANCH   4  19
TORSDOF 5
ENDMDL
MODEL 6
REMARK VINA RESULT:     -11.3      2.589      4.947
REMARK  Name = 11610553
REMARK  5 active torsions:
REMARK  status: ('A' for Active; 'I' for Inactive)
REMARK    1  A    between atoms: C_1  and  C_9
REMARK    2  A    between atoms: C_4  and  O_19
REMARK    3  A    between atoms: C_10  and  C_14
REMARK    4  A    between atoms: O_19  and  C_20
REMARK    5  A    between atoms: C_20  and  C_22
REMARK                            x       y       z     vdW  Elec       q    Type
REMARK                         _______ _______ _______ _____ _____    ______ ____
ROOT
ATOM      1  C   UNL     1      35.294 -22.360 -15.707  0.00  0.00    +0.015 C 
ATOM      2  C   UNL     1      36.382 -21.627 -16.181  0.00  0.00    +0.004 C 
ATOM      3  C   UNL     1      34.160 -22.519 -16.503  0.00  0.00    +0.004 C 
ATOM      4  C   UNL     1      35.201 -21.214 -18.239  0.00  0.00    +0.139 C 
ATOM      5  C   UNL     1      36.335 -21.052 -17.451  0.00  0.00    +0.037 C 
ATOM      6  C   UNL     1      34.113 -21.944 -17.773  0.00  0.00    +0.037 C 
ENDROOT
BRANCH   1   9
ATOM      7  N   UNL     1      36.521 -23.188 -13.746  0.00  0.00    -0.236 N 
ATOM      8  N   UNL     1      36.372 -23.746 -12.532  0.00  0.00    -0.180 NA
ATOM      9  C   UNL     1      35.343 -22.954 -14.394  0.00  0.00    +0.067 C 
ATOM     10  C   UNL     1      34.355 -23.390 -13.544  0.00  0.00    +0.036 C 
ATOM     11  C   UNL     1      35.047 -23.867 -12.415  0.00  0.00    +0.119 C 
ATOM     12  H   UNL     1      37.399 -22.968 -14.132  0.00  0.00    +0.174 HD
BRANCH  10  14
ATOM     13  N   UNL     1      30.205 -23.232 -14.355  0.00  0.00    -0.242 NA
ATOM     14  C   UNL     1      32.951 -23.336 -13.819  0.00  0.00    +0.006 C 
ATOM     15  C   UNL     1      32.234 -24.509 -14.040  0.00  0.00    +0.021 C 
ATOM     16  C   UNL     1      32.290 -22.111 -13.866  0.00  0.00    +0.021 C 
ATOM     17  C   UNL     1      30.877 -24.405 -14.301  0.00  0.00    +0.099 C 
ATOM     18  C   UNL     1      30.931 -22.113 -14.136  0.00  0.00    +0.099 C 
ENDBRANCH  10  14
ENDBRANCH   1   9
BRANCH   4  19
ATOM     19  O   UNL     1      35.155 -20.649 -19.486  0.00  0.00    -0.468 OA
BRANCH  19  20
ATOM     20  C   UNL     1      36.334 -19.997 -19.939  0.00  0.00    +0.264 C 
BRANCH  20  22
ATOM     21  N   UNL     1      35.710 -17.658 -19.949  0.00  0.00    -0.406 NA
ATOM     22  C   UNL     1      35.961 -18.762 -20.689  0.00  0.00    +0.152 C 
ATOM     23  C   UNL     1      35.268 -16.468 -21.997  0.00  0.00    +0.026 C 
ATOM     24  C   UNL     1      35.368 -16.525 -20.591  0.00  0.00    +0.113 C 
ATOM     25  C   UNL     1      35.888 -18.802 -22.067  0.00  0.00    +0.031 C 
ATOM     26  C   UNL     1      35.535 -17.634 -22.725  0.00  0.00    +0.005 C 
ATOM     27  C   UNL     1      34.908 -15.268 -22.634  0.00  0.00    +0.002 C 
ATOM     28  C   UNL     1      35.103 -15.365 -19.868  0.00  0.00    +0.085 C 
ATOM     29  C   UNL     1      34.648 -14.123 -21.886  0.00  0.00    -0.004 C 
ATOM     30  C   UNL     1      34.745 -14.173 -20.501  0.00  0.00    -0.019 C 
ENDBRANCH  20  22
ENDBRANCH  19  20
ENDBRANCH   4  19
TORSDOF 5
ENDMDL
MODEL 7
REMARK VINA RESULT:     -11.1      6.635     13.096
REMARK  Name = 11610553
REMARK  5 active torsions:
REMARK  status: ('A' for Active; 'I' for Inactive)
REMARK    1  A    between atoms: C_1  and  C_9
REMARK    2  A    between atoms: C_4  and  O_19
REMARK    3  A    between atoms: C_10  and  C_14
REMARK    4  A    between atoms: O_19  and  C_20
REMARK    5  A    between atoms: C_20  and  C_22
REMARK                            x       y       z     vdW  Elec       q    Type
REMARK                         _______ _______ _______ _____ _____    ______ ____
ROOT
ATOM      1  C   UNL     1      34.023 -12.414 -23.158  0.00  0.00    +0.015 C 
ATOM      2  C   UNL     1      33.600 -13.306 -24.143  0.00  0.00    +0.004 C 
ATOM      3  C   UNL     1      34.721 -12.882 -22.045  0.00  0.00    +0.004 C 
ATOM      4  C   UNL     1      34.569 -15.128 -22.900  0.00  0.00    +0.139 C 
ATOM      5  C   UNL     1      33.874 -14.668 -24.013  0.00  0.00    +0.037 C 
ATOM      6  C   UNL     1      34.994 -14.243 -21.915  0.00  0.00    +0.037 C 
ENDROOT
BRANCH   1   9
ATOM      7  N   UNL     1      34.152 -10.282 -24.373  0.00  0.00    -0.236 N 
ATOM      8  N   UNL     1      33.797  -8.987 -24.327  0.00  0.00    -0.180 NA
ATOM      9  C   UNL     1      33.739 -11.006 -23.293  0.00  0.00    +0.067 C 
ATOM     10  C   UNL     1      33.068 -10.121 -22.483  0.00  0.00    +0.036 C 
ATOM     11  C   UNL     1      33.135  -8.895 -23.170  0.00  0.00    +0.119 C 
ATOM     12  H   UNL     1      34.661 -10.673 -25.118  0.00  0.00    +0.174 HD
BRANCH  10  14
ATOM     13  N   UNL     1      31.271 -11.097 -18.779  0.00  0.00    -0.242 NA
ATOM     14  C   UNL     1      32.461 -10.452 -21.229  0.00  0.00    +0.006 C 
ATOM     15  C   UNL     1      32.212  -9.458 -20.286  0.00  0.00    +0.021 C 
ATOM     16  C   UNL     1      32.112 -11.769 -20.943  0.00  0.00    +0.021 C 
ATOM     17  C   UNL     1      31.621  -9.828 -19.089  0.00  0.00    +0.099 C 
ATOM     18  C   UNL     1      31.527 -12.037 -19.716  0.00  0.00    +0.099 C 
ENDBRANCH  10  14
ENDBRANCH   1   9
BRANCH   4  19
ATOM     19  O   UNL     1      34.838 -16.465 -22.772  0.00  0.00    -0.468 OA
BRANCH  19  20
ATOM     20  C   UNL     1      36.132 -16.817 -22.303  0.00  0.00    +0.264 C 
BRANCH  20  22
ATOM     21  N   UNL     1      34.771 -18.397 -21.075  0.00  0.00    -0.406 NA
ATOM     22  C   UNL     1      36.017 -17.930 -21.316  0.00  0.00    +0.152 C 
ATOM     23  C   UNL     1      35.732 -19.963 -19.517  0.00  0.00    +0.026 C 
ATOM     24  C   UNL     1      34.627 -19.400 -20.189  0.00  0.00    +0.113 C 
ATOM     25  C   UNL     1      37.156 -18.416 -20.708  0.00  0.00    +0.031 C 
ATOM     26  C   UNL     1      37.005 -19.449 -19.795  0.00  0.00    +0.005 C 
ATOM     27  C   UNL     1      35.545 -21.009 -18.597  0.00  0.00    +0.002 C 
ATOM     28  C   UNL     1      33.362 -19.912 -19.912  0.00  0.00    +0.085 C 
ATOM     29  C   UNL     1      34.269 -21.501 -18.339  0.00  0.00    -0.004 C 
ATOM     30  C   UNL     1      33.176 -20.951 -18.997  0.00  0.00    -0.019 C 
ENDBRANCH  20  22
ENDBRANCH  19  20
ENDBRANCH   4  19
TORSDOF 5
ENDMDL
MODEL 8
REMARK VINA RESULT:     -10.9      3.541     10.813
REMARK  Name = 11610553
REMARK  5 active torsions:
REMARK  status: ('A' for Active; 'I' for Inactive)
REMARK    1  A    between atoms: C_1  and  C_9
REMARK    2  A    between atoms: C_4  and  O_19
REMARK    3  A    between atoms: C_10  and  C_14
REMARK    4  A    between atoms: O_19  and  C_20
REMARK    5  A    between atoms: C_20  and  C_22
REMARK                            x       y       z     vdW  Elec       q    Type
REMARK                         _______ _______ _______ _____ _____    ______ ____
ROOT
ATOM      1  C   UNL     1      35.308 -18.008 -22.075  0.00  0.00    +0.015 C 
ATOM      2  C   UNL     1      34.392 -18.822 -21.409  0.00  0.00    +0.004 C 
ATOM      3  C   UNL     1      36.624 -17.922 -21.623  0.00  0.00    +0.004 C 
ATOM      4  C   UNL     1      36.108 -19.460 -19.844  0.00  0.00    +0.139 C 
ATOM      5  C   UNL     1      34.795 -19.551 -20.289  0.00  0.00    +0.037 C 
ATOM      6  C   UNL     1      37.026 -18.650 -20.504  0.00  0.00    +0.037 C 
ENDROOT
BRANCH   1   9
ATOM      7  N   UNL     1      34.703 -17.839 -24.451  0.00  0.00    -0.236 N 
ATOM      8  N   UNL     1      34.316 -16.983 -25.411  0.00  0.00    -0.180 NA
ATOM      9  C   UNL     1      34.892 -17.254 -23.233  0.00  0.00    +0.067 C 
ATOM     10  C   UNL     1      34.608 -15.921 -23.409  0.00  0.00    +0.036 C 
ATOM     11  C   UNL     1      34.260 -15.813 -24.769  0.00  0.00    +0.119 C 
ATOM     12  H   UNL     1      34.837 -18.801 -24.611  0.00  0.00    +0.174 HD
BRANCH  10  14
ATOM     13  N   UNL     1      34.806 -12.971 -20.383  0.00  0.00    -0.242 NA
ATOM     14  C   UNL     1      34.676 -14.923 -22.385  0.00  0.00    +0.006 C 
ATOM     15  C   UNL     1      34.526 -13.576 -22.707  0.00  0.00    +0.021 C 
ATOM     16  C   UNL     1      34.891 -15.290 -21.059  0.00  0.00    +0.021 C 
ATOM     17  C   UNL     1      34.599 -12.649 -21.680  0.00  0.00    +0.099 C 
ATOM     18  C   UNL     1      34.948 -14.287 -20.106  0.00  0.00    +0.099 C 
ENDBRANCH  10  14
ENDBRANCH   1   9
BRANCH   4  19
ATOM     19  O   UNL     1      36.503 -20.176 -18.744  0.00  0.00    -0.468 OA
BRANCH  19  20
ATOM     20  C   UNL     1      35.646 -21.228 -18.322  0.00  0.00    +0.264 C 
BRANCH  20  22
ATOM     21  N   UNL     1      35.021 -22.238 -16.213  0.00  0.00    -0.406 NA
ATOM     22  C   UNL     1      35.991 -21.619 -16.924  0.00  0.00    +0.152 C 
ATOM     23  C   UNL     1      36.552 -22.358 -14.356  0.00  0.00    +0.026 C 
ATOM     24  C   UNL     1      35.295 -22.604 -14.947  0.00  0.00    +0.113 C 
ATOM     25  C   UNL     1      37.249 -21.336 -16.433  0.00  0.00    +0.031 C 
ATOM     26  C   UNL     1      37.529 -21.714 -15.128  0.00  0.00    +0.005 C 
ATOM     27  C   UNL     1      36.804 -22.754 -13.032  0.00  0.00    +0.002 C 
ATOM     28  C   UNL     1      34.326 -23.245 -14.179  0.00  0.00    +0.085 C 
ATOM     29  C   UNL     1      35.816 -23.392 -12.287  0.00  0.00    -0.004 C 
ATOM     30  C   UNL     1      34.576 -23.638 -12.862  0.00  0.00    -0.019 C 
ENDBRANCH  20  22
ENDBRANCH  19  20
ENDBRANCH   4  19
TORSDOF 5
ENDMDL
MODEL 9
REMARK VINA RESULT:     -10.8      2.974     10.270
REMARK  Name = 11610553
REMARK  5 active torsions:
REMARK  status: ('A' for Active; 'I' for Inactive)
REMARK    1  A    between atoms: C_1  and  C_9
REMARK    2  A    between atoms: C_4  and  O_19
REMARK    3  A    between atoms: C_10  and  C_14
REMARK    4  A    between atoms: O_19  and  C_20
REMARK    5  A    between atoms: C_20  and  C_22
REMARK                            x       y       z     vdW  Elec       q    Type
REMARK                         _______ _______ _______ _____ _____    ______ ____
ROOT
ATOM      1  C   UNL     1      35.128 -19.072 -21.289  0.00  0.00    +0.015 C 
ATOM      2  C   UNL     1      36.411 -19.251 -20.772  0.00  0.00    +0.004 C 
ATOM      3  C   UNL     1      34.024 -19.591 -20.613  0.00  0.00    +0.004 C 
ATOM      4  C   UNL     1      35.484 -20.467 -18.910  0.00  0.00    +0.139 C 
ATOM      5  C   UNL     1      36.589 -19.952 -19.578  0.00  0.00    +0.037 C 
ATOM      6  C   UNL     1      34.202 -20.291 -19.421  0.00  0.00    +0.037 C 
ENDROOT
BRANCH   1   9
ATOM      7  N   UNL     1      34.817 -18.983 -23.725  0.00  0.00    -0.236 N 
ATOM      8  N   UNL     1      34.653 -18.148 -24.765  0.00  0.00    -0.180 NA
ATOM      9  C   UNL     1      34.944 -18.348 -22.523  0.00  0.00    +0.067 C 
ATOM     10  C   UNL     1      34.856 -17.005 -22.798  0.00  0.00    +0.036 C 
ATOM     11  C   UNL     1      34.677 -16.942 -24.193  0.00  0.00    +0.119 C 
ATOM     12  H   UNL     1      34.843 -19.962 -23.820  0.00  0.00    +0.174 HD
BRANCH  10  14
ATOM     13  N   UNL     1      35.101 -13.914 -19.919  0.00  0.00    -0.242 NA
ATOM     14  C   UNL     1      34.938 -15.959 -21.824  0.00  0.00    +0.006 C 
ATOM     15  C   UNL     1      35.115 -16.267 -20.477  0.00  0.00    +0.021 C 
ATOM     16  C   UNL     1      34.845 -14.626 -22.215  0.00  0.00    +0.021 C 
ATOM     17  C   UNL     1      35.189 -15.219 -19.573  0.00  0.00    +0.099 C 
ATOM     18  C   UNL     1      34.930 -13.651 -21.233  0.00  0.00    +0.099 C 
ENDBRANCH  10  14
ENDBRANCH   1   9
BRANCH   4  19
ATOM     19  O   UNL     1      35.659 -21.154 -17.738  0.00  0.00    -0.468 OA
BRANCH  19  20
ATOM     20  C   UNL     1      36.915 -21.006 -17.090  0.00  0.00    +0.264 C 
BRANCH  20  22
ATOM     21  N   UNL     1      38.094 -22.507 -15.602  0.00  0.00    -0.406 NA
ATOM     22  C   UNL     1      36.941 -21.849 -15.859  0.00  0.00    +0.152 C 
ATOM     23  C   UNL     1      37.056 -23.416 -13.626  0.00  0.00    +0.026 C 
ATOM     24  C   UNL     1      38.154 -23.280 -14.501  0.00  0.00    +0.113 C 
ATOM     25  C   UNL     1      35.816 -21.920 -15.063  0.00  0.00    +0.031 C 
ATOM     26  C   UNL     1      35.880 -22.717 -13.930  0.00  0.00    +0.005 C 
ATOM     27  C   UNL     1      37.154 -24.231 -12.485  0.00  0.00    +0.002 C 
ATOM     28  C   UNL     1      39.322 -23.974 -14.198  0.00  0.00    +0.085 C 
ATOM     29  C   UNL     1      38.334 -24.914 -12.207  0.00  0.00    -0.004 C 
ATOM     30  C   UNL     1      39.419 -24.786 -13.064  0.00  0.00    -0.019 C 
ENDBRANCH  20  22
ENDBRANCH  19  20
ENDBRANCH   4  19
TORSDOF 5
ENDMDL
