MODEL 1
REMARK VINA RESULT:     -11.9      0.000      0.000
REMARK  Name = 16045418
REMARK  6 active torsions:
REMARK  status: ('A' for Active; 'I' for Inactive)
REMARK    1  A    between atoms: C_2  and  O_8
REMARK    2  A    between atoms: C_4  and  O_23
REMARK    3  A    between atoms: O_8  and  C_9
REMARK    4  A    between atoms: C_9  and  C_14
REMARK    5  A    between atoms: O_23  and  C_25
REMARK    6  A    between atoms: C_28  and  C_32
REMARK                            x       y       z     vdW  Elec       q    Type
REMARK                         _______ _______ _______ _____ _____    ______ ____
ROOT
ATOM      1 CL   UNL     1      34.127 -14.824 -25.426  0.00  0.00    -0.079 Cl
ATOM      2  C   UNL     1      35.197 -18.064 -22.480  0.00  0.00    +0.142 C 
ATOM      3  C   UNL     1      35.567 -16.749 -22.213  0.00  0.00    +0.075 C 
ATOM      4  C   UNL     1      35.239 -15.739 -23.119  0.00  0.00    +0.159 C 
ATOM      5  C   UNL     1      34.504 -18.379 -23.645  0.00  0.00    +0.038 C 
ATOM      6  C   UNL     1      34.544 -16.050 -24.288  0.00  0.00    +0.092 C 
ATOM      7  C   UNL     1      34.177 -17.370 -24.551  0.00  0.00    +0.018 C 
ENDROOT
BRANCH   2   8
ATOM      8  O   UNL     1      35.519 -19.053 -21.592  0.00  0.00    -0.469 OA
BRANCH   8   9
ATOM      9  C   UNL     1      34.512 -19.410 -20.643  0.00  0.00    +0.249 C 
BRANCH   9  14
ATOM     10  N   UNL     1      36.451 -19.948 -19.188  0.00  0.00    -0.227 N 
ATOM     11  N   UNL     1      36.855 -20.631 -18.096  0.00  0.00    -0.115 NA
ATOM     12  N   UNL     1      35.588 -22.052 -16.592  0.00  0.00    -0.335 NA
ATOM     13  N   UNL     1      34.012 -23.355 -15.367  0.00  0.00    -0.332 N 
ATOM     14  C   UNL     1      35.122 -20.085 -19.486  0.00  0.00    +0.097 C 
ATOM     15  C   UNL     1      34.631 -20.914 -18.516  0.00  0.00    +0.090 C 
ATOM     16  C   UNL     1      35.737 -21.232 -17.671  0.00  0.00    +0.105 C 
ATOM     17  C   UNL     1      33.318 -21.346 -18.401  0.00  0.00    +0.016 C 
ATOM     18  C   UNL     1      33.186 -22.183 -17.288  0.00  0.00    +0.049 C 
ATOM     19  C   UNL     1      34.295 -22.488 -16.461  0.00  0.00    +0.189 C 
ATOM     20  H   UNL     1      37.064 -19.397 -19.727  0.00  0.00    +0.175 HD
ATOM     21  H   UNL     1      34.731 -23.613 -14.746  0.00  0.00    +0.145 HD
ATOM     22  H   UNL     1      33.098 -23.696 -15.231  0.00  0.00    +0.145 HD
ENDBRANCH   9  14
ENDBRANCH   8   9
ENDBRANCH   2   8
BRANCH   4  23
ATOM     23  O   UNL     1      35.610 -14.459 -22.836  0.00  0.00    -0.452 OA
BRANCH  23  25
ATOM     24 CL   UNL     1      32.124 -13.725 -19.202  0.00  0.00    -0.082 Cl
ATOM     25  C   UNL     1      34.659 -13.625 -22.273  0.00  0.00    +0.147 C 
ATOM     26  C   UNL     1      34.430 -12.384 -22.840  0.00  0.00    +0.048 C 
ATOM     27  C   UNL     1      33.962 -14.053 -21.157  0.00  0.00    +0.049 C 
ATOM     28  C   UNL     1      33.471 -11.544 -22.273  0.00  0.00    +0.072 C 
ATOM     29  C   UNL     1      33.003 -13.213 -20.591  0.00  0.00    +0.061 C 
ATOM     30  C   UNL     1      32.758 -11.958 -21.149  0.00  0.00    +0.022 C 
BRANCH  28  32
ATOM     31  N   UNL     1      33.018  -9.211 -23.311  0.00  0.00    -0.191 NA
ATOM     32  C   UNL     1      33.221 -10.258 -22.845  0.00  0.00    +0.101 C 
ENDBRANCH  28  32
ENDBRANCH  23  25
ENDBRANCH   4  23
TORSDOF 6
ENDMDL
MODEL 2
REMARK VINA RESULT:     -11.6      6.015      9.288
REMARK  Name = 16045418
REMARK  6 active torsions:
REMARK  status: ('A' for Active; 'I' for Inactive)
REMARK    1  A    between atoms: C_2  and  O_8
REMARK    2  A    between atoms: C_4  and  O_23
REMARK    3  A    between atoms: O_8  and  C_9
REMARK    4  A    between atoms: C_9  and  C_14
REMARK    5  A    between atoms: O_23  and  C_25
REMARK    6  A    between atoms: C_28  and  C_32
REMARK                            x       y       z     vdW  Elec       q    Type
REMARK                         _______ _______ _______ _____ _____    ______ ____
ROOT
ATOM      1 CL   UNL     1      29.348 -22.024 -16.296  0.00  0.00    -0.079 Cl
ATOM      2  C   UNL     1      32.850 -23.242 -13.731  0.00  0.00    +0.142 C 
ATOM      3  C   UNL     1      33.041 -23.035 -15.095  0.00  0.00    +0.075 C 
ATOM      4  C   UNL     1      31.963 -22.657 -15.896  0.00  0.00    +0.159 C 
ATOM      5  C   UNL     1      31.591 -23.076 -13.162  0.00  0.00    +0.038 C 
ATOM      6  C   UNL     1      30.699 -22.489 -15.330  0.00  0.00    +0.092 C 
ATOM      7  C   UNL     1      30.513 -22.699 -13.964  0.00  0.00    +0.018 C 
ENDROOT
BRANCH   2   8
ATOM      8  O   UNL     1      33.907 -23.613 -12.946  0.00  0.00    -0.469 OA
BRANCH   8   9
ATOM      9  C   UNL     1      35.193 -23.128 -13.338  0.00  0.00    +0.249 C 
BRANCH   9  14
ATOM     10  N   UNL     1      35.505 -25.261 -14.571  0.00  0.00    -0.227 N 
ATOM     11  N   UNL     1      36.400 -26.201 -14.940  0.00  0.00    -0.115 NA
ATOM     12  N   UNL     1      38.777 -26.350 -14.483  0.00  0.00    -0.335 NA
ATOM     13  N   UNL     1      41.058 -26.131 -13.823  0.00  0.00    -0.332 N 
ATOM     14  C   UNL     1      36.026 -24.239 -13.825  0.00  0.00    +0.097 C 
ATOM     15  C   UNL     1      37.355 -24.539 -13.704  0.00  0.00    +0.090 C 
ATOM     16  C   UNL     1      37.548 -25.766 -14.409  0.00  0.00    +0.105 C 
ATOM     17  C   UNL     1      38.302 -23.787 -13.026  0.00  0.00    +0.016 C 
ATOM     18  C   UNL     1      39.555 -24.403 -13.114  0.00  0.00    +0.049 C 
ATOM     19  C   UNL     1      39.728 -25.620 -13.818  0.00  0.00    +0.189 C 
ATOM     20  H   UNL     1      34.552 -25.307 -14.818  0.00  0.00    +0.175 HD
ATOM     21  H   UNL     1      41.259 -26.973 -14.291  0.00  0.00    +0.145 HD
ATOM     22  H   UNL     1      41.775 -25.642 -13.358  0.00  0.00    +0.145 HD
ENDBRANCH   9  14
ENDBRANCH   8   9
ENDBRANCH   2   8
BRANCH   4  23
ATOM     23  O   UNL     1      32.174 -22.459 -17.227  0.00  0.00    -0.452 OA
BRANCH  23  25
ATOM     24 CL   UNL     1      37.134 -21.809 -16.298  0.00  0.00    -0.082 Cl
ATOM     25  C   UNL     1      33.373 -21.883 -17.608  0.00  0.00    +0.147 C 
ATOM     26  C   UNL     1      33.411 -21.089 -18.741  0.00  0.00    +0.048 C 
ATOM     27  C   UNL     1      34.505 -22.114 -16.847  0.00  0.00    +0.049 C 
ATOM     28  C   UNL     1      34.620 -20.508 -19.124  0.00  0.00    +0.072 C 
ATOM     29  C   UNL     1      35.714 -21.533 -17.230  0.00  0.00    +0.061 C 
ATOM     30  C   UNL     1      35.771 -20.730 -18.369  0.00  0.00    +0.022 C 
BRANCH  28  32
ATOM     31  N   UNL     1      34.725 -19.015 -21.242  0.00  0.00    -0.191 NA
ATOM     32  C   UNL     1      34.678 -19.686 -20.292  0.00  0.00    +0.101 C 
ENDBRANCH  28  32
ENDBRANCH  23  25
ENDBRANCH   4  23
TORSDOF 6
ENDMDL
MODEL 3
REMARK VINA RESULT:     -11.5      6.541      9.621
REMARK  Name = 16045418
REMARK  6 active torsions:
REMARK  status: ('A' for Active; 'I' for Inactive)
REMARK    1  A    between atoms: C_2  and  O_8
REMARK    2  A    between atoms: C_4  and  O_23
REMARK    3  A    between atoms: O_8  and  C_9
REMARK    4  A    between atoms: C_9  and  C_14
REMARK    5  A    between atoms: O_23  and  C_25
REMARK    6  A    between atoms: C_28  and  C_32
REMARK                            x       y       z     vdW  Elec       q    Type
REMARK                         _______ _______ _______ _____ _____    ______ ____
ROOT
ATOM      1 CL   UNL     1      29.403 -22.010 -16.289  0.00  0.00    -0.079 Cl
ATOM      2  C   UNL     1      32.879 -23.261 -13.706  0.00  0.00    +0.142 C 
ATOM      3  C   UNL     1      33.070 -23.093 -15.074  0.00  0.00    +0.075 C 
ATOM      4  C   UNL     1      32.000 -22.705 -15.881  0.00  0.00    +0.159 C 
ATOM      5  C   UNL     1      31.627 -23.046 -13.137  0.00  0.00    +0.038 C 
ATOM      6  C   UNL     1      30.743 -22.488 -15.316  0.00  0.00    +0.092 C 
ATOM      7  C   UNL     1      30.557 -22.659 -13.945  0.00  0.00    +0.018 C 
ENDROOT
BRANCH   2   8
ATOM      8  O   UNL     1      33.928 -23.642 -12.915  0.00  0.00    -0.469 OA
BRANCH   8   9
ATOM      9  C   UNL     1      35.216 -23.147 -13.284  0.00  0.00    +0.249 C 
BRANCH   9  14
ATOM     10  N   UNL     1      35.534 -25.241 -14.581  0.00  0.00    -0.227 N 
ATOM     11  N   UNL     1      36.430 -26.172 -14.972  0.00  0.00    -0.115 NA
ATOM     12  N   UNL     1      38.803 -26.341 -14.499  0.00  0.00    -0.335 NA
ATOM     13  N   UNL     1      41.078 -26.149 -13.812  0.00  0.00    -0.332 N 
ATOM     14  C   UNL     1      36.052 -24.244 -13.799  0.00  0.00    +0.097 C 
ATOM     15  C   UNL     1      37.378 -24.552 -13.675  0.00  0.00    +0.090 C 
ATOM     16  C   UNL     1      37.575 -25.756 -14.418  0.00  0.00    +0.105 C 
ATOM     17  C   UNL     1      38.321 -23.825 -12.965  0.00  0.00    +0.016 C 
ATOM     18  C   UNL     1      39.573 -24.440 -13.062  0.00  0.00    +0.049 C 
ATOM     19  C   UNL     1      39.750 -25.635 -13.803  0.00  0.00    +0.189 C 
ATOM     20  H   UNL     1      34.584 -25.277 -14.839  0.00  0.00    +0.175 HD
ATOM     21  H   UNL     1      41.282 -26.977 -14.305  0.00  0.00    +0.145 HD
ATOM     22  H   UNL     1      41.792 -25.678 -13.325  0.00  0.00    +0.145 HD
ENDBRANCH   9  14
ENDBRANCH   8   9
ENDBRANCH   2   8
BRANCH   4  23
ATOM     23  O   UNL     1      32.212 -22.545 -17.218  0.00  0.00    -0.452 OA
BRANCH  23  25
ATOM     24 CL   UNL     1      34.578 -19.545 -20.578  0.00  0.00    -0.082 Cl
ATOM     25  C   UNL     1      33.381 -21.919 -17.612  0.00  0.00    +0.147 C 
ATOM     26  C   UNL     1      34.525 -22.083 -16.850  0.00  0.00    +0.048 C 
ATOM     27  C   UNL     1      33.380 -21.144 -18.759  0.00  0.00    +0.049 C 
ATOM     28  C   UNL     1      35.704 -21.453 -17.247  0.00  0.00    +0.072 C 
ATOM     29  C   UNL     1      34.558 -20.514 -19.156  0.00  0.00    +0.061 C 
ATOM     30  C   UNL     1      35.720 -20.668 -18.400  0.00  0.00    +0.022 C 
BRANCH  28  32
ATOM     31  N   UNL     1      37.864 -21.739 -15.841  0.00  0.00    -0.191 NA
ATOM     32  C   UNL     1      36.894 -21.610 -16.472  0.00  0.00    +0.101 C 
ENDBRANCH  28  32
ENDBRANCH  23  25
ENDBRANCH   4  23
TORSDOF 6
ENDMDL
MODEL 4
REMARK VINA RESULT:     -11.4      5.684     10.746
REMARK  Name = 16045418
REMARK  6 active torsions:
REMARK  status: ('A' for Active; 'I' for Inactive)
REMARK    1  A    between atoms: C_2  and  O_8
REMARK    2  A    between atoms: C_4  and  O_23
REMARK    3  A    between atoms: O_8  and  C_9
REMARK    4  A    between atoms: C_9  and  C_14
REMARK    5  A    between atoms: O_23  and  C_25
REMARK    6  A    between atoms: C_28  and  C_32
REMARK                            x       y       z     vdW  Elec       q    Type
REMARK                         _______ _______ _______ _____ _____    ______ ____
ROOT
ATOM      1 CL   UNL     1      31.263 -23.155 -12.025  0.00  0.00    -0.079 Cl
ATOM      2  C   UNL     1      32.213 -22.415 -16.370  0.00  0.00    +0.142 C 
ATOM      3  C   UNL     1      33.241 -22.748 -15.493  0.00  0.00    +0.075 C 
ATOM      4  C   UNL     1      32.956 -22.979 -14.147  0.00  0.00    +0.159 C 
ATOM      5  C   UNL     1      30.903 -22.310 -15.913  0.00  0.00    +0.038 C 
ATOM      6  C   UNL     1      31.644 -22.876 -13.684  0.00  0.00    +0.092 C 
ATOM      7  C   UNL     1      30.618 -22.541 -14.567  0.00  0.00    +0.018 C 
ENDROOT
BRANCH   2   8
ATOM      8  O   UNL     1      32.493 -22.188 -17.689  0.00  0.00    -0.469 OA
BRANCH   8   9
ATOM      9  C   UNL     1      33.850 -21.876 -18.008  0.00  0.00    +0.249 C 
BRANCH   9  14
ATOM     10  N   UNL     1      32.772 -20.387 -19.677  0.00  0.00    -0.227 N 
ATOM     11  N   UNL     1      32.987 -19.424 -20.598  0.00  0.00    -0.115 NA
ATOM     12  N   UNL     1      35.057 -18.367 -21.291  0.00  0.00    -0.335 NA
ATOM     13  N   UNL     1      37.275 -17.587 -21.686  0.00  0.00    -0.332 N 
ATOM     14  C   UNL     1      33.900 -20.829 -19.041  0.00  0.00    +0.097 C 
ATOM     15  C   UNL     1      34.918 -20.100 -19.591  0.00  0.00    +0.090 C 
ATOM     16  C   UNL     1      34.311 -19.238 -20.554  0.00  0.00    +0.105 C 
ATOM     17  C   UNL     1      36.261 -20.198 -19.261  0.00  0.00    +0.016 C 
ATOM     18  C   UNL     1      37.009 -19.298 -20.027  0.00  0.00    +0.049 C 
ATOM     19  C   UNL     1      36.390 -18.450 -20.978  0.00  0.00    +0.189 C 
ATOM     20  H   UNL     1      31.875 -20.742 -19.479  0.00  0.00    +0.175 HD
ATOM     21  H   UNL     1      36.921 -16.967 -22.364  0.00  0.00    +0.145 HD
ATOM     22  H   UNL     1      38.241 -17.610 -21.497  0.00  0.00    +0.145 HD
ENDBRANCH   9  14
ENDBRANCH   8   9
ENDBRANCH   2   8
BRANCH   4  23
ATOM     23  O   UNL     1      33.978 -23.306 -13.307  0.00  0.00    -0.452 OA
BRANCH  23  25
ATOM     24 CL   UNL     1      37.589 -20.824 -15.895  0.00  0.00    -0.082 Cl
ATOM     25  C   UNL     1      35.261 -23.308 -13.828  0.00  0.00    +0.147 C 
ATOM     26  C   UNL     1      36.059 -24.425 -13.651  0.00  0.00    +0.048 C 
ATOM     27  C   UNL     1      35.714 -22.195 -14.514  0.00  0.00    +0.049 C 
ATOM     28  C   UNL     1      37.350 -24.428 -14.177  0.00  0.00    +0.072 C 
ATOM     29  C   UNL     1      37.005 -22.198 -15.040  0.00  0.00    +0.061 C 
ATOM     30  C   UNL     1      37.824 -23.315 -14.871  0.00  0.00    +0.022 C 
BRANCH  28  32
ATOM     31  N   UNL     1      38.873 -26.504 -13.861  0.00  0.00    -0.191 NA
ATOM     32  C   UNL     1      38.189 -25.573 -14.003  0.00  0.00    +0.101 C 
ENDBRANCH  28  32
ENDBRANCH  23  25
ENDBRANCH   4  23
TORSDOF 6
ENDMDL
MODEL 5
REMARK VINA RESULT:     -11.0      2.187      4.261
REMARK  Name = 16045418
REMARK  6 active torsions:
REMARK  status: ('A' for Active; 'I' for Inactive)
REMARK    1  A    between atoms: C_2  and  O_8
REMARK    2  A    between atoms: C_4  and  O_23
REMARK    3  A    between atoms: O_8  and  C_9
REMARK    4  A    between atoms: C_9  and  C_14
REMARK    5  A    between atoms: O_23  and  C_25
REMARK    6  A    between atoms: C_28  and  C_32
REMARK                            x       y       z     vdW  Elec       q    Type
REMARK                         _______ _______ _______ _____ _____    ______ ____
ROOT
ATOM      1 CL   UNL     1      32.333 -11.961 -19.676  0.00  0.00    -0.079 Cl
ATOM      2  C   UNL     1      34.939 -14.705 -22.127  0.00  0.00    +0.142 C 
ATOM      3  C   UNL     1      34.218 -13.698 -22.764  0.00  0.00    +0.075 C 
ATOM      4  C   UNL     1      33.409 -12.844 -22.013  0.00  0.00    +0.159 C 
ATOM      5  C   UNL     1      34.858 -14.865 -20.747  0.00  0.00    +0.038 C 
ATOM      6  C   UNL     1      33.325 -13.001 -20.629  0.00  0.00    +0.092 C 
ATOM      7  C   UNL     1      34.049 -14.012 -19.997  0.00  0.00    +0.018 C 
ENDROOT
BRANCH   2   8
ATOM      8  O   UNL     1      35.731 -15.542 -22.863  0.00  0.00    -0.469 OA
BRANCH   8   9
ATOM      9  C   UNL     1      35.320 -16.908 -22.938  0.00  0.00    +0.249 C 
BRANCH   9  14
ATOM     10  N   UNL     1      37.362 -17.600 -21.706  0.00  0.00    -0.227 N 
ATOM     11  N   UNL     1      37.844 -18.395 -20.727  0.00  0.00    -0.115 NA
ATOM     12  N   UNL     1      36.686 -19.967 -19.287  0.00  0.00    -0.335 NA
ATOM     13  N   UNL     1      35.199 -21.391 -18.086  0.00  0.00    -0.332 N 
ATOM     14  C   UNL     1      36.012 -17.702 -21.911  0.00  0.00    +0.097 C 
ATOM     15  C   UNL     1      35.591 -18.630 -20.998  0.00  0.00    +0.090 C 
ATOM     16  C   UNL     1      36.758 -19.037 -20.282  0.00  0.00    +0.105 C 
ATOM     17  C   UNL     1      34.287 -19.070 -20.825  0.00  0.00    +0.016 C 
ATOM     18  C   UNL     1      34.235 -20.021 -19.801  0.00  0.00    +0.049 C 
ATOM     19  C   UNL     1      35.403 -20.413 -19.101  0.00  0.00    +0.189 C 
ATOM     20  H   UNL     1      37.936 -16.995 -22.230  0.00  0.00    +0.175 HD
ATOM     21  H   UNL     1      35.962 -21.715 -17.555  0.00  0.00    +0.145 HD
ATOM     22  H   UNL     1      34.295 -21.743 -17.915  0.00  0.00    +0.145 HD
ENDBRANCH   9  14
ENDBRANCH   8   9
ENDBRANCH   2   8
BRANCH   4  23
ATOM     23  O   UNL     1      32.714 -11.866 -22.657  0.00  0.00    -0.452 OA
BRANCH  23  25
ATOM     24 CL   UNL     1      36.216  -9.290 -25.302  0.00  0.00    -0.082 Cl
ATOM     25  C   UNL     1      33.361 -10.664 -22.888  0.00  0.00    +0.147 C 
ATOM     26  C   UNL     1      33.013  -9.555 -22.137  0.00  0.00    +0.048 C 
ATOM     27  C   UNL     1      34.341 -10.601 -23.862  0.00  0.00    +0.049 C 
ATOM     28  C   UNL     1      33.666  -8.345 -22.369  0.00  0.00    +0.072 C 
ATOM     29  C   UNL     1      34.994  -9.391 -24.094  0.00  0.00    +0.061 C 
ATOM     30  C   UNL     1      34.656  -8.262 -23.348  0.00  0.00    +0.022 C 
BRANCH  28  32
ATOM     31  N   UNL     1      33.036  -6.245 -20.982  0.00  0.00    -0.191 NA
ATOM     32  C   UNL     1      33.318  -7.188 -21.604  0.00  0.00    +0.101 C 
ENDBRANCH  28  32
ENDBRANCH  23  25
ENDBRANCH   4  23
TORSDOF 6
ENDMDL
MODEL 6
REMARK VINA RESULT:     -11.0      4.890     10.842
REMARK  Name = 16045418
REMARK  6 active torsions:
REMARK  status: ('A' for Active; 'I' for Inactive)
REMARK    1  A    between atoms: C_2  and  O_8
REMARK    2  A    between atoms: C_4  and  O_23
REMARK    3  A    between atoms: O_8  and  C_9
REMARK    4  A    between atoms: C_9  and  C_14
REMARK    5  A    between atoms: O_23  and  C_25
REMARK    6  A    between atoms: C_28  and  C_32
REMARK                            x       y       z     vdW  Elec       q    Type
REMARK                         _______ _______ _______ _____ _____    ______ ____
ROOT
ATOM      1 CL   UNL     1      34.191 -22.862 -14.511  0.00  0.00    -0.079 Cl
ATOM      2  C   UNL     1      35.867 -21.229 -18.365  0.00  0.00    +0.142 C 
ATOM      3  C   UNL     1      36.575 -21.046 -17.180  0.00  0.00    +0.075 C 
ATOM      4  C   UNL     1      36.064 -21.549 -15.983  0.00  0.00    +0.159 C 
ATOM      5  C   UNL     1      34.653 -21.909 -18.363  0.00  0.00    +0.038 C 
ATOM      6  C   UNL     1      34.848 -22.231 -15.976  0.00  0.00    +0.092 C 
ATOM      7  C   UNL     1      34.142 -22.411 -17.165  0.00  0.00    +0.018 C 
ENDROOT
BRANCH   2   8
ATOM      8  O   UNL     1      36.368 -20.736 -19.538  0.00  0.00    -0.469 OA
BRANCH   8   9
ATOM      9  C   UNL     1      35.413 -20.383 -20.540  0.00  0.00    +0.249 C 
BRANCH   9  14
ATOM     10  N   UNL     1      35.855 -18.037 -19.855  0.00  0.00    -0.227 N 
ATOM     11  N   UNL     1      35.862 -16.750 -20.264  0.00  0.00    -0.115 NA
ATOM     12  N   UNL     1      35.307 -15.803 -22.427  0.00  0.00    -0.335 NA
ATOM     13  N   UNL     1      34.685 -15.275 -24.667  0.00  0.00    -0.332 N 
ATOM     14  C   UNL     1      35.476 -18.938 -20.813  0.00  0.00    +0.097 C 
ATOM     15  C   UNL     1      35.220 -18.180 -21.922  0.00  0.00    +0.090 C 
ATOM     16  C   UNL     1      35.471 -16.826 -21.541  0.00  0.00    +0.105 C 
ATOM     17  C   UNL     1      34.801 -18.655 -23.156  0.00  0.00    +0.016 C 
ATOM     18  C   UNL     1      34.640 -17.591 -24.049  0.00  0.00    +0.049 C 
ATOM     19  C   UNL     1      34.893 -16.254 -23.654  0.00  0.00    +0.189 C 
ATOM     20  H   UNL     1      36.103 -18.305 -18.940  0.00  0.00    +0.175 HD
ATOM     21  H   UNL     1      34.840 -14.323 -24.470  0.00  0.00    +0.145 HD
ATOM     22  H   UNL     1      34.387 -15.550 -25.564  0.00  0.00    +0.145 HD
ENDBRANCH   9  14
ENDBRANCH   8   9
ENDBRANCH   2   8
BRANCH   4  23
ATOM     23  O   UNL     1      36.775 -21.359 -14.836  0.00  0.00    -0.452 OA
BRANCH  23  25
ATOM     24 CL   UNL     1      39.871 -25.382 -14.484  0.00  0.00    -0.082 Cl
ATOM     25  C   UNL     1      37.163 -22.484 -14.127  0.00  0.00    +0.147 C 
ATOM     26  C   UNL     1      36.505 -22.800 -12.951  0.00  0.00    +0.048 C 
ATOM     27  C   UNL     1      38.197 -23.264 -14.612  0.00  0.00    +0.049 C 
ATOM     28  C   UNL     1      36.894 -23.934 -12.239  0.00  0.00    +0.072 C 
ATOM     29  C   UNL     1      38.586 -24.398 -13.900  0.00  0.00    +0.061 C 
ATOM     30  C   UNL     1      37.935 -24.732 -12.712  0.00  0.00    +0.022 C 
BRANCH  28  32
ATOM     31  N   UNL     1      35.684 -24.556 -10.031  0.00  0.00    -0.191 NA
ATOM     32  C   UNL     1      36.228 -24.275 -11.022  0.00  0.00    +0.101 C 
ENDBRANCH  28  32
ENDBRANCH  23  25
ENDBRANCH   4  23
TORSDOF 6
ENDMDL
MODEL 7
REMARK VINA RESULT:     -10.8      3.548      6.177
REMARK  Name = 16045418
REMARK  6 active torsions:
REMARK  status: ('A' for Active; 'I' for Inactive)
REMARK    1  A    between atoms: C_2  and  O_8
REMARK    2  A    between atoms: C_4  and  O_23
REMARK    3  A    between atoms: O_8  and  C_9
REMARK    4  A    between atoms: C_9  and  C_14
REMARK    5  A    between atoms: O_23  and  C_25
REMARK    6  A    between atoms: C_28  and  C_32
REMARK                            x       y       z     vdW  Elec       q    Type
REMARK                         _______ _______ _______ _____ _____    ______ ____
ROOT
ATOM      1 CL   UNL     1      31.347 -11.043 -18.344  0.00  0.00    -0.079 Cl
ATOM      2  C   UNL     1      33.084 -13.079 -21.972  0.00  0.00    +0.142 C 
ATOM      3  C   UNL     1      32.428 -11.860 -22.121  0.00  0.00    +0.075 C 
ATOM      4  C   UNL     1      31.888 -11.223 -21.004  0.00  0.00    +0.159 C 
ATOM      5  C   UNL     1      33.204 -13.666 -20.716  0.00  0.00    +0.038 C 
ATOM      6  C   UNL     1      32.006 -11.807 -19.743  0.00  0.00    +0.092 C 
ATOM      7  C   UNL     1      32.664 -13.029 -19.599  0.00  0.00    +0.018 C 
ENDROOT
BRANCH   2   8
ATOM      8  O   UNL     1      33.613 -13.704 -23.068  0.00  0.00    -0.469 OA
BRANCH   8   9
ATOM      9  C   UNL     1      34.934 -14.229 -22.927  0.00  0.00    +0.249 C 
BRANCH   9  14
ATOM     10  N   UNL     1      34.548 -16.356 -24.148  0.00  0.00    -0.227 N 
ATOM     11  N   UNL     1      34.572 -17.703 -24.054  0.00  0.00    -0.115 NA
ATOM     12  N   UNL     1      35.152 -19.121 -22.173  0.00  0.00    -0.335 NA
ATOM     13  N   UNL     1      35.786 -20.148 -20.117  0.00  0.00    -0.332 N 
ATOM     14  C   UNL     1      34.906 -15.698 -23.003  0.00  0.00    +0.097 C 
ATOM     15  C   UNL     1      35.183 -16.691 -22.103  0.00  0.00    +0.090 C 
ATOM     16  C   UNL     1      34.964 -17.922 -22.793  0.00  0.00    +0.105 C 
ATOM     17  C   UNL     1      35.591 -16.510 -20.790  0.00  0.00    +0.016 C 
ATOM     18  C   UNL     1      35.779 -17.751 -20.173  0.00  0.00    +0.049 C 
ATOM     19  C   UNL     1      35.557 -18.962 -20.873  0.00  0.00    +0.189 C 
ATOM     20  H   UNL     1      34.292 -15.886 -24.975  0.00  0.00    +0.175 HD
ATOM     21  H   UNL     1      35.654 -21.030 -20.534  0.00  0.00    +0.145 HD
ATOM     22  H   UNL     1      36.077 -20.085 -19.179  0.00  0.00    +0.145 HD
ENDBRANCH   9  14
ENDBRANCH   8   9
ENDBRANCH   2   8
BRANCH   4  23
ATOM     23  O   UNL     1      31.251 -10.030 -21.173  0.00  0.00    -0.452 OA
BRANCH  23  25
ATOM     24 CL   UNL     1      34.584  -7.090 -23.652  0.00  0.00    -0.082 Cl
ATOM     25  C   UNL     1      32.027  -8.884 -21.180  0.00  0.00    +0.147 C 
ATOM     26  C   UNL     1      31.996  -8.042 -20.081  0.00  0.00    +0.048 C 
ATOM     27  C   UNL     1      32.815  -8.608 -22.283  0.00  0.00    +0.049 C 
ATOM     28  C   UNL     1      32.779  -6.888 -20.088  0.00  0.00    +0.072 C 
ATOM     29  C   UNL     1      33.597  -7.453 -22.289  0.00  0.00    +0.061 C 
ATOM     30  C   UNL     1      33.579  -6.593 -21.191  0.00  0.00    +0.022 C 
BRANCH  28  32
ATOM     31  N   UNL     1      32.744  -5.287 -18.047  0.00  0.00    -0.191 NA
ATOM     32  C   UNL     1      32.759  -6.006 -18.963  0.00  0.00    +0.101 C 
ENDBRANCH  28  32
ENDBRANCH  23  25
ENDBRANCH   4  23
TORSDOF 6
ENDMDL
MODEL 8
REMARK VINA RESULT:     -10.8      6.159     10.526
REMARK  Name = 16045418
REMARK  6 active torsions:
REMARK  status: ('A' for Active; 'I' for Inactive)
REMARK    1  A    between atoms: C_2  and  O_8
REMARK    2  A    between atoms: C_4  and  O_23
REMARK    3  A    between atoms: O_8  and  C_9
REMARK    4  A    between atoms: C_9  and  C_14
REMARK    5  A    between atoms: O_23  and  C_25
REMARK    6  A    between atoms: C_28  and  C_32
REMARK                            x       y       z     vdW  Elec       q    Type
REMARK                         _______ _______ _______ _____ _____    ______ ____
ROOT
ATOM      1 CL   UNL     1      30.774 -23.544 -12.161  0.00  0.00    -0.079 Cl
ATOM      2  C   UNL     1      31.919 -22.401 -16.369  0.00  0.00    +0.142 C 
ATOM      3  C   UNL     1      32.812 -23.135 -15.594  0.00  0.00    +0.075 C 
ATOM      4  C   UNL     1      32.466 -23.494 -14.291  0.00  0.00    +0.159 C 
ATOM      5  C   UNL     1      30.684 -22.022 -15.853  0.00  0.00    +0.038 C 
ATOM      6  C   UNL     1      31.228 -23.116 -13.769  0.00  0.00    +0.092 C 
ATOM      7  C   UNL     1      30.338 -22.380 -14.550  0.00  0.00    +0.018 C 
ENDROOT
BRANCH   2   8
ATOM      8  O   UNL     1      32.259 -22.050 -17.647  0.00  0.00    -0.469 OA
BRANCH   8   9
ATOM      9  C   UNL     1      33.639 -21.760 -17.882  0.00  0.00    +0.249 C 
BRANCH   9  14
ATOM     10  N   UNL     1      32.687 -20.306 -19.656  0.00  0.00    -0.227 N 
ATOM     11  N   UNL     1      32.975 -19.393 -20.608  0.00  0.00    -0.115 NA
ATOM     12  N   UNL     1      35.112 -18.449 -21.260  0.00  0.00    -0.335 NA
ATOM     13  N   UNL     1      37.373 -17.771 -21.596  0.00  0.00    -0.332 N 
ATOM     14  C   UNL     1      33.770 -20.763 -18.956  0.00  0.00    +0.097 C 
ATOM     15  C   UNL     1      34.837 -20.097 -19.494  0.00  0.00    +0.090 C 
ATOM     16  C   UNL     1      34.303 -19.256 -20.517  0.00  0.00    +0.105 C 
ATOM     17  C   UNL     1      36.162 -20.232 -19.106  0.00  0.00    +0.016 C 
ATOM     18  C   UNL     1      36.974 -19.396 -19.878  0.00  0.00    +0.049 C 
ATOM     19  C   UNL     1      36.427 -18.568 -20.889  0.00  0.00    +0.189 C 
ATOM     20  H   UNL     1      31.769 -20.617 -19.479  0.00  0.00    +0.175 HD
ATOM     21  H   UNL     1      37.071 -17.169 -22.314  0.00  0.00    +0.145 HD
ATOM     22  H   UNL     1      38.329 -17.823 -21.367  0.00  0.00    +0.145 HD
ENDBRANCH   9  14
ENDBRANCH   8   9
ENDBRANCH   2   8
BRANCH   4  23
ATOM     23  O   UNL     1      33.355 -24.214 -13.551  0.00  0.00    -0.452 OA
BRANCH  23  25
ATOM     24 CL   UNL     1      36.961 -23.034 -10.159  0.00  0.00    -0.082 Cl
ATOM     25  C   UNL     1      34.593 -23.645 -13.303  0.00  0.00    +0.147 C 
ATOM     26  C   UNL     1      35.308 -23.101 -14.356  0.00  0.00    +0.048 C 
ATOM     27  C   UNL     1      35.084 -23.633 -12.010  0.00  0.00    +0.049 C 
ATOM     28  C   UNL     1      36.554 -22.527 -14.106  0.00  0.00    +0.072 C 
ATOM     29  C   UNL     1      36.330 -23.059 -11.760  0.00  0.00    +0.061 C 
ATOM     30  C   UNL     1      37.066 -22.506 -12.809  0.00  0.00    +0.022 C 
BRANCH  28  32
ATOM     31  N   UNL     1      37.920 -21.501 -16.057  0.00  0.00    -0.191 NA
ATOM     32  C   UNL     1      37.308 -21.961 -15.181  0.00  0.00    +0.101 C 
ENDBRANCH  28  32
ENDBRANCH  23  25
ENDBRANCH   4  23
TORSDOF 6
ENDMDL
MODEL 9
REMARK VINA RESULT:     -10.8      5.643     11.242
REMARK  Name = 16045418
REMARK  6 active torsions:
REMARK  status: ('A' for Active; 'I' for Inactive)
REMARK    1  A    between atoms: C_2  and  O_8
REMARK    2  A    between atoms: C_4  and  O_23
REMARK    3  A    between atoms: O_8  and  C_9
REMARK    4  A    between atoms: C_9  and  C_14
REMARK    5  A    between atoms: O_23  and  C_25
REMARK    6  A    between atoms: C_28  and  C_32
REMARK                            x       y       z     vdW  Elec       q    Type
REMARK                         _______ _______ _______ _____ _____    ______ ____
ROOT
ATOM      1 CL   UNL     1      30.966 -23.471 -12.751  0.00  0.00    -0.079 Cl
ATOM      2  C   UNL     1      33.783 -22.684 -16.182  0.00  0.00    +0.142 C 
ATOM      3  C   UNL     1      34.299 -23.072 -14.949  0.00  0.00    +0.075 C 
ATOM      4  C   UNL     1      33.435 -23.318 -13.882  0.00  0.00    +0.159 C 
ATOM      5  C   UNL     1      32.410 -22.539 -16.357  0.00  0.00    +0.038 C 
ATOM      6  C   UNL     1      32.058 -23.175 -14.053  0.00  0.00    +0.092 C 
ATOM      7  C   UNL     1      31.546 -22.784 -15.290  0.00  0.00    +0.018 C 
ENDROOT
BRANCH   2   8
ATOM      8  O   UNL     1      34.631 -22.442 -17.228  0.00  0.00    -0.469 OA
BRANCH   8   9
ATOM      9  C   UNL     1      34.110 -21.659 -18.303  0.00  0.00    +0.249 C 
BRANCH   9  14
ATOM     10  N   UNL     1      36.360 -20.616 -18.192  0.00  0.00    -0.227 N 
ATOM     11  N   UNL     1      37.189 -19.715 -18.762  0.00  0.00    -0.115 NA
ATOM     12  N   UNL     1      36.835 -18.271 -20.678  0.00  0.00    -0.335 NA
ATOM     13  N   UNL     1      36.101 -17.031 -22.578  0.00  0.00    -0.332 N 
ATOM     14  C   UNL     1      35.136 -20.725 -18.793  0.00  0.00    +0.097 C 
ATOM     15  C   UNL     1      35.175 -19.831 -19.827  0.00  0.00    +0.090 C 
ATOM     16  C   UNL     1      36.466 -19.223 -19.775  0.00  0.00    +0.105 C 
ATOM     17  C   UNL     1      34.152 -19.583 -20.730  0.00  0.00    +0.016 C 
ATOM     18  C   UNL     1      34.550 -18.605 -21.647  0.00  0.00    +0.049 C 
ATOM     19  C   UNL     1      35.835 -18.013 -21.580  0.00  0.00    +0.189 C 
ATOM     20  H   UNL     1      36.617 -21.151 -17.406  0.00  0.00    +0.175 HD
ATOM     21  H   UNL     1      36.972 -16.574 -22.598  0.00  0.00    +0.145 HD
ATOM     22  H   UNL     1      35.413 -16.810 -23.247  0.00  0.00    +0.145 HD
ENDBRANCH   9  14
ENDBRANCH   8   9
ENDBRANCH   2   8
BRANCH   4  23
ATOM     23  O   UNL     1      33.963 -23.699 -12.685  0.00  0.00    -0.452 OA
BRANCH  23  25
ATOM     24 CL   UNL     1      38.305 -21.657 -10.989  0.00  0.00    -0.082 Cl
ATOM     25  C   UNL     1      35.341 -23.784 -12.590  0.00  0.00    +0.147 C 
ATOM     26  C   UNL     1      35.993 -24.858 -13.171  0.00  0.00    +0.048 C 
ATOM     27  C   UNL     1      36.034 -22.793 -11.917  0.00  0.00    +0.049 C 
ATOM     28  C   UNL     1      37.382 -24.942 -13.076  0.00  0.00    +0.072 C 
ATOM     29  C   UNL     1      37.423 -22.878 -11.822  0.00  0.00    +0.061 C 
ATOM     30  C   UNL     1      38.097 -23.953 -12.401  0.00  0.00    +0.022 C 
BRANCH  28  32
ATOM     31  N   UNL     1      38.633 -26.943 -14.153  0.00  0.00    -0.191 NA
ATOM     32  C   UNL     1      38.072 -26.044 -13.669  0.00  0.00    +0.101 C 
ENDBRANCH  28  32
ENDBRANCH  23  25
ENDBRANCH   4  23
TORSDOF 6
ENDMDL
