MODEL 1
REMARK VINA RESULT:     -12.8      0.000      0.000
REMARK  Name = 51039095
REMARK  7 active torsions:
REMARK  status: ('A' for Active; 'I' for Inactive)
REMARK    1  A    between atoms: C_5  and  C_16
REMARK    2  A    between atoms: C_6  and  C_27
REMARK    3  A    between atoms: C_11  and  N_17
REMARK    4  A    between atoms: C_27  and  C_28
REMARK    5  A    between atoms: C_28  and  C_29
REMARK    6  A    between atoms: C_32  and  O_35
REMARK    7  A    between atoms: C_33  and  O_37
REMARK                            x       y       z     vdW  Elec       q    Type
REMARK                         _______ _______ _______ _____ _____    ______ ____
ROOT
ATOM      1  O   UNL     1      34.206 -13.350 -23.671  0.00  0.00    -0.270 OA
ATOM      2  N   UNL     1      34.422 -13.247 -21.336  0.00  0.00    -0.265 N 
ATOM      3  N   UNL     1      35.462 -16.227 -19.890  0.00  0.00    -0.239 N 
ATOM      4  N   UNL     1      35.095 -14.943 -19.748  0.00  0.00    -0.166 NA
ATOM      5  C   UNL     1      34.132 -12.721 -22.603  0.00  0.00    +0.251 C 
ATOM      6  C   UNL     1      35.456 -16.662 -21.184  0.00  0.00    +0.046 C 
ATOM      7  C   UNL     1      34.848 -14.557 -21.002  0.00  0.00    +0.153 C 
ATOM      8  C   UNL     1      35.055 -15.587 -21.939  0.00  0.00    +0.048 C 
ATOM      9  H   UNL     1      34.317 -12.626 -20.580  0.00  0.00    +0.157 HD
ATOM     10  H   UNL     1      35.714 -16.801 -19.131  0.00  0.00    +0.174 HD
ENDROOT
BRANCH   5  16
ATOM     11  C   UNL     1      32.829  -8.682 -22.676  0.00  0.00    +0.048 C 
ATOM     12  C   UNL     1      32.296  -9.570 -21.741  0.00  0.00    +0.015 C 
ATOM     13  C   UNL     1      33.792  -9.120 -23.585  0.00  0.00    +0.015 C 
ATOM     14  C   UNL     1      32.724 -10.897 -21.718  0.00  0.00    +0.006 C 
ATOM     15  C   UNL     1      34.220 -10.448 -23.561  0.00  0.00    +0.006 C 
ATOM     16  C   UNL     1      33.687 -11.336 -22.627  0.00  0.00    +0.054 C 
BRANCH  11  17
ATOM     17  N   UNL     1      32.401  -7.350 -22.700  0.00  0.00    -0.312 N 
ATOM     18  N   UNL     1      31.752  -4.575 -22.736  0.00  0.00    +0.389 N 
ATOM     19  C   UNL     1      31.236  -5.438 -21.667  0.00  0.00    -0.042 C 
ATOM     20  C   UNL     1      31.861  -5.320 -23.994  0.00  0.00    -0.042 C 
ATOM     21  C   UNL     1      32.167  -6.638 -21.439  0.00  0.00    +0.069 C 
ATOM     22  C   UNL     1      32.813  -6.515 -23.837  0.00  0.00    +0.069 C 
ATOM     23  C   UNL     1      32.357  -4.379 -25.090  0.00  0.00    -0.022 C 
ATOM     24  C   UNL     1      31.096  -4.617 -20.386  0.00  0.00    -0.022 C 
ATOM     25  H   UNL     1      32.675  -4.229 -22.470  0.00  0.00    -0.084 HD
ATOM     26  H   UNL     1      31.108  -3.796 -22.869  0.00  0.00    -0.084 HD
ENDBRANCH  11  17
ENDBRANCH   5  16
BRANCH   6  27
ATOM     27  C   UNL     1      35.827 -18.038 -21.550  0.00  0.00    +0.047 C 
BRANCH  27  28
ATOM     28  C   UNL     1      34.673 -19.067 -21.458  0.00  0.00    +0.033 C 
BRANCH  28  29
ATOM     29  C   UNL     1      34.716 -19.888 -20.191  0.00  0.00    -0.016 C 
ATOM     30  C   UNL     1      33.535 -20.387 -19.641  0.00  0.00    +0.033 C 
ATOM     31  C   UNL     1      35.937 -20.148 -19.571  0.00  0.00    +0.033 C 
ATOM     32  C   UNL     1      35.979 -20.907 -18.401  0.00  0.00    +0.141 C 
ATOM     33  C   UNL     1      33.576 -21.145 -18.472  0.00  0.00    +0.141 C 
ATOM     34  C   UNL     1      34.797 -21.405 -17.851  0.00  0.00    +0.074 C 
BRANCH  32  35
ATOM     35  O   UNL     1      37.171 -21.162 -17.796  0.00  0.00    -0.471 OA
ATOM     36  C   UNL     1      37.164 -21.278 -16.374  0.00  0.00    +0.252 C 
ENDBRANCH  32  35
BRANCH  33  37
ATOM     37  O   UNL     1      32.424 -21.633 -17.936  0.00  0.00    -0.471 OA
ATOM     38  C   UNL     1      32.532 -22.350 -16.707  0.00  0.00    +0.252 C 
ENDBRANCH  33  37
ENDBRANCH  28  29
ENDBRANCH  27  28
ENDBRANCH   6  27
TORSDOF 7
ENDMDL
MODEL 2
REMARK VINA RESULT:     -12.8      0.016      1.834
REMARK  Name = 51039095
REMARK  7 active torsions:
REMARK  status: ('A' for Active; 'I' for Inactive)
REMARK    1  A    between atoms: C_5  and  C_16
REMARK    2  A    between atoms: C_6  and  C_27
REMARK    3  A    between atoms: C_11  and  N_17
REMARK    4  A    between atoms: C_27  and  C_28
REMARK    5  A    between atoms: C_28  and  C_29
REMARK    6  A    between atoms: C_32  and  O_35
REMARK    7  A    between atoms: C_33  and  O_37
REMARK                            x       y       z     vdW  Elec       q    Type
REMARK                         _______ _______ _______ _____ _____    ______ ____
ROOT
ATOM      1  O   UNL     1      34.194 -13.340 -23.661  0.00  0.00    -0.270 OA
ATOM      2  N   UNL     1      34.419 -13.235 -21.328  0.00  0.00    -0.265 N 
ATOM      3  N   UNL     1      35.458 -16.215 -19.882  0.00  0.00    -0.239 N 
ATOM      4  N   UNL     1      35.094 -14.929 -19.740  0.00  0.00    -0.166 NA
ATOM      5  C   UNL     1      34.125 -12.709 -22.594  0.00  0.00    +0.251 C 
ATOM      6  C   UNL     1      35.447 -16.651 -21.175  0.00  0.00    +0.046 C 
ATOM      7  C   UNL     1      34.843 -14.544 -20.993  0.00  0.00    +0.153 C 
ATOM      8  C   UNL     1      35.046 -15.576 -21.930  0.00  0.00    +0.048 C 
ATOM      9  H   UNL     1      34.317 -12.613 -20.572  0.00  0.00    +0.157 HD
ATOM     10  H   UNL     1      35.712 -16.789 -19.123  0.00  0.00    +0.174 HD
ENDROOT
BRANCH   5  16
ATOM     11  C   UNL     1      32.830  -8.668 -22.667  0.00  0.00    +0.048 C 
ATOM     12  C   UNL     1      32.292  -9.556 -21.735  0.00  0.00    +0.015 C 
ATOM     13  C   UNL     1      33.793  -9.108 -23.575  0.00  0.00    +0.015 C 
ATOM     14  C   UNL     1      32.718 -10.884 -21.711  0.00  0.00    +0.006 C 
ATOM     15  C   UNL     1      34.219 -10.436 -23.550  0.00  0.00    +0.006 C 
ATOM     16  C   UNL     1      33.683 -11.324 -22.619  0.00  0.00    +0.054 C 
BRANCH  11  17
ATOM     17  N   UNL     1      32.403  -7.336 -22.692  0.00  0.00    -0.312 N 
ATOM     18  N   UNL     1      31.760  -4.560 -22.727  0.00  0.00    +0.389 N 
ATOM     19  C   UNL     1      31.240  -5.422 -21.661  0.00  0.00    -0.042 C 
ATOM     20  C   UNL     1      31.870  -5.304 -23.986  0.00  0.00    -0.042 C 
ATOM     21  C   UNL     1      32.168  -6.624 -21.431  0.00  0.00    +0.069 C 
ATOM     22  C   UNL     1      32.819  -6.501 -23.827  0.00  0.00    +0.069 C 
ATOM     23  C   UNL     1      32.369  -4.363 -25.081  0.00  0.00    -0.022 C 
ATOM     24  C   UNL     1      31.098  -4.602 -20.379  0.00  0.00    -0.022 C 
ATOM     25  H   UNL     1      32.682  -4.215 -22.460  0.00  0.00    -0.084 HD
ATOM     26  H   UNL     1      31.117  -3.779 -22.862  0.00  0.00    -0.084 HD
ENDBRANCH  11  17
ENDBRANCH   5  16
BRANCH   6  27
ATOM     27  C   UNL     1      35.814 -18.028 -21.541  0.00  0.00    +0.047 C 
BRANCH  27  28
ATOM     28  C   UNL     1      34.657 -19.054 -21.449  0.00  0.00    +0.033 C 
BRANCH  28  29
ATOM     29  C   UNL     1      34.703 -19.882 -20.187  0.00  0.00    -0.016 C 
ATOM     30  C   UNL     1      35.926 -20.148 -19.570  0.00  0.00    +0.033 C 
ATOM     31  C   UNL     1      33.523 -20.379 -19.636  0.00  0.00    +0.033 C 
ATOM     32  C   UNL     1      33.564 -21.143 -18.470  0.00  0.00    +0.141 C 
ATOM     33  C   UNL     1      35.968 -20.911 -18.404  0.00  0.00    +0.141 C 
ATOM     34  C   UNL     1      34.787 -21.409 -17.854  0.00  0.00    +0.074 C 
BRANCH  32  35
ATOM     35  O   UNL     1      32.411 -21.628 -17.931  0.00  0.00    -0.471 OA
ATOM     36  C   UNL     1      32.521 -22.336 -16.697  0.00  0.00    +0.252 C 
ENDBRANCH  32  35
BRANCH  33  37
ATOM     37  O   UNL     1      37.161 -21.170 -17.802  0.00  0.00    -0.471 OA
ATOM     38  C   UNL     1      37.160 -21.277 -16.379  0.00  0.00    +0.252 C 
ENDBRANCH  33  37
ENDBRANCH  28  29
ENDBRANCH  27  28
ENDBRANCH   6  27
TORSDOF 7
ENDMDL
MODEL 3
REMARK VINA RESULT:     -12.4      4.626     13.445
REMARK  Name = 51039095
REMARK  7 active torsions:
REMARK  status: ('A' for Active; 'I' for Inactive)
REMARK    1  A    between atoms: C_5  and  C_16
REMARK    2  A    between atoms: C_6  and  C_27
REMARK    3  A    between atoms: C_11  and  N_17
REMARK    4  A    between atoms: C_27  and  C_28
REMARK    5  A    between atoms: C_28  and  C_29
REMARK    6  A    between atoms: C_32  and  O_35
REMARK    7  A    between atoms: C_33  and  O_37
REMARK                            x       y       z     vdW  Elec       q    Type
REMARK                         _______ _______ _______ _____ _____    ______ ____
ROOT
ATOM      1  O   UNL     1      34.034 -20.766 -19.376  0.00  0.00    -0.270 OA
ATOM      2  N   UNL     1      36.078 -19.634 -19.594  0.00  0.00    -0.265 N 
ATOM      3  N   UNL     1      36.278 -17.627 -22.420  0.00  0.00    -0.239 N 
ATOM      4  N   UNL     1      36.851 -18.107 -21.302  0.00  0.00    -0.166 NA
ATOM      5  C   UNL     1      35.173 -20.497 -18.961  0.00  0.00    +0.251 C 
ATOM      6  C   UNL     1      35.013 -18.091 -22.633  0.00  0.00    +0.046 C 
ATOM      7  C   UNL     1      35.908 -18.904 -20.795  0.00  0.00    +0.153 C 
ATOM      8  C   UNL     1      34.741 -18.933 -21.582  0.00  0.00    +0.048 C 
ATOM      9  H   UNL     1      36.947 -19.520 -19.145  0.00  0.00    +0.157 HD
ATOM     10  H   UNL     1      36.730 -16.998 -23.027  0.00  0.00    +0.174 HD
ENDROOT
BRANCH   5  16
ATOM     11  C   UNL     1      36.563 -22.348 -15.403  0.00  0.00    +0.048 C 
ATOM     12  C   UNL     1      37.412 -21.517 -16.134  0.00  0.00    +0.015 C 
ATOM     13  C   UNL     1      35.257 -22.571 -15.840  0.00  0.00    +0.015 C 
ATOM     14  C   UNL     1      36.955 -20.909 -17.303  0.00  0.00    +0.006 C 
ATOM     15  C   UNL     1      34.801 -21.962 -17.009  0.00  0.00    +0.006 C 
ATOM     16  C   UNL     1      35.649 -21.131 -17.741  0.00  0.00    +0.054 C 
BRANCH  11  17
ATOM     17  N   UNL     1      37.020 -22.959 -14.230  0.00  0.00    -0.312 N 
ATOM     18  N   UNL     1      37.858 -24.402 -11.919  0.00  0.00    +0.389 N 
ATOM     19  C   UNL     1      36.944 -23.263 -11.784  0.00  0.00    -0.042 C 
ATOM     20  C   UNL     1      38.792 -24.185 -13.029  0.00  0.00    -0.042 C 
ATOM     21  C   UNL     1      36.128 -23.063 -13.070  0.00  0.00    +0.069 C 
ATOM     22  C   UNL     1      38.032 -24.017 -14.353  0.00  0.00    +0.069 C 
ATOM     23  C   UNL     1      39.755 -25.368 -13.109  0.00  0.00    -0.022 C 
ATOM     24  C   UNL     1      36.017 -23.505 -10.593  0.00  0.00    -0.022 C 
ATOM     25  H   UNL     1      37.316 -25.247 -12.098  0.00  0.00    -0.084 HD
ATOM     26  H   UNL     1      38.391 -24.500 -11.055  0.00  0.00    -0.084 HD
ENDBRANCH  11  17
ENDBRANCH   5  16
BRANCH   6  27
ATOM     27  C   UNL     1      34.215 -17.685 -23.801  0.00  0.00    +0.047 C 
BRANCH  27  28
ATOM     28  C   UNL     1      34.872 -16.599 -24.689  0.00  0.00    +0.033 C 
BRANCH  28  29
ATOM     29  C   UNL     1      34.528 -15.195 -24.253  0.00  0.00    -0.016 C 
ATOM     30  C   UNL     1      34.643 -14.832 -22.911  0.00  0.00    +0.033 C 
ATOM     31  C   UNL     1      34.096 -14.260 -25.193  0.00  0.00    +0.033 C 
ATOM     32  C   UNL     1      33.778 -12.962 -24.793  0.00  0.00    +0.141 C 
ATOM     33  C   UNL     1      34.327 -13.535 -22.510  0.00  0.00    +0.141 C 
ATOM     34  C   UNL     1      33.893 -12.600 -23.450  0.00  0.00    +0.074 C 
BRANCH  32  35
ATOM     35  O   UNL     1      33.357 -12.049 -25.710  0.00  0.00    -0.471 OA
ATOM     36  C   UNL     1      33.989 -10.771 -25.689  0.00  0.00    +0.252 C 
ENDBRANCH  32  35
BRANCH  33  37
ATOM     37  O   UNL     1      34.440 -13.180 -21.201  0.00  0.00    -0.471 OA
ATOM     38  C   UNL     1      34.752 -14.217 -20.272  0.00  0.00    +0.252 C 
ENDBRANCH  33  37
ENDBRANCH  28  29
ENDBRANCH  27  28
ENDBRANCH   6  27
TORSDOF 7
ENDMDL
MODEL 4
REMARK VINA RESULT:     -12.4      4.580     13.429
REMARK  Name = 51039095
REMARK  7 active torsions:
REMARK  status: ('A' for Active; 'I' for Inactive)
REMARK    1  A    between atoms: C_5  and  C_16
REMARK    2  A    between atoms: C_6  and  C_27
REMARK    3  A    between atoms: C_11  and  N_17
REMARK    4  A    between atoms: C_27  and  C_28
REMARK    5  A    between atoms: C_28  and  C_29
REMARK    6  A    between atoms: C_32  and  O_35
REMARK    7  A    between atoms: C_33  and  O_37
REMARK                            x       y       z     vdW  Elec       q    Type
REMARK                         _______ _______ _______ _____ _____    ______ ____
ROOT
ATOM      1  O   UNL     1      34.050 -20.809 -19.390  0.00  0.00    -0.270 OA
ATOM      2  N   UNL     1      36.062 -19.615 -19.571  0.00  0.00    -0.265 N 
ATOM      3  N   UNL     1      36.238 -17.577 -22.377  0.00  0.00    -0.239 N 
ATOM      4  N   UNL     1      36.811 -18.050 -21.256  0.00  0.00    -0.166 NA
ATOM      5  C   UNL     1      35.175 -20.510 -18.958  0.00  0.00    +0.251 C 
ATOM      6  C   UNL     1      34.990 -18.077 -22.611  0.00  0.00    +0.046 C 
ATOM      7  C   UNL     1      35.885 -18.879 -20.769  0.00  0.00    +0.153 C 
ATOM      8  C   UNL     1      34.729 -18.936 -21.571  0.00  0.00    +0.048 C 
ATOM      9  H   UNL     1      36.920 -19.479 -19.109  0.00  0.00    +0.157 HD
ATOM     10  H   UNL     1      36.678 -16.930 -22.973  0.00  0.00    +0.174 HD
ENDROOT
BRANCH   5  16
ATOM     11  C   UNL     1      36.572 -22.352 -15.398  0.00  0.00    +0.048 C 
ATOM     12  C   UNL     1      37.418 -21.519 -16.132  0.00  0.00    +0.015 C 
ATOM     13  C   UNL     1      35.267 -22.578 -15.833  0.00  0.00    +0.015 C 
ATOM     14  C   UNL     1      36.959 -20.914 -17.301  0.00  0.00    +0.006 C 
ATOM     15  C   UNL     1      34.808 -21.973 -17.003  0.00  0.00    +0.006 C 
ATOM     16  C   UNL     1      35.653 -21.141 -17.737  0.00  0.00    +0.054 C 
BRANCH  11  17
ATOM     17  N   UNL     1      37.032 -22.959 -14.224  0.00  0.00    -0.312 N 
ATOM     18  N   UNL     1      37.878 -24.396 -11.913  0.00  0.00    +0.389 N 
ATOM     19  C   UNL     1      36.954 -23.264 -11.779  0.00  0.00    -0.042 C 
ATOM     20  C   UNL     1      38.811 -24.172 -13.021  0.00  0.00    -0.042 C 
ATOM     21  C   UNL     1      36.139 -23.070 -13.066  0.00  0.00    +0.069 C 
ATOM     22  C   UNL     1      38.052 -24.009 -14.346  0.00  0.00    +0.069 C 
ATOM     23  C   UNL     1      39.784 -25.348 -13.100  0.00  0.00    -0.022 C 
ATOM     24  C   UNL     1      36.027 -23.513 -10.589  0.00  0.00    -0.022 C 
ATOM     25  H   UNL     1      37.342 -25.246 -12.093  0.00  0.00    -0.084 HD
ATOM     26  H   UNL     1      38.409 -24.490 -11.048  0.00  0.00    -0.084 HD
ENDBRANCH  11  17
ENDBRANCH   5  16
BRANCH   6  27
ATOM     27  C   UNL     1      34.196 -17.684 -23.785  0.00  0.00    +0.047 C 
BRANCH  27  28
ATOM     28  C   UNL     1      34.857 -16.611 -24.686  0.00  0.00    +0.033 C 
BRANCH  28  29
ATOM     29  C   UNL     1      34.524 -15.200 -24.263  0.00  0.00    -0.016 C 
ATOM     30  C   UNL     1      34.129 -14.260 -25.215  0.00  0.00    +0.033 C 
ATOM     31  C   UNL     1      34.608 -14.838 -22.919  0.00  0.00    +0.033 C 
ATOM     32  C   UNL     1      34.299 -13.536 -22.526  0.00  0.00    +0.141 C 
ATOM     33  C   UNL     1      33.820 -12.959 -24.823  0.00  0.00    +0.141 C 
ATOM     34  C   UNL     1      33.905 -12.595 -23.479  0.00  0.00    +0.074 C 
BRANCH  32  35
ATOM     35  O   UNL     1      34.381 -13.182 -21.214  0.00  0.00    -0.471 OA
ATOM     36  C   UNL     1      34.767 -14.199 -20.291  0.00  0.00    +0.252 C 
ENDBRANCH  32  35
BRANCH  33  37
ATOM     37  O   UNL     1      33.434 -12.041 -25.751  0.00  0.00    -0.471 OA
ATOM     38  C   UNL     1      33.936 -10.714 -25.600  0.00  0.00    +0.252 C 
ENDBRANCH  33  37
ENDBRANCH  28  29
ENDBRANCH  27  28
ENDBRANCH   6  27
TORSDOF 7
ENDMDL
MODEL 5
REMARK VINA RESULT:     -11.8      1.153      2.363
REMARK  Name = 51039095
REMARK  7 active torsions:
REMARK  status: ('A' for Active; 'I' for Inactive)
REMARK    1  A    between atoms: C_5  and  C_16
REMARK    2  A    between atoms: C_6  and  C_27
REMARK    3  A    between atoms: C_11  and  N_17
REMARK    4  A    between atoms: C_27  and  C_28
REMARK    5  A    between atoms: C_28  and  C_29
REMARK    6  A    between atoms: C_32  and  O_35
REMARK    7  A    between atoms: C_33  and  O_37
REMARK                            x       y       z     vdW  Elec       q    Type
REMARK                         _______ _______ _______ _____ _____    ______ ____
ROOT
ATOM      1  O   UNL     1      33.530 -13.367 -20.401  0.00  0.00    -0.270 OA
ATOM      2  N   UNL     1      34.317 -13.513 -22.606  0.00  0.00    -0.265 N 
ATOM      3  N   UNL     1      35.703 -16.595 -23.402  0.00  0.00    -0.239 N 
ATOM      4  N   UNL     1      35.374 -15.347 -23.776  0.00  0.00    -0.166 NA
ATOM      5  C   UNL     1      33.718 -12.862 -21.519  0.00  0.00    +0.251 C 
ATOM      6  C   UNL     1      35.378 -16.886 -22.109  0.00  0.00    +0.046 C 
ATOM      7  C   UNL     1      34.821 -14.835 -22.674  0.00  0.00    +0.153 C 
ATOM      8  C   UNL     1      34.796 -15.749 -21.603  0.00  0.00    +0.048 C 
ATOM      9  H   UNL     1      34.399 -12.981 -23.431  0.00  0.00    +0.157 HD
ATOM     10  H   UNL     1      36.138 -17.240 -24.005  0.00  0.00    +0.174 HD
ENDROOT
BRANCH   5  16
ATOM     11  C   UNL     1      32.570  -8.829 -22.180  0.00  0.00    +0.048 C 
ATOM     12  C   UNL     1      33.515  -9.431 -23.012  0.00  0.00    +0.015 C 
ATOM     13  C   UNL     1      32.001  -9.553 -21.132  0.00  0.00    +0.015 C 
ATOM     14  C   UNL     1      33.892 -10.756 -22.794  0.00  0.00    +0.006 C 
ATOM     15  C   UNL     1      32.379 -10.878 -20.915  0.00  0.00    +0.006 C 
ATOM     16  C   UNL     1      33.323 -11.480 -21.746  0.00  0.00    +0.054 C 
BRANCH  11  17
ATOM     17  N   UNL     1      32.191  -7.500 -22.397  0.00  0.00    -0.312 N 
ATOM     18  N   UNL     1      31.644  -4.736 -22.826  0.00  0.00    +0.389 N 
ATOM     19  C   UNL     1      31.071  -5.428 -21.666  0.00  0.00    -0.042 C 
ATOM     20  C   UNL     1      31.757  -5.649 -23.968  0.00  0.00    -0.042 C 
ATOM     21  C   UNL     1      31.952  -6.616 -21.251  0.00  0.00    +0.069 C 
ATOM     22  C   UNL     1      32.660  -6.841 -23.623  0.00  0.00    +0.069 C 
ATOM     23  C   UNL     1      32.313  -4.882 -25.167  0.00  0.00    -0.022 C 
ATOM     24  C   UNL     1      30.929  -4.437 -20.512  0.00  0.00    -0.022 C 
ATOM     25  H   UNL     1      32.572  -4.387 -22.583  0.00  0.00    -0.084 HD
ATOM     26  H   UNL     1      31.032  -3.962 -23.082  0.00  0.00    -0.084 HD
ENDBRANCH  11  17
ENDBRANCH   5  16
BRANCH   6  27
ATOM     27  C   UNL     1      35.655 -18.200 -21.508  0.00  0.00    +0.047 C 
BRANCH  27  28
ATOM     28  C   UNL     1      34.400 -19.069 -21.242  0.00  0.00    +0.033 C 
BRANCH  28  29
ATOM     29  C   UNL     1      34.533 -19.934 -20.011  0.00  0.00    -0.016 C 
ATOM     30  C   UNL     1      35.789 -20.160 -19.449  0.00  0.00    +0.033 C 
ATOM     31  C   UNL     1      33.398 -20.505 -19.436  0.00  0.00    +0.033 C 
ATOM     32  C   UNL     1      33.519 -21.304 -18.298  0.00  0.00    +0.141 C 
ATOM     33  C   UNL     1      35.910 -20.958 -18.311  0.00  0.00    +0.141 C 
ATOM     34  C   UNL     1      34.776 -21.530 -17.736  0.00  0.00    +0.074 C 
BRANCH  32  35
ATOM     35  O   UNL     1      32.412 -21.861 -17.736  0.00  0.00    -0.471 OA
ATOM     36  C   UNL     1      32.563 -22.429 -16.436  0.00  0.00    +0.252 C 
ENDBRANCH  32  35
BRANCH  33  37
ATOM     37  O   UNL     1      37.136 -21.178 -17.762  0.00  0.00    -0.471 OA
ATOM     38  C   UNL     1      37.196 -21.315 -16.342  0.00  0.00    +0.252 C 
ENDBRANCH  33  37
ENDBRANCH  28  29
ENDBRANCH  27  28
ENDBRANCH   6  27
TORSDOF 7
ENDMDL
MODEL 6
REMARK VINA RESULT:     -11.8      1.163      1.253
REMARK  Name = 51039095
REMARK  7 active torsions:
REMARK  status: ('A' for Active; 'I' for Inactive)
REMARK    1  A    between atoms: C_5  and  C_16
REMARK    2  A    between atoms: C_6  and  C_27
REMARK    3  A    between atoms: C_11  and  N_17
REMARK    4  A    between atoms: C_27  and  C_28
REMARK    5  A    between atoms: C_28  and  C_29
REMARK    6  A    between atoms: C_32  and  O_35
REMARK    7  A    between atoms: C_33  and  O_37
REMARK                            x       y       z     vdW  Elec       q    Type
REMARK                         _______ _______ _______ _____ _____    ______ ____
ROOT
ATOM      1  O   UNL     1      33.444 -13.435 -20.426  0.00  0.00    -0.270 OA
ATOM      2  N   UNL     1      34.309 -13.544 -22.604  0.00  0.00    -0.265 N 
ATOM      3  N   UNL     1      35.718 -16.615 -23.404  0.00  0.00    -0.239 N 
ATOM      4  N   UNL     1      35.404 -15.360 -23.768  0.00  0.00    -0.166 NA
ATOM      5  C   UNL     1      33.673 -12.911 -21.527  0.00  0.00    +0.251 C 
ATOM      6  C   UNL     1      35.345 -16.928 -22.129  0.00  0.00    +0.046 C 
ATOM      7  C   UNL     1      34.813 -14.866 -22.677  0.00  0.00    +0.153 C 
ATOM      8  C   UNL     1      34.748 -15.799 -21.625  0.00  0.00    +0.048 C 
ATOM      9  H   UNL     1      34.422 -12.998 -23.415  0.00  0.00    +0.157 HD
ATOM     10  H   UNL     1      36.172 -17.250 -24.003  0.00  0.00    +0.174 HD
ENDROOT
BRANCH   5  16
ATOM     11  C   UNL     1      32.549  -8.867 -22.160  0.00  0.00    +0.048 C 
ATOM     12  C   UNL     1      31.974  -9.596 -21.118  0.00  0.00    +0.015 C 
ATOM     13  C   UNL     1      33.494  -9.466 -22.993  0.00  0.00    +0.015 C 
ATOM     14  C   UNL     1      32.344 -10.925 -20.911  0.00  0.00    +0.006 C 
ATOM     15  C   UNL     1      33.863 -10.795 -22.784  0.00  0.00    +0.006 C 
ATOM     16  C   UNL     1      33.289 -11.524 -21.744  0.00  0.00    +0.054 C 
BRANCH  11  17
ATOM     17  N   UNL     1      32.179  -7.534 -22.369  0.00  0.00    -0.312 N 
ATOM     18  N   UNL     1      31.652  -4.763 -22.781  0.00  0.00    +0.389 N 
ATOM     19  C   UNL     1      31.067  -5.461 -21.631  0.00  0.00    -0.042 C 
ATOM     20  C   UNL     1      31.767  -5.668 -23.929  0.00  0.00    -0.042 C 
ATOM     21  C   UNL     1      31.937  -6.657 -21.218  0.00  0.00    +0.069 C 
ATOM     22  C   UNL     1      32.661  -6.868 -23.587  0.00  0.00    +0.069 C 
ATOM     23  C   UNL     1      32.336  -4.895 -25.118  0.00  0.00    -0.022 C 
ATOM     24  C   UNL     1      30.922  -4.478 -20.470  0.00  0.00    -0.022 C 
ATOM     25  H   UNL     1      32.580  -4.422 -22.528  0.00  0.00    -0.084 HD
ATOM     26  H   UNL     1      31.046  -3.984 -23.035  0.00  0.00    -0.084 HD
ENDBRANCH  11  17
ENDBRANCH   5  16
BRANCH   6  27
ATOM     27  C   UNL     1      35.598 -18.253 -21.541  0.00  0.00    +0.047 C 
BRANCH  27  28
ATOM     28  C   UNL     1      34.324 -19.072 -21.216  0.00  0.00    +0.033 C 
BRANCH  28  29
ATOM     29  C   UNL     1      34.479 -19.938 -19.989  0.00  0.00    -0.016 C 
ATOM     30  C   UNL     1      33.357 -20.525 -19.402  0.00  0.00    +0.033 C 
ATOM     31  C   UNL     1      35.744 -20.154 -19.443  0.00  0.00    +0.033 C 
ATOM     32  C   UNL     1      35.889 -20.954 -18.310  0.00  0.00    +0.141 C 
ATOM     33  C   UNL     1      33.501 -21.326 -18.270  0.00  0.00    +0.141 C 
ATOM     34  C   UNL     1      34.767 -21.541 -17.723  0.00  0.00    +0.074 C 
BRANCH  32  35
ATOM     35  O   UNL     1      37.123 -21.165 -17.777  0.00  0.00    -0.471 OA
ATOM     36  C   UNL     1      37.204 -21.284 -16.358  0.00  0.00    +0.252 C 
ENDBRANCH  32  35
BRANCH  33  37
ATOM     37  O   UNL     1      32.408 -21.900 -17.697  0.00  0.00    -0.471 OA
ATOM     38  C   UNL     1      32.575 -22.459 -16.395  0.00  0.00    +0.252 C 
ENDBRANCH  33  37
ENDBRANCH  28  29
ENDBRANCH  27  28
ENDBRANCH   6  27
TORSDOF 7
ENDMDL
MODEL 7
REMARK VINA RESULT:     -11.5      1.463      2.858
REMARK  Name = 51039095
REMARK  7 active torsions:
REMARK  status: ('A' for Active; 'I' for Inactive)
REMARK    1  A    between atoms: C_5  and  C_16
REMARK    2  A    between atoms: C_6  and  C_27
REMARK    3  A    between atoms: C_11  and  N_17
REMARK    4  A    between atoms: C_27  and  C_28
REMARK    5  A    between atoms: C_28  and  C_29
REMARK    6  A    between atoms: C_32  and  O_35
REMARK    7  A    between atoms: C_33  and  O_37
REMARK                            x       y       z     vdW  Elec       q    Type
REMARK                         _______ _______ _______ _____ _____    ______ ____
ROOT
ATOM      1  O   UNL     1      34.515 -13.058 -21.203  0.00  0.00    -0.270 OA
ATOM      2  N   UNL     1      33.947 -13.398 -23.454  0.00  0.00    -0.265 N 
ATOM      3  N   UNL     1      34.528 -16.632 -24.575  0.00  0.00    -0.239 N 
ATOM      4  N   UNL     1      34.102 -15.383 -24.828  0.00  0.00    -0.166 NA
ATOM      5  C   UNL     1      34.077 -12.635 -22.285  0.00  0.00    +0.251 C 
ATOM      6  C   UNL     1      34.957 -16.820 -23.293  0.00  0.00    +0.046 C 
ATOM      7  C   UNL     1      34.271 -14.762 -23.658  0.00  0.00    +0.153 C 
ATOM      8  C   UNL     1      34.801 -15.608 -22.665  0.00  0.00    +0.048 C 
ATOM      9  H   UNL     1      33.584 -12.924 -24.236  0.00  0.00    +0.157 HD
ATOM     10  H   UNL     1      34.529 -17.347 -25.252  0.00  0.00    +0.174 HD
ENDROOT
BRANCH   5  16
ATOM     11  C   UNL     1      32.925  -8.563 -22.598  0.00  0.00    +0.048 C 
ATOM     12  C   UNL     1      32.300  -9.395 -21.669  0.00  0.00    +0.015 C 
ATOM     13  C   UNL     1      33.929  -9.068 -23.424  0.00  0.00    +0.015 C 
ATOM     14  C   UNL     1      32.679 -10.733 -21.566  0.00  0.00    +0.006 C 
ATOM     15  C   UNL     1      34.308 -10.407 -23.320  0.00  0.00    +0.006 C 
ATOM     16  C   UNL     1      33.683 -11.239 -22.392  0.00  0.00    +0.054 C 
BRANCH  11  17
ATOM     17  N   UNL     1      32.546  -7.220 -22.702  0.00  0.00    -0.312 N 
ATOM     18  N   UNL     1      31.554  -4.557 -22.927  0.00  0.00    +0.389 N 
ATOM     19  C   UNL     1      32.477  -5.086 -23.936  0.00  0.00    -0.042 C 
ATOM     20  C   UNL     1      31.854  -5.121 -21.606  0.00  0.00    -0.042 C 
ATOM     21  C   UNL     1      32.368  -6.615 -24.027  0.00  0.00    +0.069 C 
ATOM     22  C   UNL     1      31.723  -6.650 -21.627  0.00  0.00    +0.069 C 
ATOM     23  C   UNL     1      30.903  -4.513 -20.576  0.00  0.00    -0.022 C 
ATOM     24  C   UNL     1      32.162  -4.444 -25.287  0.00  0.00    -0.022 C 
ATOM     25  H   UNL     1      30.598  -4.803 -23.186  0.00  0.00    -0.084 HD
ATOM     26  H   UNL     1      31.658  -3.544 -22.884  0.00  0.00    -0.084 HD
ENDBRANCH  11  17
ENDBRANCH   5  16
BRANCH   6  27
ATOM     27  C   UNL     1      35.462 -18.117 -22.817  0.00  0.00    +0.047 C 
BRANCH  27  28
ATOM     28  C   UNL     1      36.300 -18.049 -21.516  0.00  0.00    +0.033 C 
BRANCH  28  29
ATOM     29  C   UNL     1      35.861 -19.055 -20.479  0.00  0.00    -0.016 C 
ATOM     30  C   UNL     1      36.809 -19.687 -19.674  0.00  0.00    +0.033 C 
ATOM     31  C   UNL     1      34.507 -19.351 -20.326  0.00  0.00    +0.033 C 
ATOM     32  C   UNL     1      34.099 -20.279 -19.368  0.00  0.00    +0.141 C 
ATOM     33  C   UNL     1      36.402 -20.614 -18.716  0.00  0.00    +0.141 C 
ATOM     34  C   UNL     1      35.048 -20.912 -18.563  0.00  0.00    +0.074 C 
BRANCH  32  35
ATOM     35  O   UNL     1      32.778 -20.569 -19.218  0.00  0.00    -0.471 OA
ATOM     36  C   UNL     1      32.401 -21.279 -18.039  0.00  0.00    +0.252 C 
ENDBRANCH  32  35
BRANCH  33  37
ATOM     37  O   UNL     1      37.326 -21.231 -17.929  0.00  0.00    -0.471 OA
ATOM     38  C   UNL     1      37.174 -21.089 -16.517  0.00  0.00    +0.252 C 
ENDBRANCH  33  37
ENDBRANCH  28  29
ENDBRANCH  27  28
ENDBRANCH   6  27
TORSDOF 7
ENDMDL
MODEL 8
REMARK VINA RESULT:     -11.0      3.774     12.951
REMARK  Name = 51039095
REMARK  7 active torsions:
REMARK  status: ('A' for Active; 'I' for Inactive)
REMARK    1  A    between atoms: C_5  and  C_16
REMARK    2  A    between atoms: C_6  and  C_27
REMARK    3  A    between atoms: C_11  and  N_17
REMARK    4  A    between atoms: C_27  and  C_28
REMARK    5  A    between atoms: C_28  and  C_29
REMARK    6  A    between atoms: C_32  and  O_35
REMARK    7  A    between atoms: C_33  and  O_37
REMARK                            x       y       z     vdW  Elec       q    Type
REMARK                         _______ _______ _______ _____ _____    ______ ____
ROOT
ATOM      1  O   UNL     1      34.995 -19.943 -21.526  0.00  0.00    -0.270 OA
ATOM      2  N   UNL     1      35.435 -17.993 -20.297  0.00  0.00    -0.265 N 
ATOM      3  N   UNL     1      35.404 -15.093 -22.205  0.00  0.00    -0.239 N 
ATOM      4  N   UNL     1      35.558 -15.684 -21.008  0.00  0.00    -0.166 NA
ATOM      5  C   UNL     1      35.254 -19.374 -20.453  0.00  0.00    +0.251 C 
ATOM      6  C   UNL     1      35.122 -15.963 -23.218  0.00  0.00    +0.046 C 
ATOM      7  C   UNL     1      35.366 -16.977 -21.282  0.00  0.00    +0.153 C 
ATOM      8  C   UNL     1      35.091 -17.210 -22.643  0.00  0.00    +0.048 C 
ATOM      9  H   UNL     1      35.637 -17.688 -19.383  0.00  0.00    +0.157 HD
ATOM     10  H   UNL     1      35.486 -14.121 -22.338  0.00  0.00    +0.174 HD
ENDROOT
BRANCH   5  16
ATOM     11  C   UNL     1      35.723 -21.709 -16.940  0.00  0.00    +0.048 C 
ATOM     12  C   UNL     1      34.494 -21.680 -17.599  0.00  0.00    +0.015 C 
ATOM     13  C   UNL     1      36.799 -20.971 -17.435  0.00  0.00    +0.015 C 
ATOM     14  C   UNL     1      34.341 -20.913 -18.754  0.00  0.00    +0.006 C 
ATOM     15  C   UNL     1      36.644 -20.204 -18.590  0.00  0.00    +0.006 C 
ATOM     16  C   UNL     1      35.416 -20.175 -19.250  0.00  0.00    +0.054 C 
BRANCH  11  17
ATOM     17  N   UNL     1      35.880 -22.478 -15.781  0.00  0.00    -0.312 N 
ATOM     18  N   UNL     1      36.188 -23.847 -13.300  0.00  0.00    +0.389 N 
ATOM     19  C   UNL     1      37.233 -23.938 -14.326  0.00  0.00    -0.042 C 
ATOM     20  C   UNL     1      34.863 -23.739 -13.920  0.00  0.00    -0.042 C 
ATOM     21  C   UNL     1      37.221 -22.696 -15.228  0.00  0.00    +0.069 C 
ATOM     22  C   UNL     1      34.780 -22.489 -14.808  0.00  0.00    +0.069 C 
ATOM     23  C   UNL     1      33.801 -23.692 -12.824  0.00  0.00    -0.022 C 
ATOM     24  C   UNL     1      38.591 -24.093 -13.644  0.00  0.00    -0.022 C 
ATOM     25  H   UNL     1      36.356 -23.021 -12.724  0.00  0.00    -0.084 HD
ATOM     26  H   UNL     1      36.216 -24.689 -12.727  0.00  0.00    -0.084 HD
ENDBRANCH  11  17
ENDBRANCH   5  16
BRANCH   6  27
ATOM     27  C   UNL     1      34.917 -15.513 -24.604  0.00  0.00    +0.047 C 
BRANCH  27  28
ATOM     28  C   UNL     1      33.601 -14.732 -24.844  0.00  0.00    +0.033 C 
BRANCH  28  29
ATOM     29  C   UNL     1      33.635 -13.333 -24.276  0.00  0.00    -0.016 C 
ATOM     30  C   UNL     1      34.163 -12.285 -25.030  0.00  0.00    +0.033 C 
ATOM     31  C   UNL     1      33.136 -13.089 -22.997  0.00  0.00    +0.033 C 
ATOM     32  C   UNL     1      33.166 -11.797 -22.470  0.00  0.00    +0.141 C 
ATOM     33  C   UNL     1      34.192 -10.994 -24.505  0.00  0.00    +0.141 C 
ATOM     34  C   UNL     1      33.695 -10.749 -23.225  0.00  0.00    +0.074 C 
BRANCH  32  35
ATOM     35  O   UNL     1      32.679 -11.558 -21.222  0.00  0.00    -0.471 OA
ATOM     36  C   UNL     1      32.790 -12.614 -20.270  0.00  0.00    +0.252 C 
ENDBRANCH  32  35
BRANCH  33  37
ATOM     37  O   UNL     1      34.707  -9.971 -25.241  0.00  0.00    -0.471 OA
ATOM     38  C   UNL     1      35.611  -9.087 -24.580  0.00  0.00    +0.252 C 
ENDBRANCH  33  37
ENDBRANCH  28  29
ENDBRANCH  27  28
ENDBRANCH   6  27
TORSDOF 7
ENDMDL
MODEL 9
REMARK VINA RESULT:     -11.0      3.720     12.939
REMARK  Name = 51039095
REMARK  7 active torsions:
REMARK  status: ('A' for Active; 'I' for Inactive)
REMARK    1  A    between atoms: C_5  and  C_16
REMARK    2  A    between atoms: C_6  and  C_27
REMARK    3  A    between atoms: C_11  and  N_17
REMARK    4  A    between atoms: C_27  and  C_28
REMARK    5  A    between atoms: C_28  and  C_29
REMARK    6  A    between atoms: C_32  and  O_35
REMARK    7  A    between atoms: C_33  and  O_37
REMARK                            x       y       z     vdW  Elec       q    Type
REMARK                         _______ _______ _______ _____ _____    ______ ____
ROOT
ATOM      1  O   UNL     1      34.862 -19.989 -21.525  0.00  0.00    -0.270 OA
ATOM      2  N   UNL     1      35.492 -18.047 -20.368  0.00  0.00    -0.265 N 
ATOM      3  N   UNL     1      35.538 -15.190 -22.340  0.00  0.00    -0.239 N 
ATOM      4  N   UNL     1      35.721 -15.766 -21.140  0.00  0.00    -0.166 NA
ATOM      5  C   UNL     1      35.216 -19.417 -20.481  0.00  0.00    +0.251 C 
ATOM      6  C   UNL     1      35.145 -16.060 -23.315  0.00  0.00    +0.046 C 
ATOM      7  C   UNL     1      35.432 -17.049 -21.372  0.00  0.00    +0.153 C 
ATOM      8  C   UNL     1      35.067 -17.291 -22.710  0.00  0.00    +0.048 C 
ATOM      9  H   UNL     1      35.763 -17.738 -19.474  0.00  0.00    +0.157 HD
ATOM     10  H   UNL     1      35.673 -14.228 -22.500  0.00  0.00    +0.174 HD
ENDROOT
BRANCH   5  16
ATOM     11  C   UNL     1      35.731 -21.706 -16.945  0.00  0.00    +0.048 C 
ATOM     12  C   UNL     1      34.491 -21.676 -17.582  0.00  0.00    +0.015 C 
ATOM     13  C   UNL     1      36.803 -20.984 -17.470  0.00  0.00    +0.015 C 
ATOM     14  C   UNL     1      34.322 -20.924 -18.744  0.00  0.00    +0.006 C 
ATOM     15  C   UNL     1      36.633 -20.232 -18.633  0.00  0.00    +0.006 C 
ATOM     16  C   UNL     1      35.393 -20.202 -19.270  0.00  0.00    +0.054 C 
BRANCH  11  17
ATOM     17  N   UNL     1      35.903 -22.460 -15.779  0.00  0.00    -0.312 N 
ATOM     18  N   UNL     1      36.247 -23.796 -13.285  0.00  0.00    +0.389 N 
ATOM     19  C   UNL     1      37.270 -23.913 -14.329  0.00  0.00    -0.042 C 
ATOM     20  C   UNL     1      34.911 -23.683 -13.880  0.00  0.00    -0.042 C 
ATOM     21  C   UNL     1      37.253 -22.683 -15.249  0.00  0.00    +0.069 C 
ATOM     22  C   UNL     1      34.822 -22.445 -14.783  0.00  0.00    +0.069 C 
ATOM     23  C   UNL     1      33.872 -23.610 -12.763  0.00  0.00    -0.022 C 
ATOM     24  C   UNL     1      38.640 -24.072 -13.672  0.00  0.00    -0.022 C 
ATOM     25  H   UNL     1      36.435 -22.964 -12.724  0.00  0.00    -0.084 HD
ATOM     26  H   UNL     1      36.277 -24.631 -12.700  0.00  0.00    -0.084 HD
ENDBRANCH  11  17
ENDBRANCH   5  16
BRANCH   6  27
ATOM     27  C   UNL     1      34.892 -15.626 -24.698  0.00  0.00    +0.047 C 
BRANCH  27  28
ATOM     28  C   UNL     1      33.565 -14.853 -24.902  0.00  0.00    +0.033 C 
BRANCH  28  29
ATOM     29  C   UNL     1      33.625 -13.435 -24.385  0.00  0.00    -0.016 C 
ATOM     30  C   UNL     1      33.211 -13.149 -23.084  0.00  0.00    +0.033 C 
ATOM     31  C   UNL     1      34.095 -12.413 -25.208  0.00  0.00    +0.033 C 
ATOM     32  C   UNL     1      34.152 -11.103 -24.732  0.00  0.00    +0.141 C 
ATOM     33  C   UNL     1      33.267 -11.840 -22.607  0.00  0.00    +0.141 C 
ATOM     34  C   UNL     1      33.737 -10.817 -23.430  0.00  0.00    +0.074 C 
BRANCH  32  35
ATOM     35  O   UNL     1      34.611 -10.105 -25.534  0.00  0.00    -0.471 OA
ATOM     36  C   UNL     1      35.669  -9.296 -25.021  0.00  0.00    +0.252 C 
ENDBRANCH  32  35
BRANCH  33  37
ATOM     37  O   UNL     1      32.864 -11.559 -21.338  0.00  0.00    -0.471 OA
ATOM     38  C   UNL     1      31.639 -10.843 -21.189  0.00  0.00    +0.252 C 
ENDBRANCH  33  37
ENDBRANCH  28  29
ENDBRANCH  27  28
ENDBRANCH   6  27
TORSDOF 7
ENDMDL
