MODEL 1
REMARK VINA RESULT:     -12.0      0.000      0.000
REMARK  Name = 25114442
REMARK  7 active torsions:
REMARK  status: ('A' for Active; 'I' for Inactive)
REMARK    1  A    between atoms: C_3  and  C_15
REMARK    2  A    between atoms: C_3  and  C_18
REMARK    3  A    between atoms: C_6  and  C_8
REMARK    4  A    between atoms: C_15  and  O_16
REMARK    5  A    between atoms: C_18  and  O_19
REMARK    6  A    between atoms: O_19  and  C_20
REMARK    7  A    between atoms: C_28  and  O_30
REMARK                            x       y       z     vdW  Elec       q    Type
REMARK                         _______ _______ _______ _____ _____    ______ ____
ROOT
ATOM      1  O   UNL     1      31.986 -22.723 -12.024  0.00  0.00    -0.270 OA
ATOM      2  N   UNL     1      33.382 -23.500 -13.680  0.00  0.00    -0.275 N 
ATOM      3  C   UNL     1      35.239 -23.513 -14.538  0.00  0.00    +0.166 C 
ATOM      4  C   UNL     1      33.846 -23.989 -14.965  0.00  0.00    +0.110 C 
ATOM      5  C   UNL     1      34.710 -23.404 -13.103  0.00  0.00    +0.110 C 
ATOM      6  C   UNL     1      32.168 -23.119 -13.172  0.00  0.00    +0.249 C 
ENDROOT
BRANCH   6   8
ATOM      7  F   UNL     1      27.776 -23.317 -16.647  0.00  0.00    -0.204 F 
ATOM      8  C   UNL     1      31.012 -23.172 -14.087  0.00  0.00    +0.054 C 
ATOM      9  C   UNL     1      30.074 -24.197 -13.968  0.00  0.00    +0.007 C 
ATOM     10  C   UNL     1      30.857 -22.195 -15.071  0.00  0.00    +0.007 C 
ATOM     11  C   UNL     1      28.981 -24.246 -14.832  0.00  0.00    +0.030 C 
ATOM     12  C   UNL     1      29.763 -22.245 -15.936  0.00  0.00    +0.030 C 
ATOM     13  C   UNL     1      28.825 -23.269 -15.817  0.00  0.00    +0.140 C 
ENDBRANCH   6   8
BRANCH   3  15
ATOM     14  O   UNL     1      36.288 -25.696 -15.065  0.00  0.00    -0.250 OA
ATOM     15  C   UNL     1      36.405 -24.510 -14.769  0.00  0.00    +0.320 C 
BRANCH  15  16
ATOM     16  O   UNL     1      37.624 -23.926 -14.607  0.00  0.00    -0.480 OA
ATOM     17  H   UNL     1      37.748 -23.275 -13.945  0.00  0.00    +0.295 HD
ENDBRANCH  15  16
ENDBRANCH   3  15
BRANCH   3  18
ATOM     18  C   UNL     1      35.573 -22.153 -15.118  0.00  0.00    +0.219 C 
BRANCH  18  19
ATOM     19  O   UNL     1      36.221 -22.340 -16.375  0.00  0.00    -0.475 OA
BRANCH  19  20
ATOM     20  C   UNL     1      35.746 -21.621 -17.429  0.00  0.00    +0.139 C 
ATOM     21  C   UNL     1      36.599 -20.773 -18.135  0.00  0.00    +0.037 C 
ATOM     22  C   UNL     1      34.409 -21.732 -17.802  0.00  0.00    +0.037 C 
ATOM     23  C   UNL     1      36.125 -20.024 -19.225  0.00  0.00    +0.003 C 
ATOM     24  C   UNL     1      34.766 -20.137 -19.604  0.00  0.00    +0.003 C 
ATOM     25  C   UNL     1      33.921 -20.996 -18.882  0.00  0.00    +0.003 C 
ATOM     26  C   UNL     1      36.971 -19.166 -19.947  0.00  0.00    +0.003 C 
ATOM     27  C   UNL     1      34.293 -19.388 -20.693  0.00  0.00    +0.037 C 
ATOM     28  C   UNL     1      35.146 -18.541 -21.399  0.00  0.00    +0.139 C 
ATOM     29  C   UNL     1      36.483 -18.428 -21.027  0.00  0.00    +0.037 C 
BRANCH  28  30
ATOM     30  O   UNL     1      34.671 -17.820 -22.452  0.00  0.00    -0.471 OA
ATOM     31  C   UNL     1      35.402 -16.653 -22.822  0.00  0.00    +0.252 C 
ENDBRANCH  28  30
ENDBRANCH  19  20
ENDBRANCH  18  19
ENDBRANCH   3  18
TORSDOF 7
ENDMDL
MODEL 2
REMARK VINA RESULT:      -9.9      8.807     14.390
REMARK  Name = 25114442
REMARK  7 active torsions:
REMARK  status: ('A' for Active; 'I' for Inactive)
REMARK    1  A    between atoms: C_3  and  C_15
REMARK    2  A    between atoms: C_3  and  C_18
REMARK    3  A    between atoms: C_6  and  C_8
REMARK    4  A    between atoms: C_15  and  O_16
REMARK    5  A    between atoms: C_18  and  O_19
REMARK    6  A    between atoms: O_19  and  C_20
REMARK    7  A    between atoms: C_28  and  O_30
REMARK                            x       y       z     vdW  Elec       q    Type
REMARK                         _______ _______ _______ _____ _____    ______ ____
ROOT
ATOM      1  O   UNL     1      30.761  -6.795 -23.219  0.00  0.00    -0.270 OA
ATOM      2  N   UNL     1      32.833  -7.795 -23.170  0.00  0.00    -0.275 N 
ATOM      3  C   UNL     1      34.025  -9.374 -23.690  0.00  0.00    +0.166 C 
ATOM      4  C   UNL     1      34.151  -8.196 -22.716  0.00  0.00    +0.110 C 
ATOM      5  C   UNL     1      32.850  -8.641 -24.348  0.00  0.00    +0.110 C 
ATOM      6  C   UNL     1      31.831  -7.012 -22.658  0.00  0.00    +0.249 C 
ENDROOT
BRANCH   6   8
ATOM      7  F   UNL     1      32.711  -4.744 -17.609  0.00  0.00    -0.204 F 
ATOM      8  C   UNL     1      32.061  -6.415 -21.328  0.00  0.00    +0.054 C 
ATOM      9  C   UNL     1      32.308  -7.237 -20.228  0.00  0.00    +0.007 C 
ATOM     10  C   UNL     1      32.035  -5.029 -21.172  0.00  0.00    +0.007 C 
ATOM     11  C   UNL     1      32.527  -6.672 -18.972  0.00  0.00    +0.030 C 
ATOM     12  C   UNL     1      32.254  -4.465 -19.915  0.00  0.00    +0.030 C 
ATOM     13  C   UNL     1      32.501  -5.286 -18.815  0.00  0.00    +0.140 C 
ENDBRANCH   6   8
BRANCH   3  15
ATOM     14  O   UNL     1      36.405  -9.279 -24.376  0.00  0.00    -0.250 OA
ATOM     15  C   UNL     1      35.255  -9.652 -24.592  0.00  0.00    +0.320 C 
BRANCH  15  16
ATOM     16  O   UNL     1      34.932 -10.382 -25.696  0.00  0.00    -0.480 OA
ATOM     17  H   UNL     1      34.033 -10.524 -25.918  0.00  0.00    +0.295 HD
ENDBRANCH  15  16
ENDBRANCH   3  15
BRANCH   3  18
ATOM     18  C   UNL     1      33.575 -10.640 -22.989  0.00  0.00    +0.219 C 
BRANCH  18  19
ATOM     19  O   UNL     1      34.289 -11.746 -23.542  0.00  0.00    -0.475 OA
BRANCH  19  20
ATOM     20  C   UNL     1      34.515 -12.809 -22.723  0.00  0.00    +0.139 C 
ATOM     21  C   UNL     1      34.822 -14.055 -23.269  0.00  0.00    +0.037 C 
ATOM     22  C   UNL     1      34.437 -12.653 -21.342  0.00  0.00    +0.037 C 
ATOM     23  C   UNL     1      35.057 -15.163 -22.438  0.00  0.00    +0.003 C 
ATOM     24  C   UNL     1      34.979 -15.005 -21.034  0.00  0.00    +0.003 C 
ATOM     25  C   UNL     1      34.668 -13.743 -20.502  0.00  0.00    +0.003 C 
ATOM     26  C   UNL     1      35.369 -16.425 -22.971  0.00  0.00    +0.003 C 
ATOM     27  C   UNL     1      35.215 -16.113 -20.204  0.00  0.00    +0.037 C 
ATOM     28  C   UNL     1      35.522 -17.359 -20.750  0.00  0.00    +0.139 C 
ATOM     29  C   UNL     1      35.599 -17.516 -22.131  0.00  0.00    +0.037 C 
BRANCH  28  30
ATOM     30  O   UNL     1      35.745 -18.423 -19.931  0.00  0.00    -0.471 OA
ATOM     31  C   UNL     1      34.920 -19.571 -20.121  0.00  0.00    +0.252 C 
ENDBRANCH  28  30
ENDBRANCH  19  20
ENDBRANCH  18  19
ENDBRANCH   3  18
TORSDOF 7
ENDMDL
MODEL 3
REMARK VINA RESULT:      -9.9      5.114      9.504
REMARK  Name = 25114442
REMARK  7 active torsions:
REMARK  status: ('A' for Active; 'I' for Inactive)
REMARK    1  A    between atoms: C_3  and  C_15
REMARK    2  A    between atoms: C_3  and  C_18
REMARK    3  A    between atoms: C_6  and  C_8
REMARK    4  A    between atoms: C_15  and  O_16
REMARK    5  A    between atoms: C_18  and  O_19
REMARK    6  A    between atoms: O_19  and  C_20
REMARK    7  A    between atoms: C_28  and  O_30
REMARK                            x       y       z     vdW  Elec       q    Type
REMARK                         _______ _______ _______ _____ _____    ______ ____
ROOT
ATOM      1  O   UNL     1      37.537 -19.299 -19.942  0.00  0.00    -0.270 OA
ATOM      2  N   UNL     1      35.885 -18.451 -21.302  0.00  0.00    -0.275 N 
ATOM      3  C   UNL     1      35.172 -16.898 -22.427  0.00  0.00    +0.166 C 
ATOM      4  C   UNL     1      34.577 -18.200 -21.877  0.00  0.00    +0.110 C 
ATOM      5  C   UNL     1      36.565 -17.458 -22.114  0.00  0.00    +0.110 C 
ATOM      6  C   UNL     1      36.358 -19.228 -20.276  0.00  0.00    +0.249 C 
ENDROOT
BRANCH   6   8
ATOM      7  F   UNL     1      32.581 -22.192 -17.385  0.00  0.00    -0.204 F 
ATOM      8  C   UNL     1      35.364 -20.009 -19.516  0.00  0.00    +0.054 C 
ATOM      9  C   UNL     1      35.785 -20.928 -18.556  0.00  0.00    +0.007 C 
ATOM     10  C   UNL     1      34.002 -19.827 -19.757  0.00  0.00    +0.007 C 
ATOM     11  C   UNL     1      34.846 -21.665 -17.836  0.00  0.00    +0.030 C 
ATOM     12  C   UNL     1      33.062 -20.565 -19.037  0.00  0.00    +0.030 C 
ATOM     13  C   UNL     1      33.483 -21.483 -18.076  0.00  0.00    +0.140 C 
ENDBRANCH   6   8
BRANCH   3  15
ATOM     14  O   UNL     1      34.063 -17.170 -24.627  0.00  0.00    -0.250 OA
ATOM     15  C   UNL     1      34.875 -16.583 -23.915  0.00  0.00    +0.320 C 
BRANCH  15  16
ATOM     16  O   UNL     1      35.627 -15.550 -24.386  0.00  0.00    -0.480 OA
ATOM     17  H   UNL     1      35.217 -14.743 -24.626  0.00  0.00    +0.295 HD
ENDBRANCH  15  16
ENDBRANCH   3  15
BRANCH   3  18
ATOM     18  C   UNL     1      34.836 -15.709 -21.548  0.00  0.00    +0.219 C 
BRANCH  18  19
ATOM     19  O   UNL     1      35.189 -14.514 -22.244  0.00  0.00    -0.475 OA
BRANCH  19  20
ATOM     20  C   UNL     1      34.391 -13.428 -22.053  0.00  0.00    +0.139 C 
ATOM     21  C   UNL     1      34.511 -12.320 -22.893  0.00  0.00    +0.037 C 
ATOM     22  C   UNL     1      33.459 -13.422 -21.020  0.00  0.00    +0.037 C 
ATOM     23  C   UNL     1      33.696 -11.191 -22.710  0.00  0.00    +0.003 C 
ATOM     24  C   UNL     1      32.747 -11.185 -21.660  0.00  0.00    +0.003 C 
ATOM     25  C   UNL     1      32.641 -12.309 -20.824  0.00  0.00    +0.003 C 
ATOM     26  C   UNL     1      33.802 -10.068 -23.546  0.00  0.00    +0.003 C 
ATOM     27  C   UNL     1      31.933 -10.056 -21.477  0.00  0.00    +0.037 C 
ATOM     28  C   UNL     1      32.051  -8.948 -22.317  0.00  0.00    +0.139 C 
ATOM     29  C   UNL     1      32.985  -8.953 -23.350  0.00  0.00    +0.037 C 
BRANCH  28  30
ATOM     30  O   UNL     1      31.256  -7.861 -22.125  0.00  0.00    -0.471 OA
ATOM     31  C   UNL     1      31.846  -6.730 -21.485  0.00  0.00    +0.252 C 
ENDBRANCH  28  30
ENDBRANCH  19  20
ENDBRANCH  18  19
ENDBRANCH   3  18
TORSDOF 7
ENDMDL
MODEL 4
REMARK VINA RESULT:      -9.9      5.169      9.675
REMARK  Name = 25114442
REMARK  7 active torsions:
REMARK  status: ('A' for Active; 'I' for Inactive)
REMARK    1  A    between atoms: C_3  and  C_15
REMARK    2  A    between atoms: C_3  and  C_18
REMARK    3  A    between atoms: C_6  and  C_8
REMARK    4  A    between atoms: C_15  and  O_16
REMARK    5  A    between atoms: C_18  and  O_19
REMARK    6  A    between atoms: O_19  and  C_20
REMARK    7  A    between atoms: C_28  and  O_30
REMARK                            x       y       z     vdW  Elec       q    Type
REMARK                         _______ _______ _______ _____ _____    ______ ____
ROOT
ATOM      1  O   UNL     1      37.488 -18.876 -20.254  0.00  0.00    -0.270 OA
ATOM      2  N   UNL     1      35.820 -18.220 -21.698  0.00  0.00    -0.275 N 
ATOM      3  C   UNL     1      35.031 -16.781 -22.919  0.00  0.00    +0.166 C 
ATOM      4  C   UNL     1      34.515 -18.094 -22.319  0.00  0.00    +0.110 C 
ATOM      5  C   UNL     1      36.450 -17.222 -22.542  0.00  0.00    +0.110 C 
ATOM      6  C   UNL     1      36.317 -18.908 -20.622  0.00  0.00    +0.249 C 
ENDROOT
BRANCH   6   8
ATOM      7  F   UNL     1      32.680 -21.996 -17.681  0.00  0.00    -0.204 F 
ATOM      8  C   UNL     1      35.360 -19.722 -19.849  0.00  0.00    +0.054 C 
ATOM      9  C   UNL     1      35.826 -20.697 -18.967  0.00  0.00    +0.007 C 
ATOM     10  C   UNL     1      33.988 -19.514 -19.997  0.00  0.00    +0.007 C 
ATOM     11  C   UNL     1      34.921 -21.465 -18.235  0.00  0.00    +0.030 C 
ATOM     12  C   UNL     1      33.083 -20.283 -19.265  0.00  0.00    +0.030 C 
ATOM     13  C   UNL     1      33.550 -21.258 -18.384  0.00  0.00    +0.140 C 
ENDBRANCH   6   8
BRANCH   3  15
ATOM     14  O   UNL     1      33.946 -17.187 -25.111  0.00  0.00    -0.250 OA
ATOM     15  C   UNL     1      34.756 -16.562 -24.429  0.00  0.00    +0.320 C 
BRANCH  15  16
ATOM     16  O   UNL     1      35.526 -15.571 -24.957  0.00  0.00    -0.480 OA
ATOM     17  H   UNL     1      36.109 -15.758 -25.666  0.00  0.00    +0.295 HD
ENDBRANCH  15  16
ENDBRANCH   3  15
BRANCH   3  18
ATOM     18  C   UNL     1      34.584 -15.578 -22.112  0.00  0.00    +0.219 C 
BRANCH  18  19
ATOM     19  O   UNL     1      34.052 -14.601 -23.006  0.00  0.00    -0.475 OA
BRANCH  19  20
ATOM     20  C   UNL     1      33.652 -13.418 -22.464  0.00  0.00    +0.139 C 
ATOM     21  C   UNL     1      33.099 -13.391 -21.184  0.00  0.00    +0.037 C 
ATOM     22  C   UNL     1      33.794 -12.238 -23.188  0.00  0.00    +0.037 C 
ATOM     23  C   UNL     1      32.681 -12.179 -20.610  0.00  0.00    +0.003 C 
ATOM     24  C   UNL     1      32.825 -10.978 -21.345  0.00  0.00    +0.003 C 
ATOM     25  C   UNL     1      33.383 -11.025 -22.633  0.00  0.00    +0.003 C 
ATOM     26  C   UNL     1      32.122 -12.134 -19.322  0.00  0.00    +0.003 C 
ATOM     27  C   UNL     1      32.406  -9.768 -20.771  0.00  0.00    +0.037 C 
ATOM     28  C   UNL     1      31.854  -9.740 -19.490  0.00  0.00    +0.139 C 
ATOM     29  C   UNL     1      31.711 -10.921 -18.767  0.00  0.00    +0.037 C 
BRANCH  28  30
ATOM     30  O   UNL     1      31.451  -8.558 -18.949  0.00  0.00    -0.471 OA
ATOM     31  C   UNL     1      32.235  -7.405 -19.252  0.00  0.00    +0.252 C 
ENDBRANCH  28  30
ENDBRANCH  19  20
ENDBRANCH  18  19
ENDBRANCH   3  18
TORSDOF 7
ENDMDL
MODEL 5
REMARK VINA RESULT:      -9.7      4.079      7.649
REMARK  Name = 25114442
REMARK  7 active torsions:
REMARK  status: ('A' for Active; 'I' for Inactive)
REMARK    1  A    between atoms: C_3  and  C_15
REMARK    2  A    between atoms: C_3  and  C_18
REMARK    3  A    between atoms: C_6  and  C_8
REMARK    4  A    between atoms: C_15  and  O_16
REMARK    5  A    between atoms: C_18  and  O_19
REMARK    6  A    between atoms: O_19  and  C_20
REMARK    7  A    between atoms: C_28  and  O_30
REMARK                            x       y       z     vdW  Elec       q    Type
REMARK                         _______ _______ _______ _____ _____    ______ ____
ROOT
ATOM      1  O   UNL     1      37.204 -20.829 -17.972  0.00  0.00    -0.270 OA
ATOM      2  N   UNL     1      35.809 -19.975 -19.592  0.00  0.00    -0.275 N 
ATOM      3  C   UNL     1      35.374 -18.472 -20.910  0.00  0.00    +0.166 C 
ATOM      4  C   UNL     1      34.607 -19.675 -20.347  0.00  0.00    +0.110 C 
ATOM      5  C   UNL     1      36.664 -19.108 -20.380  0.00  0.00    +0.110 C 
ATOM      6  C   UNL     1      36.085 -20.697 -18.460  0.00  0.00    +0.249 C 
ENDROOT
BRANCH   6   8
ATOM      7  F   UNL     1      31.746 -23.127 -15.874  0.00  0.00    -0.204 F 
ATOM      8  C   UNL     1      34.942 -21.336 -17.779  0.00  0.00    +0.054 C 
ATOM      9  C   UNL     1      33.650 -21.167 -18.276  0.00  0.00    +0.007 C 
ATOM     10  C   UNL     1      35.155 -22.111 -16.639  0.00  0.00    +0.007 C 
ATOM     11  C   UNL     1      32.571 -21.771 -17.633  0.00  0.00    +0.030 C 
ATOM     12  C   UNL     1      34.075 -22.715 -15.995  0.00  0.00    +0.030 C 
ATOM     13  C   UNL     1      32.783 -22.546 -16.492  0.00  0.00    +0.140 C 
ENDBRANCH   6   8
BRANCH   3  15
ATOM     14  O   UNL     1      34.354 -18.601 -23.166  0.00  0.00    -0.250 OA
ATOM     15  C   UNL     1      35.288 -18.261 -22.443  0.00  0.00    +0.320 C 
BRANCH  15  16
ATOM     16  O   UNL     1      36.391 -17.636 -22.942  0.00  0.00    -0.480 OA
ATOM     17  H   UNL     1      36.739 -17.891 -23.773  0.00  0.00    +0.295 HD
ENDBRANCH  15  16
ENDBRANCH   3  15
BRANCH   3  18
ATOM     18  C   UNL     1      35.035 -17.192 -20.172  0.00  0.00    +0.219 C 
BRANCH  18  19
ATOM     19  O   UNL     1      35.706 -16.107 -20.809  0.00  0.00    -0.475 OA
BRANCH  19  20
ATOM     20  C   UNL     1      34.963 -15.004 -21.101  0.00  0.00    +0.139 C 
ATOM     21  C   UNL     1      34.076 -14.493 -20.153  0.00  0.00    +0.037 C 
ATOM     22  C   UNL     1      35.087 -14.389 -22.343  0.00  0.00    +0.037 C 
ATOM     23  C   UNL     1      33.301 -13.356 -20.438  0.00  0.00    +0.003 C 
ATOM     24  C   UNL     1      33.427 -12.730 -21.701  0.00  0.00    +0.003 C 
ATOM     25  C   UNL     1      34.325 -13.259 -22.643  0.00  0.00    +0.003 C 
ATOM     26  C   UNL     1      32.404 -12.827 -19.496  0.00  0.00    +0.003 C 
ATOM     27  C   UNL     1      32.652 -11.594 -21.985  0.00  0.00    +0.037 C 
ATOM     28  C   UNL     1      31.766 -11.082 -21.038  0.00  0.00    +0.139 C 
ATOM     29  C   UNL     1      31.640 -11.697 -19.795  0.00  0.00    +0.037 C 
BRANCH  28  30
ATOM     30  O   UNL     1      31.020  -9.981 -21.330  0.00  0.00    -0.471 OA
ATOM     31  C   UNL     1      31.679  -8.914 -22.010  0.00  0.00    +0.252 C 
ENDBRANCH  28  30
ENDBRANCH  19  20
ENDBRANCH  18  19
ENDBRANCH   3  18
TORSDOF 7
ENDMDL
MODEL 6
REMARK VINA RESULT:      -9.7      8.614     14.298
REMARK  Name = 25114442
REMARK  7 active torsions:
REMARK  status: ('A' for Active; 'I' for Inactive)
REMARK    1  A    between atoms: C_3  and  C_15
REMARK    2  A    between atoms: C_3  and  C_18
REMARK    3  A    between atoms: C_6  and  C_8
REMARK    4  A    between atoms: C_15  and  O_16
REMARK    5  A    between atoms: C_18  and  O_19
REMARK    6  A    between atoms: O_19  and  C_20
REMARK    7  A    between atoms: C_28  and  O_30
REMARK                            x       y       z     vdW  Elec       q    Type
REMARK                         _______ _______ _______ _____ _____    ______ ____
ROOT
ATOM      1  O   UNL     1      30.631  -7.446 -23.026  0.00  0.00    -0.270 OA
ATOM      2  N   UNL     1      32.835  -8.100 -23.152  0.00  0.00    -0.275 N 
ATOM      3  C   UNL     1      34.218  -9.475 -23.769  0.00  0.00    +0.166 C 
ATOM      4  C   UNL     1      34.234  -8.277 -22.812  0.00  0.00    +0.110 C 
ATOM      5  C   UNL     1      32.889  -8.952 -24.325  0.00  0.00    +0.110 C 
ATOM      6  C   UNL     1      31.766  -7.480 -22.558  0.00  0.00    +0.249 C 
ENDROOT
BRANCH   6   8
ATOM      7  F   UNL     1      32.680  -5.020 -17.606  0.00  0.00    -0.204 F 
ATOM      8  C   UNL     1      32.008  -6.832 -21.255  0.00  0.00    +0.054 C 
ATOM      9  C   UNL     1      31.908  -5.446 -21.135  0.00  0.00    +0.007 C 
ATOM     10  C   UNL     1      32.334  -7.606 -20.141  0.00  0.00    +0.007 C 
ATOM     11  C   UNL     1      32.135  -4.834 -19.903  0.00  0.00    +0.030 C 
ATOM     12  C   UNL     1      32.562  -6.994 -18.908  0.00  0.00    +0.030 C 
ATOM     13  C   UNL     1      32.462  -5.608 -18.789  0.00  0.00    +0.140 C 
ENDBRANCH   6   8
BRANCH   3  15
ATOM     14  O   UNL     1      36.502  -9.050 -24.632  0.00  0.00    -0.250 OA
ATOM     15  C   UNL     1      35.396  -9.567 -24.772  0.00  0.00    +0.320 C 
BRANCH  15  16
ATOM     16  O   UNL     1      35.083 -10.307 -25.871  0.00  0.00    -0.480 OA
ATOM     17  H   UNL     1      35.213  -9.951 -26.728  0.00  0.00    +0.295 HD
ENDBRANCH  15  16
ENDBRANCH   3  15
BRANCH   3  18
ATOM     18  C   UNL     1      34.039 -10.785 -23.028  0.00  0.00    +0.219 C 
BRANCH  18  19
ATOM     19  O   UNL     1      33.776 -11.815 -23.980  0.00  0.00    -0.475 OA
BRANCH  19  20
ATOM     20  C   UNL     1      34.145 -13.081 -23.642  0.00  0.00    +0.139 C 
ATOM     21  C   UNL     1      34.400 -13.398 -22.307  0.00  0.00    +0.037 C 
ATOM     22  C   UNL     1      34.271 -14.056 -24.627  0.00  0.00    +0.037 C 
ATOM     23  C   UNL     1      34.782 -14.699 -21.941  0.00  0.00    +0.003 C 
ATOM     24  C   UNL     1      34.909 -15.692 -22.942  0.00  0.00    +0.003 C 
ATOM     25  C   UNL     1      34.649 -15.354 -24.281  0.00  0.00    +0.003 C 
ATOM     26  C   UNL     1      35.041 -15.036 -20.602  0.00  0.00    +0.003 C 
ATOM     27  C   UNL     1      35.291 -16.992 -22.575  0.00  0.00    +0.037 C 
ATOM     28  C   UNL     1      35.545 -17.310 -21.241  0.00  0.00    +0.139 C 
ATOM     29  C   UNL     1      35.421 -16.334 -20.256  0.00  0.00    +0.037 C 
BRANCH  28  30
ATOM     30  O   UNL     1      35.917 -18.575 -20.903  0.00  0.00    -0.471 OA
ATOM     31  C   UNL     1      34.948 -19.378 -20.231  0.00  0.00    +0.252 C 
ENDBRANCH  28  30
ENDBRANCH  19  20
ENDBRANCH  18  19
ENDBRANCH   3  18
TORSDOF 7
ENDMDL
MODEL 7
REMARK VINA RESULT:      -9.5      7.408     13.077
REMARK  Name = 25114442
REMARK  7 active torsions:
REMARK  status: ('A' for Active; 'I' for Inactive)
REMARK    1  A    between atoms: C_3  and  C_15
REMARK    2  A    between atoms: C_3  and  C_18
REMARK    3  A    between atoms: C_6  and  C_8
REMARK    4  A    between atoms: C_15  and  O_16
REMARK    5  A    between atoms: C_18  and  O_19
REMARK    6  A    between atoms: O_19  and  C_20
REMARK    7  A    between atoms: C_28  and  O_30
REMARK                            x       y       z     vdW  Elec       q    Type
REMARK                         _______ _______ _______ _____ _____    ______ ____
ROOT
ATOM      1  O   UNL     1      30.845  -8.033 -22.557  0.00  0.00    -0.270 OA
ATOM      2  N   UNL     1      32.949  -8.915 -22.861  0.00  0.00    -0.275 N 
ATOM      3  C   UNL     1      34.344  -9.715 -24.126  0.00  0.00    +0.166 C 
ATOM      4  C   UNL     1      34.191  -9.620 -22.604  0.00  0.00    +0.110 C 
ATOM      5  C   UNL     1      33.252  -8.646 -24.254  0.00  0.00    +0.110 C 
ATOM      6  C   UNL     1      31.809  -8.670 -22.141  0.00  0.00    +0.249 C 
ENDROOT
BRANCH   6   8
ATOM      7  F   UNL     1      31.545 -10.831 -16.977  0.00  0.00    -0.204 F 
ATOM      8  C   UNL     1      31.741  -9.239 -20.782  0.00  0.00    +0.054 C 
ATOM      9  C   UNL     1      32.243  -8.519 -19.698  0.00  0.00    +0.007 C 
ATOM     10  C   UNL     1      31.171 -10.497 -20.580  0.00  0.00    +0.007 C 
ATOM     11  C   UNL     1      32.178  -9.056 -18.413  0.00  0.00    +0.030 C 
ATOM     12  C   UNL     1      31.106 -11.034 -19.294  0.00  0.00    +0.030 C 
ATOM     13  C   UNL     1      31.608 -10.314 -18.211  0.00  0.00    +0.140 C 
ENDBRANCH   6   8
BRANCH   3  15
ATOM     14  O   UNL     1      36.063  -9.396 -25.883  0.00  0.00    -0.250 OA
ATOM     15  C   UNL     1      35.737  -9.349 -24.700  0.00  0.00    +0.320 C 
BRANCH  15  16
ATOM     16  O   UNL     1      36.607  -8.951 -23.730  0.00  0.00    -0.480 OA
ATOM     17  H   UNL     1      36.949  -8.079 -23.737  0.00  0.00    +0.295 HD
ENDBRANCH  15  16
ENDBRANCH   3  15
BRANCH   3  18
ATOM     18  C   UNL     1      33.880 -11.057 -24.658  0.00  0.00    +0.219 C 
BRANCH  18  19
ATOM     19  O   UNL     1      33.333 -11.811 -23.577  0.00  0.00    -0.475 OA
BRANCH  19  20
ATOM     20  C   UNL     1      33.842 -13.056 -23.370  0.00  0.00    +0.139 C 
ATOM     21  C   UNL     1      34.152 -13.475 -22.076  0.00  0.00    +0.037 C 
ATOM     22  C   UNL     1      34.054 -13.909 -24.449  0.00  0.00    +0.037 C 
ATOM     23  C   UNL     1      34.678 -14.757 -21.845  0.00  0.00    +0.003 C 
ATOM     24  C   UNL     1      34.893 -15.625 -22.942  0.00  0.00    +0.003 C 
ATOM     25  C   UNL     1      34.576 -15.186 -24.238  0.00  0.00    +0.003 C 
ATOM     26  C   UNL     1      34.995 -15.196 -20.549  0.00  0.00    +0.003 C 
ATOM     27  C   UNL     1      35.419 -16.906 -22.711  0.00  0.00    +0.037 C 
ATOM     28  C   UNL     1      35.729 -17.326 -21.417  0.00  0.00    +0.139 C 
ATOM     29  C   UNL     1      35.518 -16.473 -20.338  0.00  0.00    +0.037 C 
BRANCH  28  30
ATOM     30  O   UNL     1      36.241 -18.570 -21.211  0.00  0.00    -0.471 OA
ATOM     31  C   UNL     1      35.707 -19.318 -20.119  0.00  0.00    +0.252 C 
ENDBRANCH  28  30
ENDBRANCH  19  20
ENDBRANCH  18  19
ENDBRANCH   3  18
TORSDOF 7
ENDMDL
MODEL 8
REMARK VINA RESULT:      -9.4     10.600     14.893
REMARK  Name = 25114442
REMARK  7 active torsions:
REMARK  status: ('A' for Active; 'I' for Inactive)
REMARK    1  A    between atoms: C_3  and  C_15
REMARK    2  A    between atoms: C_3  and  C_18
REMARK    3  A    between atoms: C_6  and  C_8
REMARK    4  A    between atoms: C_15  and  O_16
REMARK    5  A    between atoms: C_18  and  O_19
REMARK    6  A    between atoms: O_19  and  C_20
REMARK    7  A    between atoms: C_28  and  O_30
REMARK                            x       y       z     vdW  Elec       q    Type
REMARK                         _______ _______ _______ _____ _____    ______ ____
ROOT
ATOM      1  O   UNL     1      33.806 -12.213 -25.777  0.00  0.00    -0.270 OA
ATOM      2  N   UNL     1      33.992 -12.163 -23.484  0.00  0.00    -0.275 N 
ATOM      3  C   UNL     1      33.296 -12.771 -21.659  0.00  0.00    +0.166 C 
ATOM      4  C   UNL     1      34.270 -11.689 -22.141  0.00  0.00    +0.110 C 
ATOM      5  C   UNL     1      33.395 -13.411 -23.049  0.00  0.00    +0.110 C 
ATOM      6  C   UNL     1      34.104 -11.627 -24.740  0.00  0.00    +0.249 C 
ENDROOT
BRANCH   6   8
ATOM      7  F   UNL     1      35.973  -6.356 -25.101  0.00  0.00    -0.204 F 
ATOM      8  C   UNL     1      34.597 -10.239 -24.835  0.00  0.00    +0.054 C 
ATOM      9  C   UNL     1      35.571  -9.908 -25.777  0.00  0.00    +0.007 C 
ATOM     10  C   UNL     1      34.088  -9.259 -23.983  0.00  0.00    +0.007 C 
ATOM     11  C   UNL     1      36.036  -8.596 -25.867  0.00  0.00    +0.030 C 
ATOM     12  C   UNL     1      34.554  -7.947 -24.073  0.00  0.00    +0.030 C 
ATOM     13  C   UNL     1      35.527  -7.615 -25.015  0.00  0.00    +0.140 C 
ENDBRANCH   6   8
BRANCH   3  15
ATOM     14  O   UNL     1      34.935 -13.944 -20.216  0.00  0.00    -0.250 OA
ATOM     15  C   UNL     1      33.771 -13.639 -20.465  0.00  0.00    +0.320 C 
BRANCH  15  16
ATOM     16  O   UNL     1      32.736 -14.051 -19.681  0.00  0.00    -0.480 OA
ATOM     17  H   UNL     1      31.922 -13.589 -19.699  0.00  0.00    +0.295 HD
ENDBRANCH  15  16
ENDBRANCH   3  15
BRANCH   3  18
ATOM     18  C   UNL     1      31.912 -12.209 -21.398  0.00  0.00    +0.219 C 
BRANCH  18  19
ATOM     19  O   UNL     1      31.902 -11.608 -20.104  0.00  0.00    -0.475 OA
BRANCH  19  20
ATOM     20  C   UNL     1      32.020 -10.253 -20.049  0.00  0.00    +0.139 C 
ATOM     21  C   UNL     1      31.743  -9.485 -21.181  0.00  0.00    +0.037 C 
ATOM     22  C   UNL     1      32.418  -9.636 -18.867  0.00  0.00    +0.037 C 
ATOM     23  C   UNL     1      31.861  -8.085 -21.142  0.00  0.00    +0.003 C 
ATOM     24  C   UNL     1      32.265  -7.457 -19.940  0.00  0.00    +0.003 C 
ATOM     25  C   UNL     1      32.539  -8.247 -18.811  0.00  0.00    +0.003 C 
ATOM     26  C   UNL     1      31.585  -7.296 -22.271  0.00  0.00    +0.003 C 
ATOM     27  C   UNL     1      32.382  -6.058 -19.902  0.00  0.00    +0.037 C 
ATOM     28  C   UNL     1      32.105  -5.290 -21.032  0.00  0.00    +0.139 C 
ATOM     29  C   UNL     1      31.708  -5.907 -22.215  0.00  0.00    +0.037 C 
BRANCH  28  30
ATOM     30  O   UNL     1      32.226  -3.935 -20.979  0.00  0.00    -0.471 OA
ATOM     31  C   UNL     1      31.901  -3.208 -22.163  0.00  0.00    +0.252 C 
ENDBRANCH  28  30
ENDBRANCH  19  20
ENDBRANCH  18  19
ENDBRANCH   3  18
TORSDOF 7
ENDMDL
MODEL 9
REMARK VINA RESULT:      -9.3      3.022      5.395
REMARK  Name = 25114442
REMARK  7 active torsions:
REMARK  status: ('A' for Active; 'I' for Inactive)
REMARK    1  A    between atoms: C_3  and  C_15
REMARK    2  A    between atoms: C_3  and  C_18
REMARK    3  A    between atoms: C_6  and  C_8
REMARK    4  A    between atoms: C_15  and  O_16
REMARK    5  A    between atoms: C_18  and  O_19
REMARK    6  A    between atoms: O_19  and  C_20
REMARK    7  A    between atoms: C_28  and  O_30
REMARK                            x       y       z     vdW  Elec       q    Type
REMARK                         _______ _______ _______ _____ _____    ______ ____
ROOT
ATOM      1  O   UNL     1      35.950 -25.741 -15.012  0.00  0.00    -0.270 OA
ATOM      2  N   UNL     1      34.383 -24.423 -13.962  0.00  0.00    -0.275 N 
ATOM      3  C   UNL     1      32.636 -23.365 -14.066  0.00  0.00    +0.166 C 
ATOM      4  C   UNL     1      33.789 -23.455 -13.059  0.00  0.00    +0.110 C 
ATOM      5  C   UNL     1      33.162 -24.651 -14.713  0.00  0.00    +0.110 C 
ATOM      6  C   UNL     1      35.652 -24.897 -14.172  0.00  0.00    +0.249 C 
ENDROOT
BRANCH   6   8
ATOM      7  F   UNL     1      39.737 -22.727 -11.008  0.00  0.00    -0.204 F 
ATOM      8  C   UNL     1      36.726 -24.325 -13.338  0.00  0.00    +0.054 C 
ATOM      9  C   UNL     1      37.408 -25.134 -12.429  0.00  0.00    +0.007 C 
ATOM     10  C   UNL     1      37.062 -22.977 -13.461  0.00  0.00    +0.007 C 
ATOM     11  C   UNL     1      38.425 -24.594 -11.642  0.00  0.00    +0.030 C 
ATOM     12  C   UNL     1      38.079 -22.437 -12.673  0.00  0.00    +0.030 C 
ATOM     13  C   UNL     1      38.761 -23.245 -11.764  0.00  0.00    +0.140 C 
ENDBRANCH   6   8
BRANCH   3  15
ATOM     14  O   UNL     1      30.863 -24.057 -12.477  0.00  0.00    -0.250 OA
ATOM     15  C   UNL     1      31.203 -23.427 -13.476  0.00  0.00    +0.320 C 
BRANCH  15  16
ATOM     16  O   UNL     1      30.315 -22.686 -14.194  0.00  0.00    -0.480 OA
ATOM     17  H   UNL     1      30.405 -22.618 -15.124  0.00  0.00    +0.295 HD
ENDBRANCH  15  16
ENDBRANCH   3  15
BRANCH   3  18
ATOM     18  C   UNL     1      32.785 -22.171 -14.989  0.00  0.00    +0.219 C 
BRANCH  18  19
ATOM     19  O   UNL     1      32.847 -22.640 -16.335  0.00  0.00    -0.475 OA
BRANCH  19  20
ATOM     20  C   UNL     1      33.636 -21.943 -17.198  0.00  0.00    +0.139 C 
ATOM     21  C   UNL     1      33.055 -21.205 -18.230  0.00  0.00    +0.037 C 
ATOM     22  C   UNL     1      35.020 -21.968 -17.051  0.00  0.00    +0.037 C 
ATOM     23  C   UNL     1      33.855 -20.481 -19.129  0.00  0.00    +0.003 C 
ATOM     24  C   UNL     1      35.262 -20.505 -18.981  0.00  0.00    +0.003 C 
ATOM     25  C   UNL     1      35.829 -21.254 -17.936  0.00  0.00    +0.003 C 
ATOM     26  C   UNL     1      33.287 -19.732 -20.173  0.00  0.00    +0.003 C 
ATOM     27  C   UNL     1      36.060 -19.781 -19.880  0.00  0.00    +0.037 C 
ATOM     28  C   UNL     1      35.480 -19.042 -20.912  0.00  0.00    +0.139 C 
ATOM     29  C   UNL     1      34.096 -19.018 -21.059  0.00  0.00    +0.037 C 
BRANCH  28  30
ATOM     30  O   UNL     1      36.269 -18.347 -21.777  0.00  0.00    -0.471 OA
ATOM     31  C   UNL     1      35.641 -17.324 -22.547  0.00  0.00    +0.252 C 
ENDBRANCH  28  30
ENDBRANCH  19  20
ENDBRANCH  18  19
ENDBRANCH   3  18
TORSDOF 7
ENDMDL
