MODEL 1
REMARK VINA RESULT:     -13.1      0.000      0.000
REMARK  Name = 9998128
REMARK  2 active torsions:
REMARK  status: ('A' for Active; 'I' for Inactive)
REMARK    1  A    between atoms: N_1  and  C_15
REMARK    2  A    between atoms: C_7  and  C_24
REMARK                            x       y       z     vdW  Elec       q    Type
REMARK                         _______ _______ _______ _____ _____    ______ ____
ROOT
ATOM      1  N   UNL     1      33.971 -24.280 -14.241  0.00  0.00    -0.290 N 
ATOM      2  N   UNL     1      33.820 -22.834 -16.092  0.00  0.00    -0.327 NA
ATOM      3  N   UNL     1      31.677 -22.060 -16.875  0.00  0.00    -0.342 NA
ATOM      4  C   UNL     1      31.787 -23.533 -14.986  0.00  0.00    +0.143 C 
ATOM      5  C   UNL     1      33.172 -23.526 -15.136  0.00  0.00    +0.184 C 
ATOM      6  C   UNL     1      31.061 -22.762 -15.907  0.00  0.00    +0.133 C 
ATOM      7  C   UNL     1      33.023 -22.134 -16.915  0.00  0.00    +0.165 C 
ATOM      8  C   UNL     1      31.133 -24.264 -13.979  0.00  0.00    -0.011 C 
ATOM      9  C   UNL     1      29.673 -22.746 -15.790  0.00  0.00    +0.029 C 
ATOM     10  C   UNL     1      29.746 -24.229 -13.884  0.00  0.00    -0.004 C 
ATOM     11  C   UNL     1      29.014 -23.469 -14.792  0.00  0.00    +0.002 C 
ATOM     12  H   UNL     1      33.526 -25.087 -13.894  0.00  0.00    +0.154 HD
ENDROOT
BRANCH   1  15
ATOM     13  N   UNL     1      38.983 -23.396 -12.136  0.00  0.00    -0.236 N 
ATOM     14  N   UNL     1      38.763 -22.546 -11.118  0.00  0.00    -0.180 NA
ATOM     15  C   UNL     1      35.276 -24.100 -13.755  0.00  0.00    +0.050 C 
ATOM     16  C   UNL     1      36.813 -23.088 -12.185  0.00  0.00    +0.037 C 
ATOM     17  C   UNL     1      37.854 -23.760 -12.816  0.00  0.00    +0.067 C 
ATOM     18  C   UNL     1      35.500 -23.255 -12.655  0.00  0.00    +0.018 C 
ATOM     19  C   UNL     1      36.348 -24.762 -14.368  0.00  0.00    +0.016 C 
ATOM     20  C   UNL     1      37.660 -24.606 -13.911  0.00  0.00    +0.017 C 
ATOM     21  C   UNL     1      37.442 -22.361 -11.151  0.00  0.00    +0.119 C 
ATOM     22  H   UNL     1      39.880 -23.727 -12.370  0.00  0.00    +0.174 HD
ENDBRANCH   1  15
BRANCH   7  24
ATOM     23  N   UNL     1      35.026 -21.456 -17.956  0.00  0.00    -0.398 NA
ATOM     24  C   UNL     1      33.675 -21.380 -17.953  0.00  0.00    +0.197 C 
ATOM     25  C   UNL     1      32.943 -20.638 -18.868  0.00  0.00    +0.098 C 
ATOM     26  C   UNL     1      35.668 -20.758 -18.919  0.00  0.00    +0.110 C 
ATOM     27  C   UNL     1      33.638 -19.932 -19.843  0.00  0.00    -0.016 C 
ATOM     28  C   UNL     1      35.028 -19.988 -19.877  0.00  0.00    +0.023 C 
ATOM     29  C   UNL     1      37.158 -20.840 -18.924  0.00  0.00    +0.066 C 
ENDBRANCH   7  24
TORSDOF 2
ENDMDL
MODEL 2
REMARK VINA RESULT:     -13.0      1.381      5.018
REMARK  Name = 9998128
REMARK  2 active torsions:
REMARK  status: ('A' for Active; 'I' for Inactive)
REMARK    1  A    between atoms: N_1  and  C_15
REMARK    2  A    between atoms: C_7  and  C_24
REMARK                            x       y       z     vdW  Elec       q    Type
REMARK                         _______ _______ _______ _____ _____    ______ ____
ROOT
ATOM      1  N   UNL     1      35.935 -22.269 -15.669  0.00  0.00    -0.290 N 
ATOM      2  N   UNL     1      33.595 -22.469 -15.814  0.00  0.00    -0.327 NA
ATOM      3  N   UNL     1      32.409 -21.650 -17.745  0.00  0.00    -0.342 NA
ATOM      4  C   UNL     1      34.793 -21.426 -17.636  0.00  0.00    +0.143 C 
ATOM      5  C   UNL     1      34.736 -22.049 -16.392  0.00  0.00    +0.184 C 
ATOM      6  C   UNL     1      33.567 -21.243 -18.294  0.00  0.00    +0.133 C 
ATOM      7  C   UNL     1      32.486 -22.241 -16.535  0.00  0.00    +0.165 C 
ATOM      8  C   UNL     1      35.998 -20.995 -18.218  0.00  0.00    -0.011 C 
ATOM      9  C   UNL     1      33.583 -20.622 -19.540  0.00  0.00    +0.029 C 
ATOM     10  C   UNL     1      35.986 -20.378 -19.465  0.00  0.00    -0.004 C 
ATOM     11  C   UNL     1      34.777 -20.191 -20.127  0.00  0.00    +0.002 C 
ATOM     12  H   UNL     1      36.632 -21.594 -15.841  0.00  0.00    +0.154 HD
ENDROOT
BRANCH   1  15
ATOM     13  N   UNL     1      37.503 -25.952 -11.886  0.00  0.00    -0.236 N 
ATOM     14  N   UNL     1      37.814 -25.204 -10.813  0.00  0.00    -0.180 NA
ATOM     15  C   UNL     1      36.321 -23.260 -14.754  0.00  0.00    +0.050 C 
ATOM     16  C   UNL     1      37.120 -23.901 -12.561  0.00  0.00    +0.037 C 
ATOM     17  C   UNL     1      37.079 -25.230 -12.968  0.00  0.00    +0.067 C 
ATOM     18  C   UNL     1      36.736 -22.893 -13.462  0.00  0.00    +0.018 C 
ATOM     19  C   UNL     1      36.293 -24.609 -15.131  0.00  0.00    +0.016 C 
ATOM     20  C   UNL     1      36.671 -25.623 -14.245  0.00  0.00    +0.017 C 
ATOM     21  C   UNL     1      37.579 -23.957 -11.228  0.00  0.00    +0.119 C 
ATOM     22  H   UNL     1      37.574 -26.933 -11.891  0.00  0.00    +0.174 HD
ENDBRANCH   1  15
BRANCH   7  24
ATOM     23  N   UNL     1      30.134 -22.098 -16.472  0.00  0.00    -0.398 NA
ATOM     24  C   UNL     1      31.242 -22.675 -15.954  0.00  0.00    +0.197 C 
ATOM     25  C   UNL     1      31.216 -23.619 -14.937  0.00  0.00    +0.098 C 
ATOM     26  C   UNL     1      28.949 -22.485 -15.947  0.00  0.00    +0.110 C 
ATOM     27  C   UNL     1      29.980 -23.991 -14.422  0.00  0.00    -0.016 C 
ATOM     28  C   UNL     1      28.819 -23.418 -14.931  0.00  0.00    +0.023 C 
ATOM     29  C   UNL     1      27.726 -21.849 -16.517  0.00  0.00    +0.066 C 
ENDBRANCH   7  24
TORSDOF 2
ENDMDL
MODEL 3
REMARK VINA RESULT:     -12.9      0.730      1.861
REMARK  Name = 9998128
REMARK  2 active torsions:
REMARK  status: ('A' for Active; 'I' for Inactive)
REMARK    1  A    between atoms: N_1  and  C_15
REMARK    2  A    between atoms: C_7  and  C_24
REMARK                            x       y       z     vdW  Elec       q    Type
REMARK                         _______ _______ _______ _____ _____    ______ ____
ROOT
ATOM      1  N   UNL     1      33.932 -24.245 -13.879  0.00  0.00    -0.290 N 
ATOM      2  N   UNL     1      33.893 -22.887 -15.800  0.00  0.00    -0.327 NA
ATOM      3  N   UNL     1      31.801 -22.157 -16.747  0.00  0.00    -0.342 NA
ATOM      4  C   UNL     1      31.797 -23.541 -14.789  0.00  0.00    +0.143 C 
ATOM      5  C   UNL     1      33.188 -23.535 -14.854  0.00  0.00    +0.184 C 
ATOM      6  C   UNL     1      31.127 -22.816 -15.787  0.00  0.00    +0.133 C 
ATOM      7  C   UNL     1      33.147 -22.228 -16.701  0.00  0.00    +0.165 C 
ATOM      8  C   UNL     1      31.083 -24.226 -13.790  0.00  0.00    -0.011 C 
ATOM      9  C   UNL     1      29.735 -22.798 -15.756  0.00  0.00    +0.029 C 
ATOM     10  C   UNL     1      29.692 -24.192 -13.782  0.00  0.00    -0.004 C 
ATOM     11  C   UNL     1      29.017 -23.476 -14.766  0.00  0.00    +0.002 C 
ATOM     12  H   UNL     1      33.466 -25.037 -13.522  0.00  0.00    +0.154 HD
ENDROOT
BRANCH   1  15
ATOM     13  N   UNL     1      39.037 -23.580 -11.920  0.00  0.00    -0.236 N 
ATOM     14  N   UNL     1      39.816 -24.188 -12.831  0.00  0.00    -0.180 NA
ATOM     15  C   UNL     1      35.204 -24.039 -13.323  0.00  0.00    +0.050 C 
ATOM     16  C   UNL     1      37.606 -24.318 -13.409  0.00  0.00    +0.037 C 
ATOM     17  C   UNL     1      37.700 -23.623 -12.209  0.00  0.00    +0.067 C 
ATOM     18  C   UNL     1      36.341 -24.534 -13.983  0.00  0.00    +0.018 C 
ATOM     19  C   UNL     1      35.335 -23.343 -12.114  0.00  0.00    +0.016 C 
ATOM     20  C   UNL     1      36.587 -23.120 -11.531  0.00  0.00    +0.017 C 
ATOM     21  C   UNL     1      38.942 -24.635 -13.735  0.00  0.00    +0.119 C 
ATOM     22  H   UNL     1      39.397 -23.142 -11.116  0.00  0.00    +0.174 HD
ENDBRANCH   1  15
BRANCH   7  24
ATOM     23  N   UNL     1      33.083 -20.868 -18.625  0.00  0.00    -0.398 NA
ATOM     24  C   UNL     1      33.861 -21.520 -17.731  0.00  0.00    +0.197 C 
ATOM     25  C   UNL     1      35.248 -21.527 -17.777  0.00  0.00    +0.098 C 
ATOM     26  C   UNL     1      33.724 -20.194 -19.606  0.00  0.00    +0.110 C 
ATOM     27  C   UNL     1      35.872 -20.823 -18.800  0.00  0.00    -0.016 C 
ATOM     28  C   UNL     1      35.103 -20.140 -19.737  0.00  0.00    +0.023 C 
ATOM     29  C   UNL     1      32.868 -19.474 -20.593  0.00  0.00    +0.066 C 
ENDBRANCH   7  24
TORSDOF 2
ENDMDL
MODEL 4
REMARK VINA RESULT:     -11.9      1.894      6.868
REMARK  Name = 9998128
REMARK  2 active torsions:
REMARK  status: ('A' for Active; 'I' for Inactive)
REMARK    1  A    between atoms: N_1  and  C_15
REMARK    2  A    between atoms: C_7  and  C_24
REMARK                            x       y       z     vdW  Elec       q    Type
REMARK                         _______ _______ _______ _____ _____    ______ ____
ROOT
ATOM      1  N   UNL     1      35.777 -22.345 -16.172  0.00  0.00    -0.290 N 
ATOM      2  N   UNL     1      33.710 -22.981 -15.244  0.00  0.00    -0.327 NA
ATOM      3  N   UNL     1      33.532 -23.545 -12.909  0.00  0.00    -0.342 NA
ATOM      4  C   UNL     1      35.657 -22.903 -13.814  0.00  0.00    +0.143 C 
ATOM      5  C   UNL     1      35.022 -22.756 -15.045  0.00  0.00    +0.184 C 
ATOM      6  C   UNL     1      34.846 -23.312 -12.744  0.00  0.00    +0.133 C 
ATOM      7  C   UNL     1      33.035 -23.367 -14.150  0.00  0.00    +0.165 C 
ATOM      8  C   UNL     1      37.030 -22.662 -13.631  0.00  0.00    -0.011 C 
ATOM      9  C   UNL     1      35.445 -23.471 -11.497  0.00  0.00    +0.029 C 
ATOM     10  C   UNL     1      37.603 -22.828 -12.375  0.00  0.00    -0.004 C 
ATOM     11  C   UNL     1      36.810 -23.233 -11.306  0.00  0.00    +0.002 C 
ATOM     12  H   UNL     1      36.720 -22.630 -16.144  0.00  0.00    +0.154 HD
ENDROOT
BRANCH   1  15
ATOM     13  N   UNL     1      34.730 -19.374 -20.690  0.00  0.00    -0.236 N 
ATOM     14  N   UNL     1      35.910 -18.801 -20.983  0.00  0.00    -0.180 NA
ATOM     15  C   UNL     1      35.441 -21.612 -17.321  0.00  0.00    +0.050 C 
ATOM     16  C   UNL     1      36.065 -20.113 -19.115  0.00  0.00    +0.037 C 
ATOM     17  C   UNL     1      34.756 -20.174 -19.580  0.00  0.00    +0.067 C 
ATOM     18  C   UNL     1      36.421 -20.841 -17.967  0.00  0.00    +0.018 C 
ATOM     19  C   UNL     1      34.131 -21.650 -17.816  0.00  0.00    +0.016 C 
ATOM     20  C   UNL     1      33.761 -20.932 -18.958  0.00  0.00    +0.017 C 
ATOM     21  C   UNL     1      36.719 -19.253 -20.022  0.00  0.00    +0.119 C 
ATOM     22  H   UNL     1      33.919 -19.230 -21.228  0.00  0.00    +0.174 HD
ENDBRANCH   1  15
BRANCH   7  24
ATOM     23  N   UNL     1      30.976 -22.733 -15.107  0.00  0.00    -0.398 NA
ATOM     24  C   UNL     1      31.628 -23.619 -14.318  0.00  0.00    +0.197 C 
ATOM     25  C   UNL     1      31.014 -24.700 -13.702  0.00  0.00    +0.098 C 
ATOM     26  C   UNL     1      29.652 -22.943 -15.284  0.00  0.00    +0.110 C 
ATOM     27  C   UNL     1      29.651 -24.882 -13.908  0.00  0.00    -0.016 C 
ATOM     28  C   UNL     1      28.949 -23.991 -14.713  0.00  0.00    +0.023 C 
ATOM     29  C   UNL     1      28.932 -21.967 -16.154  0.00  0.00    +0.066 C 
ENDBRANCH   7  24
TORSDOF 2
ENDMDL
MODEL 5
REMARK VINA RESULT:     -11.2      1.925      6.712
REMARK  Name = 9998128
REMARK  2 active torsions:
REMARK  status: ('A' for Active; 'I' for Inactive)
REMARK    1  A    between atoms: N_1  and  C_15
REMARK    2  A    between atoms: C_7  and  C_24
REMARK                            x       y       z     vdW  Elec       q    Type
REMARK                         _______ _______ _______ _____ _____    ______ ____
ROOT
ATOM      1  N   UNL     1      33.325 -22.465 -16.956  0.00  0.00    -0.290 N 
ATOM      2  N   UNL     1      35.361 -22.645 -15.790  0.00  0.00    -0.327 NA
ATOM      3  N   UNL     1      37.341 -21.533 -16.596  0.00  0.00    -0.342 NA
ATOM      4  C   UNL     1      35.286 -21.324 -17.814  0.00  0.00    +0.143 C 
ATOM      5  C   UNL     1      34.699 -22.137 -16.847  0.00  0.00    +0.184 C 
ATOM      6  C   UNL     1      36.650 -21.042 -17.640  0.00  0.00    +0.133 C 
ATOM      7  C   UNL     1      36.659 -22.308 -15.728  0.00  0.00    +0.165 C 
ATOM      8  C   UNL     1      34.573 -20.806 -18.909  0.00  0.00    -0.011 C 
ATOM      9  C   UNL     1      37.273 -20.232 -18.587  0.00  0.00    +0.029 C 
ATOM     10  C   UNL     1      35.219 -20.000 -19.840  0.00  0.00    -0.004 C 
ATOM     11  C   UNL     1      36.571 -19.713 -19.679  0.00  0.00    +0.002 C 
ATOM     12  H   UNL     1      32.997 -22.502 -17.884  0.00  0.00    +0.154 HD
ENDROOT
BRANCH   1  15
ATOM     13  N   UNL     1      29.661 -23.703 -13.034  0.00  0.00    -0.236 N 
ATOM     14  N   UNL     1      30.386 -24.346 -12.103  0.00  0.00    -0.180 NA
ATOM     15  C   UNL     1      32.339 -22.747 -15.997  0.00  0.00    +0.050 C 
ATOM     16  C   UNL     1      31.686 -23.709 -13.875  0.00  0.00    +0.037 C 
ATOM     17  C   UNL     1      30.382 -23.295 -14.122  0.00  0.00    +0.067 C 
ATOM     18  C   UNL     1      32.687 -23.435 -14.822  0.00  0.00    +0.018 C 
ATOM     19  C   UNL     1      31.016 -22.345 -16.214  0.00  0.00    +0.016 C 
ATOM     20  C   UNL     1      30.008 -22.610 -15.281  0.00  0.00    +0.017 C 
ATOM     21  C   UNL     1      31.618 -24.348 -12.618  0.00  0.00    +0.119 C 
ATOM     22  H   UNL     1      28.695 -23.540 -12.940  0.00  0.00    +0.174 HD
ENDBRANCH   1  15
BRANCH   7  24
ATOM     23  N   UNL     1      38.545 -23.481 -14.939  0.00  0.00    -0.398 NA
ATOM     24  C   UNL     1      37.405 -22.829 -14.613  0.00  0.00    +0.197 C 
ATOM     25  C   UNL     1      36.959 -22.660 -13.310  0.00  0.00    +0.098 C 
ATOM     26  C   UNL     1      39.268 -23.983 -13.913  0.00  0.00    +0.110 C 
ATOM     27  C   UNL     1      37.729 -23.191 -12.281  0.00  0.00    -0.016 C 
ATOM     28  C   UNL     1      38.908 -23.867 -12.580  0.00  0.00    +0.023 C 
ATOM     29  C   UNL     1      40.526 -24.702 -14.270  0.00  0.00    +0.066 C 
ENDBRANCH   7  24
TORSDOF 2
ENDMDL
MODEL 6
REMARK VINA RESULT:     -10.7      1.828      7.287
REMARK  Name = 9998128
REMARK  2 active torsions:
REMARK  status: ('A' for Active; 'I' for Inactive)
REMARK    1  A    between atoms: N_1  and  C_15
REMARK    2  A    between atoms: C_7  and  C_24
REMARK                            x       y       z     vdW  Elec       q    Type
REMARK                         _______ _______ _______ _____ _____    ______ ____
ROOT
ATOM      1  N   UNL     1      32.977 -22.293 -17.296  0.00  0.00    -0.290 N 
ATOM      2  N   UNL     1      34.882 -22.588 -15.947  0.00  0.00    -0.327 NA
ATOM      3  N   UNL     1      36.994 -21.611 -16.572  0.00  0.00    -0.342 NA
ATOM      4  C   UNL     1      35.076 -21.287 -17.975  0.00  0.00    +0.143 C 
ATOM      5  C   UNL     1      34.353 -22.051 -17.063  0.00  0.00    +0.184 C 
ATOM      6  C   UNL     1      36.434 -21.088 -17.678  0.00  0.00    +0.133 C 
ATOM      7  C   UNL     1      36.188 -22.332 -15.767  0.00  0.00    +0.165 C 
ATOM      8  C   UNL     1      34.502 -20.736 -19.134  0.00  0.00    -0.011 C 
ATOM      9  C   UNL     1      37.191 -20.329 -18.567  0.00  0.00    +0.029 C 
ATOM     10  C   UNL     1      35.280 -19.982 -20.005  0.00  0.00    -0.004 C 
ATOM     11  C   UNL     1      36.627 -19.778 -19.721  0.00  0.00    +0.002 C 
ATOM     12  H   UNL     1      32.734 -22.320 -18.251  0.00  0.00    +0.154 HD
ENDROOT
BRANCH   1  15
ATOM     13  N   UNL     1      28.553 -22.979 -14.088  0.00  0.00    -0.236 N 
ATOM     14  N   UNL     1      27.558 -22.395 -14.777  0.00  0.00    -0.180 NA
ATOM     15  C   UNL     1      31.892 -22.504 -16.431  0.00  0.00    +0.050 C 
ATOM     16  C   UNL     1      29.544 -22.251 -15.903  0.00  0.00    +0.037 C 
ATOM     17  C   UNL     1      29.770 -22.927 -14.710  0.00  0.00    +0.067 C 
ATOM     18  C   UNL     1      30.617 -22.032 -16.784  0.00  0.00    +0.018 C 
ATOM     19  C   UNL     1      32.085 -23.180 -15.220  0.00  0.00    +0.016 C 
ATOM     20  C   UNL     1      31.027 -23.407 -14.333  0.00  0.00    +0.017 C 
ATOM     21  C   UNL     1      28.165 -21.954 -15.881  0.00  0.00    +0.119 C 
ATOM     22  H   UNL     1      28.416 -23.408 -13.212  0.00  0.00    +0.174 HD
ENDBRANCH   1  15
BRANCH   7  24
ATOM     23  N   UNL     1      36.022 -22.858 -13.475  0.00  0.00    -0.398 NA
ATOM     24  C   UNL     1      36.794 -22.888 -14.586  0.00  0.00    +0.197 C 
ATOM     25  C   UNL     1      38.080 -23.410 -14.617  0.00  0.00    +0.098 C 
ATOM     26  C   UNL     1      36.564 -23.372 -12.348  0.00  0.00    +0.110 C 
ATOM     27  C   UNL     1      38.603 -23.929 -13.439  0.00  0.00    -0.016 C 
ATOM     28  C   UNL     1      37.836 -23.915 -12.278  0.00  0.00    +0.023 C 
ATOM     29  C   UNL     1      35.714 -23.339 -11.122  0.00  0.00    +0.066 C 
ENDBRANCH   7  24
TORSDOF 2
ENDMDL
