MODEL 1
REMARK VINA RESULT:     -12.4      0.000      0.000
REMARK  Name = 24941243
REMARK  5 active torsions:
REMARK  status: ('A' for Active; 'I' for Inactive)
REMARK    1  A    between atoms: N_1  and  C_14
REMARK    2  A    between atoms: N_2  and  C_22
REMARK    3  A    between atoms: C_25  and  O_28
REMARK    4  A    between atoms: C_26  and  O_30
REMARK    5  A    between atoms: C_27  and  O_32
REMARK                            x       y       z     vdW  Elec       q    Type
REMARK                         _______ _______ _______ _____ _____    ______ ____
ROOT
ATOM      1  N   UNL     1      36.380 -18.102 -21.507  0.00  0.00    -0.260 N 
ATOM      2  N   UNL     1      36.825 -20.724 -17.597  0.00  0.00    -0.247 N 
ATOM      3  N   UNL     1      36.625 -19.417 -19.535  0.00  0.00    -0.322 NA
ATOM      4  N   UNL     1      34.738 -20.639 -18.667  0.00  0.00    -0.170 NA
ATOM      5  C   UNL     1      35.830 -18.970 -20.530  0.00  0.00    +0.201 C 
ATOM      6  C   UNL     1      37.840 -18.044 -21.628  0.00  0.00    +0.120 C 
ATOM      7  C   UNL     1      34.498 -19.308 -20.659  0.00  0.00    +0.070 C 
ATOM      8  C   UNL     1      36.023 -20.236 -18.652  0.00  0.00    +0.150 C 
ATOM      9  C   UNL     1      34.001 -20.154 -19.689  0.00  0.00    +0.116 C 
ATOM     10  H   UNL     1      37.755 -20.403 -17.626  0.00  0.00    +0.165 HD
ENDROOT
BRANCH   1  14
ATOM     11  N   UNL     1      33.384 -15.037 -25.380  0.00  0.00    -0.280 N 
ATOM     12  N   UNL     1      33.845 -16.301 -25.300  0.00  0.00    -0.173 NA
ATOM     13  C   UNL     1      34.375 -15.075 -23.463  0.00  0.00    +0.032 A 
ATOM     14  C   UNL     1      35.678 -17.096 -22.224  0.00  0.00    +0.055 C 
ATOM     15  C   UNL     1      34.471 -16.361 -24.112  0.00  0.00    +0.103 A 
ATOM     16  C   UNL     1      33.676 -14.254 -24.302  0.00  0.00    +0.053 A 
ATOM     17  C   UNL     1      35.143 -17.428 -23.487  0.00  0.00    +0.036 C 
ATOM     18  C   UNL     1      34.890 -14.717 -22.223  0.00  0.00    +0.004 C 
ATOM     19  C   UNL     1      35.556 -15.803 -21.623  0.00  0.00    +0.015 C 
ATOM     20  C   UNL     1      33.251 -12.847 -24.222  0.00  0.00    +0.051 C 
ATOM     21  H   UNL     1      32.877 -14.705 -26.156  0.00  0.00    +0.189 HD
ENDBRANCH   1  14
BRANCH   2  22
ATOM     22  C   UNL     1      36.555 -21.579 -16.512  0.00  0.00    +0.064 C 
ATOM     23  C   UNL     1      35.255 -22.031 -16.288  0.00  0.00    +0.055 C 
ATOM     24  C   UNL     1      37.588 -21.977 -15.663  0.00  0.00    +0.055 C 
ATOM     25  C   UNL     1      37.320 -22.826 -14.591  0.00  0.00    +0.177 C 
ATOM     26  C   UNL     1      34.988 -22.880 -15.214  0.00  0.00    +0.177 C 
ATOM     27  C   UNL     1      36.020 -23.279 -14.366  0.00  0.00    +0.206 C 
BRANCH  25  28
ATOM     28  O   UNL     1      38.338 -23.208 -13.769  0.00  0.00    -0.468 OA
ATOM     29  C   UNL     1      39.102 -24.344 -14.167  0.00  0.00    +0.253 C 
ENDBRANCH  25  28
BRANCH  26  30
ATOM     30  O   UNL     1      33.712 -23.314 -15.006  0.00  0.00    -0.468 OA
ATOM     31  C   UNL     1      32.700 -22.782 -15.857  0.00  0.00    +0.253 C 
ENDBRANCH  26  30
BRANCH  27  32
ATOM     32  O   UNL     1      35.759 -24.108 -13.316  0.00  0.00    -0.465 OA
ATOM     33  C   UNL     1      35.424 -23.494 -12.073  0.00  0.00    +0.253 C 
ENDBRANCH  27  32
ENDBRANCH   2  22
TORSDOF 5
ENDMDL
MODEL 2
REMARK VINA RESULT:     -12.3      0.034      2.285
REMARK  Name = 24941243
REMARK  5 active torsions:
REMARK  status: ('A' for Active; 'I' for Inactive)
REMARK    1  A    between atoms: N_1  and  C_14
REMARK    2  A    between atoms: N_2  and  C_22
REMARK    3  A    between atoms: C_25  and  O_28
REMARK    4  A    between atoms: C_26  and  O_30
REMARK    5  A    between atoms: C_27  and  O_32
REMARK                            x       y       z     vdW  Elec       q    Type
REMARK                         _______ _______ _______ _____ _____    ______ ____
ROOT
ATOM      1  N   UNL     1      36.380 -18.088 -21.518  0.00  0.00    -0.260 N 
ATOM      2  N   UNL     1      36.809 -20.713 -17.608  0.00  0.00    -0.247 N 
ATOM      3  N   UNL     1      36.617 -19.405 -19.546  0.00  0.00    -0.322 NA
ATOM      4  N   UNL     1      34.727 -20.630 -18.688  0.00  0.00    -0.170 NA
ATOM      5  C   UNL     1      35.826 -18.958 -20.544  0.00  0.00    +0.201 C 
ATOM      6  C   UNL     1      37.841 -18.028 -21.631  0.00  0.00    +0.120 C 
ATOM      7  C   UNL     1      34.496 -19.298 -20.679  0.00  0.00    +0.070 C 
ATOM      8  C   UNL     1      36.012 -20.225 -18.667  0.00  0.00    +0.150 C 
ATOM      9  C   UNL     1      33.995 -20.146 -19.713  0.00  0.00    +0.116 C 
ATOM     10  H   UNL     1      37.740 -20.391 -17.632  0.00  0.00    +0.165 HD
ENDROOT
BRANCH   1  14
ATOM     11  N   UNL     1      33.424 -15.015 -25.415  0.00  0.00    -0.280 N 
ATOM     12  N   UNL     1      33.898 -16.274 -25.339  0.00  0.00    -0.173 NA
ATOM     13  C   UNL     1      34.378 -15.063 -23.479  0.00  0.00    +0.032 A 
ATOM     14  C   UNL     1      35.681 -17.082 -22.237  0.00  0.00    +0.055 C 
ATOM     15  C   UNL     1      34.501 -16.340 -24.140  0.00  0.00    +0.103 A 
ATOM     16  C   UNL     1      33.685 -14.241 -24.322  0.00  0.00    +0.053 A 
ATOM     17  C   UNL     1      35.174 -17.406 -23.514  0.00  0.00    +0.036 C 
ATOM     18  C   UNL     1      34.863 -14.713 -22.225  0.00  0.00    +0.004 C 
ATOM     19  C   UNL     1      35.530 -15.798 -21.624  0.00  0.00    +0.015 C 
ATOM     20  C   UNL     1      33.242 -12.840 -24.235  0.00  0.00    +0.051 C 
ATOM     21  H   UNL     1      32.928 -14.680 -26.197  0.00  0.00    +0.189 HD
ENDBRANCH   1  14
BRANCH   2  22
ATOM     22  C   UNL     1      36.535 -21.570 -16.525  0.00  0.00    +0.064 C 
ATOM     23  C   UNL     1      37.565 -21.971 -15.676  0.00  0.00    +0.055 C 
ATOM     24  C   UNL     1      35.232 -22.015 -16.301  0.00  0.00    +0.055 C 
ATOM     25  C   UNL     1      34.960 -22.861 -15.226  0.00  0.00    +0.177 C 
ATOM     26  C   UNL     1      37.293 -22.818 -14.601  0.00  0.00    +0.177 C 
ATOM     27  C   UNL     1      35.990 -23.262 -14.376  0.00  0.00    +0.206 C 
BRANCH  25  28
ATOM     28  O   UNL     1      33.683 -23.288 -15.017  0.00  0.00    -0.468 OA
ATOM     29  C   UNL     1      32.670 -22.737 -15.856  0.00  0.00    +0.253 C 
ENDBRANCH  25  28
BRANCH  26  30
ATOM     30  O   UNL     1      38.309 -23.203 -13.779  0.00  0.00    -0.468 OA
ATOM     31  C   UNL     1      39.061 -24.348 -14.171  0.00  0.00    +0.253 C 
ENDBRANCH  26  30
BRANCH  27  32
ATOM     32  O   UNL     1      35.724 -24.091 -13.326  0.00  0.00    -0.465 OA
ATOM     33  C   UNL     1      35.396 -23.476 -12.083  0.00  0.00    +0.253 C 
ENDBRANCH  27  32
ENDBRANCH   2  22
TORSDOF 5
ENDMDL
MODEL 3
REMARK VINA RESULT:     -11.7      0.958      2.661
REMARK  Name = 24941243
REMARK  5 active torsions:
REMARK  status: ('A' for Active; 'I' for Inactive)
REMARK    1  A    between atoms: N_1  and  C_14
REMARK    2  A    between atoms: N_2  and  C_22
REMARK    3  A    between atoms: C_25  and  O_28
REMARK    4  A    between atoms: C_26  and  O_30
REMARK    5  A    between atoms: C_27  and  O_32
REMARK                            x       y       z     vdW  Elec       q    Type
REMARK                         _______ _______ _______ _____ _____    ______ ____
ROOT
ATOM      1  N   UNL     1      36.457 -18.049 -21.379  0.00  0.00    -0.260 N 
ATOM      2  N   UNL     1      36.877 -20.784 -17.544  0.00  0.00    -0.247 N 
ATOM      3  N   UNL     1      36.690 -19.422 -19.445  0.00  0.00    -0.322 NA
ATOM      4  N   UNL     1      34.777 -20.602 -18.576  0.00  0.00    -0.170 NA
ATOM      5  C   UNL     1      35.894 -18.923 -20.414  0.00  0.00    +0.201 C 
ATOM      6  C   UNL     1      37.917 -18.037 -21.524  0.00  0.00    +0.120 C 
ATOM      7  C   UNL     1      34.550 -19.212 -20.529  0.00  0.00    +0.070 C 
ATOM      8  C   UNL     1      36.075 -20.242 -18.573  0.00  0.00    +0.150 C 
ATOM      9  C   UNL     1      34.041 -20.066 -19.572  0.00  0.00    +0.116 C 
ATOM     10  H   UNL     1      37.818 -20.494 -17.582  0.00  0.00    +0.165 HD
ENDROOT
BRANCH   1  14
ATOM     11  N   UNL     1      33.862 -13.119 -22.907  0.00  0.00    -0.280 N 
ATOM     12  N   UNL     1      34.459 -13.589 -21.794  0.00  0.00    -0.173 NA
ATOM     13  C   UNL     1      34.477 -15.106 -23.484  0.00  0.00    +0.032 A 
ATOM     14  C   UNL     1      35.779 -17.002 -22.058  0.00  0.00    +0.055 C 
ATOM     15  C   UNL     1      34.857 -14.831 -22.119  0.00  0.00    +0.103 A 
ATOM     16  C   UNL     1      33.843 -13.992 -23.956  0.00  0.00    +0.053 A 
ATOM     17  C   UNL     1      35.535 -15.800 -21.356  0.00  0.00    +0.036 C 
ATOM     18  C   UNL     1      34.702 -16.275 -24.201  0.00  0.00    +0.004 C 
ATOM     19  C   UNL     1      35.382 -17.225 -23.414  0.00  0.00    +0.015 C 
ATOM     20  C   UNL     1      33.230 -13.645 -25.248  0.00  0.00    +0.051 C 
ATOM     21  H   UNL     1      33.470 -12.218 -22.959  0.00  0.00    +0.189 HD
ENDBRANCH   1  14
BRANCH   2  22
ATOM     22  C   UNL     1      36.596 -21.657 -16.477  0.00  0.00    +0.064 C 
ATOM     23  C   UNL     1      37.619 -22.064 -15.622  0.00  0.00    +0.055 C 
ATOM     24  C   UNL     1      35.293 -22.113 -16.273  0.00  0.00    +0.055 C 
ATOM     25  C   UNL     1      35.015 -22.975 -15.214  0.00  0.00    +0.177 C 
ATOM     26  C   UNL     1      37.340 -22.928 -14.562  0.00  0.00    +0.177 C 
ATOM     27  C   UNL     1      36.038 -23.383 -14.358  0.00  0.00    +0.206 C 
BRANCH  25  28
ATOM     28  O   UNL     1      33.738 -23.413 -15.025  0.00  0.00    -0.468 OA
ATOM     29  C   UNL     1      32.717 -22.782 -15.794  0.00  0.00    +0.253 C 
ENDBRANCH  25  28
BRANCH  26  30
ATOM     30  O   UNL     1      38.350 -23.318 -13.734  0.00  0.00    -0.468 OA
ATOM     31  C   UNL     1      39.092 -24.473 -14.117  0.00  0.00    +0.253 C 
ENDBRANCH  26  30
BRANCH  27  32
ATOM     32  O   UNL     1      35.765 -24.228 -13.323  0.00  0.00    -0.465 OA
ATOM     33  C   UNL     1      35.413 -23.632 -12.077  0.00  0.00    +0.253 C 
ENDBRANCH  27  32
ENDBRANCH   2  22
TORSDOF 5
ENDMDL
MODEL 4
REMARK VINA RESULT:     -11.7      0.955      1.363
REMARK  Name = 24941243
REMARK  5 active torsions:
REMARK  status: ('A' for Active; 'I' for Inactive)
REMARK    1  A    between atoms: N_1  and  C_14
REMARK    2  A    between atoms: N_2  and  C_22
REMARK    3  A    between atoms: C_25  and  O_28
REMARK    4  A    between atoms: C_26  and  O_30
REMARK    5  A    between atoms: C_27  and  O_32
REMARK                            x       y       z     vdW  Elec       q    Type
REMARK                         _______ _______ _______ _____ _____    ______ ____
ROOT
ATOM      1  N   UNL     1      36.458 -18.051 -21.379  0.00  0.00    -0.260 N 
ATOM      2  N   UNL     1      36.882 -20.781 -17.541  0.00  0.00    -0.247 N 
ATOM      3  N   UNL     1      36.693 -19.421 -19.444  0.00  0.00    -0.322 NA
ATOM      4  N   UNL     1      34.782 -20.604 -18.574  0.00  0.00    -0.170 NA
ATOM      5  C   UNL     1      35.897 -18.925 -20.414  0.00  0.00    +0.201 C 
ATOM      6  C   UNL     1      37.918 -18.036 -21.523  0.00  0.00    +0.120 C 
ATOM      7  C   UNL     1      34.553 -19.218 -20.528  0.00  0.00    +0.070 C 
ATOM      8  C   UNL     1      36.080 -20.242 -18.571  0.00  0.00    +0.150 C 
ATOM      9  C   UNL     1      34.045 -20.071 -19.571  0.00  0.00    +0.116 C 
ATOM     10  H   UNL     1      37.822 -20.489 -17.578  0.00  0.00    +0.165 HD
ENDROOT
BRANCH   1  14
ATOM     11  N   UNL     1      33.862 -13.125 -22.917  0.00  0.00    -0.280 N 
ATOM     12  N   UNL     1      34.463 -13.590 -21.806  0.00  0.00    -0.173 NA
ATOM     13  C   UNL     1      34.471 -15.116 -23.488  0.00  0.00    +0.032 A 
ATOM     14  C   UNL     1      35.778 -17.006 -22.059  0.00  0.00    +0.055 C 
ATOM     15  C   UNL     1      34.858 -14.835 -22.126  0.00  0.00    +0.103 A 
ATOM     16  C   UNL     1      33.837 -14.003 -23.962  0.00  0.00    +0.053 A 
ATOM     17  C   UNL     1      35.539 -15.801 -21.363  0.00  0.00    +0.036 C 
ATOM     18  C   UNL     1      34.691 -16.288 -24.201  0.00  0.00    +0.004 C 
ATOM     19  C   UNL     1      35.374 -17.235 -23.413  0.00  0.00    +0.015 C 
ATOM     20  C   UNL     1      33.218 -13.661 -25.253  0.00  0.00    +0.051 C 
ATOM     21  H   UNL     1      33.471 -12.223 -22.972  0.00  0.00    +0.189 HD
ENDBRANCH   1  14
BRANCH   2  22
ATOM     22  C   UNL     1      36.603 -21.653 -16.473  0.00  0.00    +0.064 C 
ATOM     23  C   UNL     1      35.302 -22.112 -16.271  0.00  0.00    +0.055 C 
ATOM     24  C   UNL     1      37.628 -22.061 -15.618  0.00  0.00    +0.055 C 
ATOM     25  C   UNL     1      37.350 -22.927 -14.562  0.00  0.00    +0.177 C 
ATOM     26  C   UNL     1      35.025 -22.979 -15.213  0.00  0.00    +0.177 C 
ATOM     27  C   UNL     1      36.049 -23.387 -14.359  0.00  0.00    +0.206 C 
BRANCH  25  28
ATOM     28  O   UNL     1      38.360 -23.318 -13.734  0.00  0.00    -0.468 OA
ATOM     29  C   UNL     1      39.144 -24.434 -14.151  0.00  0.00    +0.253 C 
ENDBRANCH  25  28
BRANCH  26  30
ATOM     30  O   UNL     1      33.749 -23.420 -15.026  0.00  0.00    -0.468 OA
ATOM     31  C   UNL     1      32.726 -22.785 -15.790  0.00  0.00    +0.253 C 
ENDBRANCH  26  30
BRANCH  27  32
ATOM     32  O   UNL     1      35.778 -24.233 -13.325  0.00  0.00    -0.465 OA
ATOM     33  C   UNL     1      35.431 -23.639 -12.076  0.00  0.00    +0.253 C 
ENDBRANCH  27  32
ENDBRANCH   2  22
TORSDOF 5
ENDMDL
MODEL 5
REMARK VINA RESULT:     -11.4      5.914     11.570
REMARK  Name = 24941243
REMARK  5 active torsions:
REMARK  status: ('A' for Active; 'I' for Inactive)
REMARK    1  A    between atoms: N_1  and  C_14
REMARK    2  A    between atoms: N_2  and  C_22
REMARK    3  A    between atoms: C_25  and  O_28
REMARK    4  A    between atoms: C_26  and  O_30
REMARK    5  A    between atoms: C_27  and  O_32
REMARK                            x       y       z     vdW  Elec       q    Type
REMARK                         _______ _______ _______ _____ _____    ______ ____
ROOT
ATOM      1  N   UNL     1      35.391 -17.440 -21.605  0.00  0.00    -0.260 N 
ATOM      2  N   UNL     1      34.181 -13.106 -23.060  0.00  0.00    -0.247 N 
ATOM      3  N   UNL     1      34.779 -15.264 -22.359  0.00  0.00    -0.322 NA
ATOM      4  N   UNL     1      34.622 -13.449 -20.780  0.00  0.00    -0.170 NA
ATOM      5  C   UNL     1      35.125 -16.073 -21.336  0.00  0.00    +0.201 C 
ATOM      6  C   UNL     1      35.664 -17.824 -22.994  0.00  0.00    +0.120 C 
ATOM      7  C   UNL     1      35.238 -15.651 -20.027  0.00  0.00    +0.070 C 
ATOM      8  C   UNL     1      34.546 -13.984 -22.015  0.00  0.00    +0.150 C 
ATOM      9  C   UNL     1      34.972 -14.315 -19.806  0.00  0.00    +0.116 C 
ATOM     10  H   UNL     1      34.138 -13.540 -23.943  0.00  0.00    +0.165 HD
ENDROOT
BRANCH   1  14
ATOM     11  N   UNL     1      35.937 -21.713 -17.756  0.00  0.00    -0.280 N 
ATOM     12  N   UNL     1      36.767 -20.819 -18.327  0.00  0.00    -0.173 NA
ATOM     13  C   UNL     1      34.628 -20.592 -19.056  0.00  0.00    +0.032 A 
ATOM     14  C   UNL     1      35.183 -18.525 -20.712  0.00  0.00    +0.055 C 
ATOM     15  C   UNL     1      35.982 -20.099 -19.147  0.00  0.00    +0.103 A 
ATOM     16  C   UNL     1      34.636 -21.623 -18.160  0.00  0.00    +0.053 A 
ATOM     17  C   UNL     1      36.296 -19.025 -20.000  0.00  0.00    +0.036 C 
ATOM     18  C   UNL     1      33.514 -20.123 -19.741  0.00  0.00    +0.004 C 
ATOM     19  C   UNL     1      33.858 -19.050 -20.586  0.00  0.00    +0.015 C 
ATOM     20  C   UNL     1      33.594 -22.523 -17.640  0.00  0.00    +0.051 C 
ATOM     21  H   UNL     1      36.244 -22.380 -17.100  0.00  0.00    +0.189 HD
ENDBRANCH   1  14
BRANCH   2  22
ATOM     22  C   UNL     1      33.868 -11.735 -23.087  0.00  0.00    +0.064 C 
ATOM     23  C   UNL     1      34.549 -10.882 -23.955  0.00  0.00    +0.055 C 
ATOM     24  C   UNL     1      32.876 -11.229 -22.247  0.00  0.00    +0.055 C 
ATOM     25  C   UNL     1      32.564  -9.870 -22.277  0.00  0.00    +0.177 C 
ATOM     26  C   UNL     1      34.237  -9.522 -23.984  0.00  0.00    +0.177 C 
ATOM     27  C   UNL     1      33.244  -9.016 -23.145  0.00  0.00    +0.206 C 
BRANCH  25  28
ATOM     28  O   UNL     1      31.592  -9.389 -21.451  0.00  0.00    -0.468 OA
ATOM     29  C   UNL     1      31.898  -9.321 -20.061  0.00  0.00    +0.253 C 
ENDBRANCH  25  28
BRANCH  26  30
ATOM     30  O   UNL     1      34.910  -8.699 -24.837  0.00  0.00    -0.468 OA
ATOM     31  C   UNL     1      36.073  -9.230 -25.466  0.00  0.00    +0.253 C 
ENDBRANCH  26  30
BRANCH  27  32
ATOM     32  O   UNL     1      32.940  -7.688 -23.172  0.00  0.00    -0.465 OA
ATOM     33  C   UNL     1      33.616  -6.850 -22.237  0.00  0.00    +0.253 C 
ENDBRANCH  27  32
ENDBRANCH   2  22
TORSDOF 5
ENDMDL
MODEL 6
REMARK VINA RESULT:     -11.4      5.916     11.471
REMARK  Name = 24941243
REMARK  5 active torsions:
REMARK  status: ('A' for Active; 'I' for Inactive)
REMARK    1  A    between atoms: N_1  and  C_14
REMARK    2  A    between atoms: N_2  and  C_22
REMARK    3  A    between atoms: C_25  and  O_28
REMARK    4  A    between atoms: C_26  and  O_30
REMARK    5  A    between atoms: C_27  and  O_32
REMARK                            x       y       z     vdW  Elec       q    Type
REMARK                         _______ _______ _______ _____ _____    ______ ____
ROOT
ATOM      1  N   UNL     1      35.371 -17.438 -21.616  0.00  0.00    -0.260 N 
ATOM      2  N   UNL     1      34.165 -13.100 -23.061  0.00  0.00    -0.247 N 
ATOM      3  N   UNL     1      34.761 -15.259 -22.365  0.00  0.00    -0.322 NA
ATOM      4  N   UNL     1      34.616 -13.446 -20.783  0.00  0.00    -0.170 NA
ATOM      5  C   UNL     1      35.111 -16.071 -21.344  0.00  0.00    +0.201 C 
ATOM      6  C   UNL     1      35.637 -17.821 -23.007  0.00  0.00    +0.120 C 
ATOM      7  C   UNL     1      35.232 -15.650 -20.036  0.00  0.00    +0.070 C 
ATOM      8  C   UNL     1      34.533 -13.979 -22.018  0.00  0.00    +0.150 C 
ATOM      9  C   UNL     1      34.970 -14.314 -19.812  0.00  0.00    +0.116 C 
ATOM     10  H   UNL     1      34.116 -13.532 -23.944  0.00  0.00    +0.165 HD
ENDROOT
BRANCH   1  14
ATOM     11  N   UNL     1      35.928 -21.720 -17.779  0.00  0.00    -0.280 N 
ATOM     12  N   UNL     1      36.758 -20.828 -18.355  0.00  0.00    -0.173 NA
ATOM     13  C   UNL     1      34.615 -20.590 -19.067  0.00  0.00    +0.032 A 
ATOM     14  C   UNL     1      35.166 -18.524 -20.724  0.00  0.00    +0.055 C 
ATOM     15  C   UNL     1      35.970 -20.103 -19.167  0.00  0.00    +0.103 A 
ATOM     16  C   UNL     1      34.625 -21.623 -18.173  0.00  0.00    +0.053 A 
ATOM     17  C   UNL     1      36.282 -19.030 -20.021  0.00  0.00    +0.036 C 
ATOM     18  C   UNL     1      33.497 -20.115 -19.743  0.00  0.00    +0.004 C 
ATOM     19  C   UNL     1      33.840 -19.042 -20.588  0.00  0.00    +0.015 C 
ATOM     20  C   UNL     1      33.582 -22.519 -17.646  0.00  0.00    +0.051 C 
ATOM     21  H   UNL     1      36.237 -22.389 -17.127  0.00  0.00    +0.189 HD
ENDBRANCH   1  14
BRANCH   2  22
ATOM     22  C   UNL     1      33.855 -11.727 -23.084  0.00  0.00    +0.064 C 
ATOM     23  C   UNL     1      32.849 -11.226 -22.260  0.00  0.00    +0.055 C 
ATOM     24  C   UNL     1      34.557 -10.868 -23.931  0.00  0.00    +0.055 C 
ATOM     25  C   UNL     1      34.252  -9.508 -23.951  0.00  0.00    +0.177 C 
ATOM     26  C   UNL     1      32.544  -9.864 -22.282  0.00  0.00    +0.177 C 
ATOM     27  C   UNL     1      33.245  -9.005 -23.127  0.00  0.00    +0.206 C 
BRANCH  25  28
ATOM     28  O   UNL     1      34.945  -8.679 -24.782  0.00  0.00    -0.468 OA
ATOM     29  C   UNL     1      36.084  -9.227 -25.442  0.00  0.00    +0.253 C 
ENDBRANCH  25  28
BRANCH  26  30
ATOM     30  O   UNL     1      31.557  -9.387 -21.472  0.00  0.00    -0.468 OA
ATOM     31  C   UNL     1      31.838  -9.328 -20.075  0.00  0.00    +0.253 C 
ENDBRANCH  26  30
BRANCH  27  32
ATOM     32  O   UNL     1      32.946  -7.675 -23.149  0.00  0.00    -0.465 OA
ATOM     33  C   UNL     1      33.610  -6.847 -22.198  0.00  0.00    +0.253 C 
ENDBRANCH  27  32
ENDBRANCH   2  22
TORSDOF 5
ENDMDL
MODEL 7
REMARK VINA RESULT:     -11.3      1.008      2.489
REMARK  Name = 24941243
REMARK  5 active torsions:
REMARK  status: ('A' for Active; 'I' for Inactive)
REMARK    1  A    between atoms: N_1  and  C_14
REMARK    2  A    between atoms: N_2  and  C_22
REMARK    3  A    between atoms: C_25  and  O_28
REMARK    4  A    between atoms: C_26  and  O_30
REMARK    5  A    between atoms: C_27  and  O_32
REMARK                            x       y       z     vdW  Elec       q    Type
REMARK                         _______ _______ _______ _____ _____    ______ ____
ROOT
ATOM      1  N   UNL     1      36.042 -17.985 -21.638  0.00  0.00    -0.260 N 
ATOM      2  N   UNL     1      35.913 -20.839 -17.870  0.00  0.00    -0.247 N 
ATOM      3  N   UNL     1      35.998 -19.419 -19.736  0.00  0.00    -0.322 NA
ATOM      4  N   UNL     1      33.938 -20.492 -19.091  0.00  0.00    -0.170 NA
ATOM      5  C   UNL     1      35.334 -18.844 -20.760  0.00  0.00    +0.201 C 
ATOM      6  C   UNL     1      37.507 -18.066 -21.642  0.00  0.00    +0.120 C 
ATOM      7  C   UNL     1      33.992 -19.041 -21.012  0.00  0.00    +0.070 C 
ATOM      8  C   UNL     1      35.251 -20.219 -18.953  0.00  0.00    +0.150 C 
ATOM      9  C   UNL     1      33.338 -19.883 -20.135  0.00  0.00    +0.116 C 
ATOM     10  H   UNL     1      36.869 -20.611 -17.808  0.00  0.00    +0.165 HD
ENDROOT
BRANCH   1  14
ATOM     11  N   UNL     1      33.749 -14.421 -25.564  0.00  0.00    -0.280 N 
ATOM     12  N   UNL     1      34.113 -15.718 -25.537  0.00  0.00    -0.173 NA
ATOM     13  C   UNL     1      34.494 -14.677 -23.554  0.00  0.00    +0.032 A 
ATOM     14  C   UNL     1      35.501 -16.878 -22.345  0.00  0.00    +0.055 C 
ATOM     15  C   UNL     1      34.584 -15.914 -24.293  0.00  0.00    +0.103 A 
ATOM     16  C   UNL     1      33.957 -13.746 -24.397  0.00  0.00    +0.053 A 
ATOM     17  C   UNL     1      35.103 -17.072 -23.686  0.00  0.00    +0.036 C 
ATOM     18  C   UNL     1      34.875 -14.453 -22.237  0.00  0.00    +0.004 C 
ATOM     19  C   UNL     1      35.390 -15.629 -21.656  0.00  0.00    +0.015 C 
ATOM     20  C   UNL     1      33.619 -12.320 -24.250  0.00  0.00    +0.051 C 
ATOM     21  H   UNL     1      33.364 -13.995 -26.363  0.00  0.00    +0.189 HD
ENDBRANCH   1  14
BRANCH   2  22
ATOM     22  C   UNL     1      35.474 -21.719 -16.863  0.00  0.00    +0.064 C 
ATOM     23  C   UNL     1      36.364 -22.155 -15.883  0.00  0.00    +0.055 C 
ATOM     24  C   UNL     1      34.147 -22.152 -16.844  0.00  0.00    +0.055 C 
ATOM     25  C   UNL     1      33.713 -23.020 -15.844  0.00  0.00    +0.177 C 
ATOM     26  C   UNL     1      35.929 -23.025 -14.883  0.00  0.00    +0.177 C 
ATOM     27  C   UNL     1      34.603 -23.457 -14.863  0.00  0.00    +0.206 C 
BRANCH  25  28
ATOM     28  O   UNL     1      32.415 -23.435 -15.836  0.00  0.00    -0.468 OA
ATOM     29  C   UNL     1      31.428 -22.470 -15.479  0.00  0.00    +0.253 C 
ENDBRANCH  25  28
BRANCH  26  30
ATOM     30  O   UNL     1      36.810 -23.445 -13.932  0.00  0.00    -0.468 OA
ATOM     31  C   UNL     1      37.493 -22.436 -13.192  0.00  0.00    +0.253 C 
ENDBRANCH  26  30
BRANCH  27  32
ATOM     32  O   UNL     1      34.178 -24.308 -13.887  0.00  0.00    -0.465 OA
ATOM     33  C   UNL     1      33.671 -23.720 -12.691  0.00  0.00    +0.253 C 
ENDBRANCH  27  32
ENDBRANCH   2  22
TORSDOF 5
ENDMDL
MODEL 8
REMARK VINA RESULT:     -10.7      1.626      2.189
REMARK  Name = 24941243
REMARK  5 active torsions:
REMARK  status: ('A' for Active; 'I' for Inactive)
REMARK    1  A    between atoms: N_1  and  C_14
REMARK    2  A    between atoms: N_2  and  C_22
REMARK    3  A    between atoms: C_25  and  O_28
REMARK    4  A    between atoms: C_26  and  O_30
REMARK    5  A    between atoms: C_27  and  O_32
REMARK                            x       y       z     vdW  Elec       q    Type
REMARK                         _______ _______ _______ _____ _____    ______ ____
ROOT
ATOM      1  N   UNL     1      35.774 -18.736 -20.830  0.00  0.00    -0.260 N 
ATOM      2  N   UNL     1      34.889 -21.535 -17.123  0.00  0.00    -0.247 N 
ATOM      3  N   UNL     1      35.349 -20.145 -18.955  0.00  0.00    -0.322 NA
ATOM      4  N   UNL     1      33.121 -20.977 -18.562  0.00  0.00    -0.170 NA
ATOM      5  C   UNL     1      34.877 -19.505 -20.046  0.00  0.00    +0.201 C 
ATOM      6  C   UNL     1      37.211 -18.980 -20.664  0.00  0.00    +0.120 C 
ATOM      7  C   UNL     1      33.559 -19.553 -20.453  0.00  0.00    +0.070 C 
ATOM      8  C   UNL     1      34.431 -20.852 -18.271  0.00  0.00    +0.150 C 
ATOM      9  C   UNL     1      32.718 -20.312 -19.665  0.00  0.00    +0.116 C 
ATOM     10  H   UNL     1      35.851 -21.415 -16.948  0.00  0.00    +0.165 HD
ENDROOT
BRANCH   1  14
ATOM     11  N   UNL     1      34.388 -14.959 -24.975  0.00  0.00    -0.280 N 
ATOM     12  N   UNL     1      34.611 -16.286 -24.917  0.00  0.00    -0.173 NA
ATOM     13  C   UNL     1      34.835 -15.288 -22.889  0.00  0.00    +0.032 A 
ATOM     14  C   UNL     1      35.446 -17.580 -21.587  0.00  0.00    +0.055 C 
ATOM     15  C   UNL     1      34.893 -16.529 -23.625  0.00  0.00    +0.103 A 
ATOM     16  C   UNL     1      34.511 -14.307 -23.783  0.00  0.00    +0.053 A 
ATOM     17  C   UNL     1      35.208 -17.734 -22.970  0.00  0.00    +0.036 C 
ATOM     18  C   UNL     1      35.063 -15.104 -21.531  0.00  0.00    +0.004 C 
ATOM     19  C   UNL     1      35.375 -16.325 -20.903  0.00  0.00    +0.015 C 
ATOM     20  C   UNL     1      34.304 -12.854 -23.663  0.00  0.00    +0.051 C 
ATOM     21  H   UNL     1      34.156 -14.496 -25.812  0.00  0.00    +0.189 HD
ENDBRANCH   1  14
BRANCH   2  22
ATOM     22  C   UNL     1      34.241 -22.354 -16.180  0.00  0.00    +0.064 C 
ATOM     23  C   UNL     1      32.886 -22.650 -16.328  0.00  0.00    +0.055 C 
ATOM     24  C   UNL     1      34.954 -22.872 -15.097  0.00  0.00    +0.055 C 
ATOM     25  C   UNL     1      34.312 -23.686 -14.166  0.00  0.00    +0.177 C 
ATOM     26  C   UNL     1      32.244 -23.464 -15.394  0.00  0.00    +0.177 C 
ATOM     27  C   UNL     1      32.957 -23.982 -14.313  0.00  0.00    +0.206 C 
BRANCH  25  28
ATOM     28  O   UNL     1      35.020 -24.186 -13.114  0.00  0.00    -0.468 OA
ATOM     29  C   UNL     1      35.904 -23.290 -12.444  0.00  0.00    +0.253 C 
ENDBRANCH  25  28
BRANCH  26  30
ATOM     30  O   UNL     1      30.920 -23.745 -15.550  0.00  0.00    -0.468 OA
ATOM     31  C   UNL     1      30.049 -22.644 -15.798  0.00  0.00    +0.253 C 
ENDBRANCH  26  30
BRANCH  27  32
ATOM     32  O   UNL     1      32.329 -24.777 -13.400  0.00  0.00    -0.465 OA
ATOM     33  C   UNL     1      31.271 -24.187 -12.648  0.00  0.00    +0.253 C 
ENDBRANCH  27  32
ENDBRANCH   2  22
TORSDOF 5
ENDMDL
MODEL 9
REMARK VINA RESULT:     -10.7      4.245     10.564
REMARK  Name = 24941243
REMARK  5 active torsions:
REMARK  status: ('A' for Active; 'I' for Inactive)
REMARK    1  A    between atoms: N_1  and  C_14
REMARK    2  A    between atoms: N_2  and  C_22
REMARK    3  A    between atoms: C_25  and  O_28
REMARK    4  A    between atoms: C_26  and  O_30
REMARK    5  A    between atoms: C_27  and  O_32
REMARK                            x       y       z     vdW  Elec       q    Type
REMARK                         _______ _______ _______ _____ _____    ______ ____
ROOT
ATOM      1  N   UNL     1      34.785 -22.169 -16.874  0.00  0.00    -0.260 N 
ATOM      2  N   UNL     1      34.177 -19.232 -20.530  0.00  0.00    -0.247 N 
ATOM      3  N   UNL     1      34.457 -20.692 -18.715  0.00  0.00    -0.322 NA
ATOM      4  N   UNL     1      36.354 -19.620 -19.744  0.00  0.00    -0.170 NA
ATOM      5  C   UNL     1      35.309 -21.295 -17.860  0.00  0.00    +0.201 C 
ATOM      6  C   UNL     1      33.424 -22.682 -17.067  0.00  0.00    +0.120 C 
ATOM      7  C   UNL     1      36.677 -21.113 -17.884  0.00  0.00    +0.070 C 
ATOM      8  C   UNL     1      35.038 -19.881 -19.618  0.00  0.00    +0.150 C 
ATOM      9  C   UNL     1      37.148 -20.256 -18.857  0.00  0.00    +0.116 C 
ATOM     10  H   UNL     1      33.226 -19.452 -20.401  0.00  0.00    +0.165 HD
ENDROOT
BRANCH   1  14
ATOM     11  N   UNL     1      35.714 -23.501 -11.330  0.00  0.00    -0.280 N 
ATOM     12  N   UNL     1      34.645 -23.478 -12.149  0.00  0.00    -0.173 NA
ATOM     13  C   UNL     1      36.549 -22.835 -13.206  0.00  0.00    +0.032 A 
ATOM     14  C   UNL     1      35.341 -22.414 -15.590  0.00  0.00    +0.055 C 
ATOM     15  C   UNL     1      35.130 -23.066 -13.333  0.00  0.00    +0.103 A 
ATOM     16  C   UNL     1      36.887 -23.121 -11.914  0.00  0.00    +0.053 A 
ATOM     17  C   UNL     1      34.479 -22.855 -14.563  0.00  0.00    +0.036 C 
ATOM     18  C   UNL     1      37.423 -22.402 -14.195  0.00  0.00    +0.004 C 
ATOM     19  C   UNL     1      36.745 -22.200 -15.413  0.00  0.00    +0.015 C 
ATOM     20  C   UNL     1      38.155 -23.085 -11.166  0.00  0.00    +0.051 C 
ATOM     21  H   UNL     1      35.654 -23.769 -10.385  0.00  0.00    +0.189 HD
ENDBRANCH   1  14
BRANCH   2  22
ATOM     22  C   UNL     1      34.412 -18.335 -21.588  0.00  0.00    +0.064 C 
ATOM     23  C   UNL     1      34.074 -18.692 -22.893  0.00  0.00    +0.055 C 
ATOM     24  C   UNL     1      34.980 -17.086 -21.332  0.00  0.00    +0.055 C 
ATOM     25  C   UNL     1      35.209 -16.196 -22.380  0.00  0.00    +0.177 C 
ATOM     26  C   UNL     1      34.304 -17.801 -23.942  0.00  0.00    +0.177 C 
ATOM     27  C   UNL     1      34.871 -16.553 -23.685  0.00  0.00    +0.206 C 
BRANCH  25  28
ATOM     28  O   UNL     1      35.764 -14.980 -22.116  0.00  0.00    -0.468 OA
ATOM     29  C   UNL     1      34.910 -13.986 -21.555  0.00  0.00    +0.253 C 
ENDBRANCH  25  28
BRANCH  26  30
ATOM     30  O   UNL     1      33.969 -18.163 -25.212  0.00  0.00    -0.468 OA
ATOM     31  C   UNL     1      32.579 -18.262 -25.513  0.00  0.00    +0.253 C 
ENDBRANCH  26  30
BRANCH  27  32
ATOM     32  O   UNL     1      35.097 -15.683 -24.710  0.00  0.00    -0.465 OA
ATOM     33  C   UNL     1      34.018 -14.830 -25.086  0.00  0.00    +0.253 C 
ENDBRANCH  27  32
ENDBRANCH   2  22
TORSDOF 5
ENDMDL
