MODEL 1
REMARK VINA RESULT:     -12.3      0.000      0.000
REMARK  Name = 23635314
REMARK  9 active torsions:
REMARK  status: ('A' for Active; 'I' for Inactive)
REMARK    1  A    between atoms: C_2  and  C_8
REMARK    2  A    between atoms: C_3  and  C_23
REMARK    3  A    between atoms: C_7  and  O_13
REMARK    4  A    between atoms: O_13  and  C_14
REMARK    5  A    between atoms: C_14  and  C_15
REMARK    6  A    between atoms: C_15  and  N_17
REMARK    7  A    between atoms: C_23  and  C_26
REMARK    8  A    between atoms: N_25  and  C_28
REMARK    9  A    between atoms: C_28  and  C_29
REMARK                            x       y       z     vdW  Elec       q    Type
REMARK                         _______ _______ _______ _____ _____    ______ ____
ROOT
ATOM      1  N   UNL     1      35.640 -16.269 -22.395  0.00  0.00    -0.248 NA
ATOM      2  C   UNL     1      35.176 -18.454 -21.475  0.00  0.00    +0.019 C 
ATOM      3  C   UNL     1      35.022 -16.668 -23.529  0.00  0.00    +0.068 C 
ATOM      4  C   UNL     1      34.549 -18.829 -22.657  0.00  0.00    +0.003 C 
ATOM      5  C   UNL     1      35.701 -17.175 -21.394  0.00  0.00    +0.098 C 
ATOM      6  C   UNL     1      34.467 -17.924 -23.709  0.00  0.00    +0.015 C 
ENDROOT
BRANCH   2   8
ATOM      7  C   UNL     1      35.473 -21.138 -18.223  0.00  0.00    +0.138 C 
ATOM      8  C   UNL     1      35.278 -19.372 -20.362  0.00  0.00    +0.002 C 
ATOM      9  C   UNL     1      36.625 -20.565 -18.751  0.00  0.00    +0.037 C 
ATOM     10  C   UNL     1      34.224 -20.837 -18.756  0.00  0.00    +0.037 C 
ATOM     11  C   UNL     1      36.527 -19.679 -19.823  0.00  0.00    +0.003 C 
ATOM     12  C   UNL     1      34.127 -19.951 -19.829  0.00  0.00    +0.003 C 
BRANCH   7  13
ATOM     13  O   UNL     1      35.569 -22.009 -17.170  0.00  0.00    -0.478 OA
BRANCH  13  14
ATOM     14  C   UNL     1      36.541 -21.707 -16.176  0.00  0.00    +0.183 C 
BRANCH  14  15
ATOM     15  C   UNL     1      36.130 -22.374 -14.873  0.00  0.00    -0.029 C 
BRANCH  15  17
ATOM     16  O   UNL     1      37.876 -25.657 -12.927  0.00  0.00    -0.358 OA
ATOM     17  N   UNL     1      37.042 -23.466 -14.542  0.00  0.00    +0.393 N 
ATOM     18  C   UNL     1      37.645 -23.259 -13.218  0.00  0.00    -0.044 C 
ATOM     19  C   UNL     1      36.345 -24.759 -14.581  0.00  0.00    -0.044 C 
ATOM     20  C   UNL     1      38.584 -24.417 -12.890  0.00  0.00    +0.119 C 
ATOM     21  C   UNL     1      37.313 -25.881 -14.221  0.00  0.00    +0.119 C 
ATOM     22  H   UNL     1      37.785 -23.475 -15.240  0.00  0.00    -0.079 HD
ENDBRANCH  15  17
ENDBRANCH  14  15
ENDBRANCH  13  14
ENDBRANCH   7  13
ENDBRANCH   2   8
BRANCH   3  23
ATOM     23  C   UNL     1      34.953 -15.672 -24.639  0.00  0.00    +0.131 C 
BRANCH  23  26
ATOM     24  O   UNL     1      33.072 -14.154 -24.800  0.00  0.00    -0.275 OA
ATOM     25  N   UNL     1      34.809 -13.637 -23.349  0.00  0.00    -0.300 N 
ATOM     26  C   UNL     1      34.158 -14.421 -24.291  0.00  0.00    +0.229 C 
ATOM     27  H   UNL     1      35.679 -13.941 -23.001  0.00  0.00    +0.150 HD
BRANCH  25  28
ATOM     28  C   UNL     1      34.260 -12.395 -22.857  0.00  0.00    +0.116 C 
BRANCH  28  29
ATOM     29  C   UNL     1      33.461 -12.593 -21.601  0.00  0.00    -0.003 C 
ATOM     30  C   UNL     1      32.497 -11.658 -21.245  0.00  0.00    -0.003 C 
ATOM     31  C   UNL     1      33.694 -13.710 -20.807  0.00  0.00    -0.003 C 
ATOM     32  C   UNL     1      31.755 -11.841 -20.079  0.00  0.00    -0.000 C 
ATOM     33  C   UNL     1      32.952 -13.894 -19.640  0.00  0.00    -0.000 C 
ATOM     34  C   UNL     1      31.982 -12.958 -19.276  0.00  0.00    -0.000 C 
ENDBRANCH  28  29
ENDBRANCH  25  28
ENDBRANCH  23  26
ENDBRANCH   3  23
TORSDOF 9
ENDMDL
MODEL 2
REMARK VINA RESULT:     -12.2      0.958      1.730
REMARK  Name = 23635314
REMARK  9 active torsions:
REMARK  status: ('A' for Active; 'I' for Inactive)
REMARK    1  A    between atoms: C_2  and  C_8
REMARK    2  A    between atoms: C_3  and  C_23
REMARK    3  A    between atoms: C_7  and  O_13
REMARK    4  A    between atoms: O_13  and  C_14
REMARK    5  A    between atoms: C_14  and  C_15
REMARK    6  A    between atoms: C_15  and  N_17
REMARK    7  A    between atoms: C_23  and  C_26
REMARK    8  A    between atoms: N_25  and  C_28
REMARK    9  A    between atoms: C_28  and  C_29
REMARK                            x       y       z     vdW  Elec       q    Type
REMARK                         _______ _______ _______ _____ _____    ______ ____
ROOT
ATOM      1  N   UNL     1      35.538 -16.288 -21.492  0.00  0.00    -0.248 NA
ATOM      2  C   UNL     1      35.005 -18.581 -20.952  0.00  0.00    +0.019 C 
ATOM      3  C   UNL     1      35.291 -16.586 -22.787  0.00  0.00    +0.068 C 
ATOM      4  C   UNL     1      34.761 -18.851 -22.293  0.00  0.00    +0.003 C 
ATOM      5  C   UNL     1      35.387 -17.296 -20.604  0.00  0.00    +0.098 C 
ATOM      6  C   UNL     1      34.905 -17.839 -23.235  0.00  0.00    +0.015 C 
ENDROOT
BRANCH   2   8
ATOM      7  C   UNL     1      34.593 -21.594 -18.016  0.00  0.00    +0.138 C 
ATOM      8  C   UNL     1      34.864 -19.612 -19.947  0.00  0.00    +0.002 C 
ATOM      9  C   UNL     1      33.462 -21.081 -18.639  0.00  0.00    +0.037 C 
ATOM     10  C   UNL     1      35.860 -21.125 -18.348  0.00  0.00    +0.037 C 
ATOM     11  C   UNL     1      33.597 -20.088 -19.608  0.00  0.00    +0.003 C 
ATOM     12  C   UNL     1      35.995 -20.131 -19.317  0.00  0.00    +0.003 C 
BRANCH   7  13
ATOM     13  O   UNL     1      34.460 -22.571 -17.063  0.00  0.00    -0.478 OA
BRANCH  13  14
ATOM     14  C   UNL     1      35.241 -22.426 -15.884  0.00  0.00    +0.183 C 
BRANCH  14  15
ATOM     15  C   UNL     1      34.882 -23.544 -14.919  0.00  0.00    -0.029 C 
BRANCH  15  17
ATOM     16  O   UNL     1      38.681 -25.248 -14.395  0.00  0.00    -0.358 OA
ATOM     17  N   UNL     1      36.082 -24.091 -14.292  0.00  0.00    +0.393 N 
ATOM     18  C   UNL     1      36.285 -25.493 -14.685  0.00  0.00    -0.044 C 
ATOM     19  C   UNL     1      37.266 -23.294 -14.644  0.00  0.00    -0.044 C 
ATOM     20  C   UNL     1      37.549 -26.037 -14.027  0.00  0.00    +0.119 C 
ATOM     21  C   UNL     1      38.507 -23.890 -13.988  0.00  0.00    +0.119 C 
ATOM     22  H   UNL     1      35.952 -24.052 -13.281  0.00  0.00    -0.079 HD
ENDBRANCH  15  17
ENDBRANCH  14  15
ENDBRANCH  13  14
ENDBRANCH   7  13
ENDBRANCH   2   8
BRANCH   3  23
ATOM     23  C   UNL     1      35.457 -15.476 -23.772  0.00  0.00    +0.131 C 
BRANCH  23  26
ATOM     24  O   UNL     1      33.335 -14.850 -24.758  0.00  0.00    -0.275 OA
ATOM     25  N   UNL     1      34.211 -13.538 -23.055  0.00  0.00    -0.300 N 
ATOM     26  C   UNL     1      34.215 -14.611 -23.935  0.00  0.00    +0.229 C 
ATOM     27  H   UNL     1      34.966 -13.435 -22.432  0.00  0.00    +0.150 HD
BRANCH  25  28
ATOM     28  C   UNL     1      33.141 -12.568 -23.016  0.00  0.00    +0.116 C 
BRANCH  28  29
ATOM     29  C   UNL     1      32.669 -12.309 -21.615  0.00  0.00    -0.003 C 
ATOM     30  C   UNL     1      32.797 -13.303 -20.652  0.00  0.00    -0.003 C 
ATOM     31  C   UNL     1      32.109 -11.078 -21.294  0.00  0.00    -0.003 C 
ATOM     32  C   UNL     1      32.359 -13.063 -19.350  0.00  0.00    -0.000 C 
ATOM     33  C   UNL     1      31.671 -10.838 -19.992  0.00  0.00    -0.000 C 
ATOM     34  C   UNL     1      31.795 -11.832 -19.020  0.00  0.00    -0.000 C 
ENDBRANCH  28  29
ENDBRANCH  25  28
ENDBRANCH  23  26
ENDBRANCH   3  23
TORSDOF 9
ENDMDL
MODEL 3
REMARK VINA RESULT:     -12.1      2.448      3.127
REMARK  Name = 23635314
REMARK  9 active torsions:
REMARK  status: ('A' for Active; 'I' for Inactive)
REMARK    1  A    between atoms: C_2  and  C_8
REMARK    2  A    between atoms: C_3  and  C_23
REMARK    3  A    between atoms: C_7  and  O_13
REMARK    4  A    between atoms: O_13  and  C_14
REMARK    5  A    between atoms: C_14  and  C_15
REMARK    6  A    between atoms: C_15  and  N_17
REMARK    7  A    between atoms: C_23  and  C_26
REMARK    8  A    between atoms: N_25  and  C_28
REMARK    9  A    between atoms: C_28  and  C_29
REMARK                            x       y       z     vdW  Elec       q    Type
REMARK                         _______ _______ _______ _____ _____    ______ ____
ROOT
ATOM      1  N   UNL     1      35.466 -16.116 -22.130  0.00  0.00    -0.248 NA
ATOM      2  C   UNL     1      34.982 -18.379 -21.436  0.00  0.00    +0.019 C 
ATOM      3  C   UNL     1      35.083 -16.468 -23.378  0.00  0.00    +0.068 C 
ATOM      4  C   UNL     1      34.597 -18.704 -22.731  0.00  0.00    +0.003 C 
ATOM      5  C   UNL     1      35.404 -17.084 -21.188  0.00  0.00    +0.098 C 
ATOM      6  C   UNL     1      34.646 -17.736 -23.727  0.00  0.00    +0.015 C 
ENDROOT
BRANCH   2   8
ATOM      7  C   UNL     1      34.866 -21.258 -18.344  0.00  0.00    +0.138 C 
ATOM      8  C   UNL     1      34.942 -19.364 -20.378  0.00  0.00    +0.002 C 
ATOM      9  C   UNL     1      33.678 -20.789 -18.892  0.00  0.00    +0.037 C 
ATOM     10  C   UNL     1      36.093 -20.789 -18.803  0.00  0.00    +0.037 C 
ATOM     11  C   UNL     1      33.716 -19.839 -19.912  0.00  0.00    +0.003 C 
ATOM     12  C   UNL     1      36.130 -19.840 -19.823  0.00  0.00    +0.003 C 
BRANCH   7  13
ATOM     13  O   UNL     1      34.829 -22.191 -17.340  0.00  0.00    -0.478 OA
BRANCH  13  14
ATOM     14  C   UNL     1      33.561 -22.447 -16.750  0.00  0.00    +0.183 C 
BRANCH  14  15
ATOM     15  C   UNL     1      33.767 -22.808 -15.288  0.00  0.00    -0.029 C 
BRANCH  15  17
ATOM     16  O   UNL     1      30.023 -24.119 -13.916  0.00  0.00    -0.358 OA
ATOM     17  N   UNL     1      32.487 -22.860 -14.584  0.00  0.00    +0.393 N 
ATOM     18  C   UNL     1      31.369 -22.915 -15.536  0.00  0.00    -0.044 C 
ATOM     19  C   UNL     1      32.435 -24.018 -13.680  0.00  0.00    -0.044 C 
ATOM     20  C   UNL     1      30.046 -22.981 -14.779  0.00  0.00    +0.119 C 
ATOM     21  C   UNL     1      31.088 -24.058 -12.966  0.00  0.00    +0.119 C 
ATOM     22  H   UNL     1      32.401 -22.009 -14.030  0.00  0.00    -0.079 HD
ENDBRANCH  15  17
ENDBRANCH  14  15
ENDBRANCH  13  14
ENDBRANCH   7  13
ENDBRANCH   2   8
BRANCH   3  23
ATOM     23  C   UNL     1      35.149 -15.404 -24.422  0.00  0.00    +0.131 C 
BRANCH  23  26
ATOM     24  O   UNL     1      33.048 -14.261 -24.802  0.00  0.00    -0.275 OA
ATOM     25  N   UNL     1      34.585 -13.324 -23.336  0.00  0.00    -0.300 N 
ATOM     26  C   UNL     1      34.133 -14.288 -24.226  0.00  0.00    +0.229 C 
ATOM     27  H   UNL     1      35.473 -13.439 -22.926  0.00  0.00    +0.150 HD
BRANCH  25  28
ATOM     28  C   UNL     1      33.804 -12.161 -22.985  0.00  0.00    +0.116 C 
BRANCH  28  29
ATOM     29  C   UNL     1      33.127 -12.321 -21.655  0.00  0.00    -0.003 C 
ATOM     30  C   UNL     1      32.253 -11.337 -21.206  0.00  0.00    -0.003 C 
ATOM     31  C   UNL     1      33.379 -13.451 -20.885  0.00  0.00    -0.003 C 
ATOM     32  C   UNL     1      31.623 -11.485 -19.971  0.00  0.00    -0.000 C 
ATOM     33  C   UNL     1      32.749 -13.598 -19.650  0.00  0.00    -0.000 C 
ATOM     34  C   UNL     1      31.872 -12.615 -19.192  0.00  0.00    -0.000 C 
ENDBRANCH  28  29
ENDBRANCH  25  28
ENDBRANCH  23  26
ENDBRANCH   3  23
TORSDOF 9
ENDMDL
MODEL 4
REMARK VINA RESULT:     -11.8      2.187     11.751
REMARK  Name = 23635314
REMARK  9 active torsions:
REMARK  status: ('A' for Active; 'I' for Inactive)
REMARK    1  A    between atoms: C_2  and  C_8
REMARK    2  A    between atoms: C_3  and  C_23
REMARK    3  A    between atoms: C_7  and  O_13
REMARK    4  A    between atoms: O_13  and  C_14
REMARK    5  A    between atoms: C_14  and  C_15
REMARK    6  A    between atoms: C_15  and  N_17
REMARK    7  A    between atoms: C_23  and  C_26
REMARK    8  A    between atoms: N_25  and  C_28
REMARK    9  A    between atoms: C_28  and  C_29
REMARK                            x       y       z     vdW  Elec       q    Type
REMARK                         _______ _______ _______ _____ _____    ______ ____
ROOT
ATOM      1  N   UNL     1      35.003 -22.756 -15.468  0.00  0.00    -0.248 NA
ATOM      2  C   UNL     1      34.335 -21.645 -17.506  0.00  0.00    +0.019 C 
ATOM      3  C   UNL     1      33.708 -23.101 -15.289  0.00  0.00    +0.068 C 
ATOM      4  C   UNL     1      33.014 -22.016 -17.288  0.00  0.00    +0.003 C 
ATOM      5  C   UNL     1      35.284 -22.035 -16.576  0.00  0.00    +0.098 C 
ATOM      6  C   UNL     1      32.686 -22.759 -16.159  0.00  0.00    +0.015 C 
ENDROOT
BRANCH   2   8
ATOM      7  C   UNL     1      35.426 -19.386 -20.909  0.00  0.00    +0.138 C 
ATOM      8  C   UNL     1      34.709 -20.872 -18.670  0.00  0.00    +0.002 C 
ATOM      9  C   UNL     1      36.412 -19.994 -20.141  0.00  0.00    +0.037 C 
ATOM     10  C   UNL     1      34.083 -19.514 -20.568  0.00  0.00    +0.037 C 
ATOM     11  C   UNL     1      36.053 -20.739 -19.018  0.00  0.00    +0.003 C 
ATOM     12  C   UNL     1      33.724 -20.259 -19.445  0.00  0.00    +0.003 C 
BRANCH   7  13
ATOM     13  O   UNL     1      35.779 -18.653 -22.012  0.00  0.00    -0.478 OA
BRANCH  13  14
ATOM     14  C   UNL     1      34.948 -17.547 -22.339  0.00  0.00    +0.183 C 
BRANCH  14  15
ATOM     15  C   UNL     1      35.749 -16.267 -22.168  0.00  0.00    -0.029 C 
BRANCH  15  17
ATOM     16  O   UNL     1      33.300 -13.818 -24.539  0.00  0.00    -0.358 OA
ATOM     17  N   UNL     1      35.311 -15.252 -23.123  0.00  0.00    +0.393 N 
ATOM     18  C   UNL     1      34.565 -15.865 -24.232  0.00  0.00    -0.044 C 
ATOM     19  C   UNL     1      34.482 -14.234 -22.462  0.00  0.00    -0.044 C 
ATOM     20  C   UNL     1      34.110 -14.785 -25.209  0.00  0.00    +0.119 C 
ATOM     21  C   UNL     1      34.028 -13.193 -23.480  0.00  0.00    +0.119 C 
ATOM     22  H   UNL     1      36.143 -14.799 -23.502  0.00  0.00    -0.079 HD
ENDBRANCH  15  17
ENDBRANCH  14  15
ENDBRANCH  13  14
ENDBRANCH   7  13
ENDBRANCH   2   8
BRANCH   3  23
ATOM     23  C   UNL     1      33.391 -23.897 -14.066  0.00  0.00    +0.131 C 
BRANCH  23  26
ATOM     24  O   UNL     1      34.293 -23.150 -11.946  0.00  0.00    -0.275 OA
ATOM     25  N   UNL     1      35.595 -24.514 -13.300  0.00  0.00    -0.300 N 
ATOM     26  C   UNL     1      34.451 -23.797 -12.978  0.00  0.00    +0.229 C 
ATOM     27  H   UNL     1      35.622 -25.002 -14.155  0.00  0.00    +0.150 HD
BRANCH  25  28
ATOM     28  C   UNL     1      36.747 -24.573 -12.430  0.00  0.00    +0.116 C 
BRANCH  28  29
ATOM     29  C   UNL     1      38.035 -24.536 -13.201  0.00  0.00    -0.003 C 
ATOM     30  C   UNL     1      38.176 -23.648 -14.261  0.00  0.00    -0.003 C 
ATOM     31  C   UNL     1      39.072 -25.391 -12.848  0.00  0.00    -0.003 C 
ATOM     32  C   UNL     1      39.373 -23.613 -14.977  0.00  0.00    -0.000 C 
ATOM     33  C   UNL     1      40.269 -25.356 -13.564  0.00  0.00    -0.000 C 
ATOM     34  C   UNL     1      40.418 -24.468 -14.630  0.00  0.00    -0.000 C 
ENDBRANCH  28  29
ENDBRANCH  25  28
ENDBRANCH  23  26
ENDBRANCH   3  23
TORSDOF 9
ENDMDL
MODEL 5
REMARK VINA RESULT:     -11.7      2.693      3.711
REMARK  Name = 23635314
REMARK  9 active torsions:
REMARK  status: ('A' for Active; 'I' for Inactive)
REMARK    1  A    between atoms: C_2  and  C_8
REMARK    2  A    between atoms: C_3  and  C_23
REMARK    3  A    between atoms: C_7  and  O_13
REMARK    4  A    between atoms: O_13  and  C_14
REMARK    5  A    between atoms: C_14  and  C_15
REMARK    6  A    between atoms: C_15  and  N_17
REMARK    7  A    between atoms: C_23  and  C_26
REMARK    8  A    between atoms: N_25  and  C_28
REMARK    9  A    between atoms: C_28  and  C_29
REMARK                            x       y       z     vdW  Elec       q    Type
REMARK                         _______ _______ _______ _____ _____    ______ ____
ROOT
ATOM      1  N   UNL     1      35.473 -16.066 -21.773  0.00  0.00    -0.248 NA
ATOM      2  C   UNL     1      35.052 -18.373 -21.195  0.00  0.00    +0.019 C 
ATOM      3  C   UNL     1      35.130 -16.372 -23.045  0.00  0.00    +0.068 C 
ATOM      4  C   UNL     1      34.708 -18.651 -22.512  0.00  0.00    +0.003 C 
ATOM      5  C   UNL     1      35.424 -17.078 -20.878  0.00  0.00    +0.098 C 
ATOM      6  C   UNL     1      34.745 -17.636 -23.461  0.00  0.00    +0.015 C 
ENDROOT
BRANCH   2   8
ATOM      7  C   UNL     1      34.968 -21.395 -18.241  0.00  0.00    +0.138 C 
ATOM      8  C   UNL     1      35.023 -19.407 -20.184  0.00  0.00    +0.002 C 
ATOM      9  C   UNL     1      33.776 -20.929 -18.782  0.00  0.00    +0.037 C 
ATOM     10  C   UNL     1      36.189 -20.877 -18.661  0.00  0.00    +0.037 C 
ATOM     11  C   UNL     1      33.803 -19.932 -19.757  0.00  0.00    +0.003 C 
ATOM     12  C   UNL     1      36.215 -19.880 -19.636  0.00  0.00    +0.003 C 
BRANCH   7  13
ATOM     13  O   UNL     1      34.941 -22.374 -17.282  0.00  0.00    -0.478 OA
BRANCH  13  14
ATOM     14  C   UNL     1      33.685 -22.639 -16.672  0.00  0.00    +0.183 C 
BRANCH  14  15
ATOM     15  C   UNL     1      33.890 -22.785 -15.173  0.00  0.00    -0.029 C 
BRANCH  15  17
ATOM     16  O   UNL     1      30.010 -23.839 -13.968  0.00  0.00    -0.358 OA
ATOM     17  N   UNL     1      32.607 -22.789 -14.474  0.00  0.00    +0.393 N 
ATOM     18  C   UNL     1      31.498 -22.584 -15.417  0.00  0.00    -0.044 C 
ATOM     19  C   UNL     1      32.416 -24.046 -13.738  0.00  0.00    -0.044 C 
ATOM     20  C   UNL     1      30.170 -22.602 -14.665  0.00  0.00    +0.119 C 
ATOM     21  C   UNL     1      31.067 -24.031 -13.027  0.00  0.00    +0.119 C 
ATOM     22  H   UNL     1      32.613 -22.018 -13.807  0.00  0.00    -0.079 HD
ENDBRANCH  15  17
ENDBRANCH  14  15
ENDBRANCH  13  14
ENDBRANCH   7  13
ENDBRANCH   2   8
BRANCH   3  23
ATOM     23  C   UNL     1      35.183 -15.259 -24.038  0.00  0.00    +0.131 C 
BRANCH  23  26
ATOM     24  O   UNL     1      33.161 -14.148 -24.777  0.00  0.00    -0.275 OA
ATOM     25  N   UNL     1      34.087 -13.549 -22.734  0.00  0.00    -0.300 N 
ATOM     26  C   UNL     1      34.029 -14.274 -23.916  0.00  0.00    +0.229 C 
ATOM     27  H   UNL     1      34.826 -13.726 -22.107  0.00  0.00    +0.150 HD
BRANCH  25  28
ATOM     28  C   UNL     1      33.107 -12.547 -22.386  0.00  0.00    +0.116 C 
BRANCH  28  29
ATOM     29  C   UNL     1      33.506 -11.181 -22.864  0.00  0.00    -0.003 C 
ATOM     30  C   UNL     1      32.906 -10.057 -22.311  0.00  0.00    -0.003 C 
ATOM     31  C   UNL     1      34.473 -11.056 -23.855  0.00  0.00    -0.003 C 
ATOM     32  C   UNL     1      33.276  -8.787 -22.756  0.00  0.00    -0.000 C 
ATOM     33  C   UNL     1      34.844  -9.786 -24.300  0.00  0.00    -0.000 C 
ATOM     34  C   UNL     1      34.245  -8.652 -23.750  0.00  0.00    -0.000 C 
ENDBRANCH  28  29
ENDBRANCH  25  28
ENDBRANCH  23  26
ENDBRANCH   3  23
TORSDOF 9
ENDMDL
MODEL 6
REMARK VINA RESULT:     -11.7      3.300     11.198
REMARK  Name = 23635314
REMARK  9 active torsions:
REMARK  status: ('A' for Active; 'I' for Inactive)
REMARK    1  A    between atoms: C_2  and  C_8
REMARK    2  A    between atoms: C_3  and  C_23
REMARK    3  A    between atoms: C_7  and  O_13
REMARK    4  A    between atoms: O_13  and  C_14
REMARK    5  A    between atoms: C_14  and  C_15
REMARK    6  A    between atoms: C_15  and  N_17
REMARK    7  A    between atoms: C_23  and  C_26
REMARK    8  A    between atoms: N_25  and  C_28
REMARK    9  A    between atoms: C_28  and  C_29
REMARK                            x       y       z     vdW  Elec       q    Type
REMARK                         _______ _______ _______ _____ _____    ______ ____
ROOT
ATOM      1  N   UNL     1      34.477 -23.170 -15.857  0.00  0.00    -0.248 NA
ATOM      2  C   UNL     1      35.350 -21.534 -17.406  0.00  0.00    +0.019 C 
ATOM      3  C   UNL     1      35.627 -23.049 -15.156  0.00  0.00    +0.068 C 
ATOM      4  C   UNL     1      36.518 -21.437 -16.660  0.00  0.00    +0.003 C 
ATOM      5  C   UNL     1      34.367 -22.406 -16.967  0.00  0.00    +0.098 C 
ATOM      6  C   UNL     1      36.667 -22.207 -15.512  0.00  0.00    +0.015 C 
ENDROOT
BRANCH   2   8
ATOM      7  C   UNL     1      34.809 -19.234 -20.911  0.00  0.00    +0.138 C 
ATOM      8  C   UNL     1      35.165 -20.747 -18.605  0.00  0.00    +0.002 C 
ATOM      9  C   UNL     1      33.701 -19.745 -20.245  0.00  0.00    +0.037 C 
ATOM     10  C   UNL     1      36.094 -19.474 -20.436  0.00  0.00    +0.037 C 
ATOM     11  C   UNL     1      33.879 -20.503 -19.088  0.00  0.00    +0.003 C 
ATOM     12  C   UNL     1      36.272 -20.232 -19.279  0.00  0.00    +0.003 C 
BRANCH   7  13
ATOM     13  O   UNL     1      34.634 -18.489 -22.048  0.00  0.00    -0.478 OA
BRANCH  13  14
ATOM     14  C   UNL     1      35.779 -17.815 -22.555  0.00  0.00    +0.183 C 
BRANCH  14  15
ATOM     15  C   UNL     1      35.696 -16.349 -22.164  0.00  0.00    -0.029 C 
BRANCH  15  17
ATOM     16  O   UNL     1      33.828 -13.713 -24.843  0.00  0.00    -0.358 OA
ATOM     17  N   UNL     1      34.673 -15.662 -22.948  0.00  0.00    +0.393 N 
ATOM     18  C   UNL     1      34.629 -14.232 -22.612  0.00  0.00    -0.044 C 
ATOM     19  C   UNL     1      34.914 -15.835 -24.387  0.00  0.00    -0.044 C 
ATOM     20  C   UNL     1      33.562 -13.536 -23.451  0.00  0.00    +0.119 C 
ATOM     21  C   UNL     1      33.840 -15.100 -25.184  0.00  0.00    +0.119 C 
ATOM     22  H   UNL     1      33.771 -16.079 -22.717  0.00  0.00    -0.079 HD
ENDBRANCH  15  17
ENDBRANCH  14  15
ENDBRANCH  13  14
ENDBRANCH   7  13
ENDBRANCH   2   8
BRANCH   3  23
ATOM     23  C   UNL     1      35.753 -23.890 -13.930  0.00  0.00    +0.131 C 
BRANCH  23  26
ATOM     24  O   UNL     1      34.635 -23.303 -11.863  0.00  0.00    -0.275 OA
ATOM     25  N   UNL     1      33.405 -24.305 -13.557  0.00  0.00    -0.300 N 
ATOM     26  C   UNL     1      34.561 -23.787 -12.989  0.00  0.00    +0.229 C 
ATOM     27  H   UNL     1      33.451 -24.672 -14.470  0.00  0.00    +0.150 HD
BRANCH  25  28
ATOM     28  C   UNL     1      32.139 -24.327 -12.863  0.00  0.00    +0.116 C 
BRANCH  28  29
ATOM     29  C   UNL     1      31.019 -23.815 -13.722  0.00  0.00    -0.003 C 
ATOM     30  C   UNL     1      30.009 -24.682 -14.122  0.00  0.00    -0.003 C 
ATOM     31  C   UNL     1      31.004 -22.480 -14.109  0.00  0.00    -0.003 C 
ATOM     32  C   UNL     1      28.968 -24.207 -14.921  0.00  0.00    -0.000 C 
ATOM     33  C   UNL     1      29.963 -22.005 -14.907  0.00  0.00    -0.000 C 
ATOM     34  C   UNL     1      28.946 -22.869 -15.314  0.00  0.00    -0.000 C 
ENDBRANCH  28  29
ENDBRANCH  25  28
ENDBRANCH  23  26
ENDBRANCH   3  23
TORSDOF 9
ENDMDL
MODEL 7
REMARK VINA RESULT:     -11.7      1.590      2.510
REMARK  Name = 23635314
REMARK  9 active torsions:
REMARK  status: ('A' for Active; 'I' for Inactive)
REMARK    1  A    between atoms: C_2  and  C_8
REMARK    2  A    between atoms: C_3  and  C_23
REMARK    3  A    between atoms: C_7  and  O_13
REMARK    4  A    between atoms: O_13  and  C_14
REMARK    5  A    between atoms: C_14  and  C_15
REMARK    6  A    between atoms: C_15  and  N_17
REMARK    7  A    between atoms: C_23  and  C_26
REMARK    8  A    between atoms: N_25  and  C_28
REMARK    9  A    between atoms: C_28  and  C_29
REMARK                            x       y       z     vdW  Elec       q    Type
REMARK                         _______ _______ _______ _____ _____    ______ ____
ROOT
ATOM      1  N   UNL     1      35.402 -16.059 -21.550  0.00  0.00    -0.248 NA
ATOM      2  C   UNL     1      35.047 -18.402 -21.085  0.00  0.00    +0.019 C 
ATOM      3  C   UNL     1      35.193 -16.336 -22.857  0.00  0.00    +0.068 C 
ATOM      4  C   UNL     1      34.838 -18.649 -22.437  0.00  0.00    +0.003 C 
ATOM      5  C   UNL     1      35.322 -17.103 -20.695  0.00  0.00    +0.098 C 
ATOM      6  C   UNL     1      34.912 -17.601 -23.346  0.00  0.00    +0.015 C 
ENDROOT
BRANCH   2   8
ATOM      7  C   UNL     1      34.845 -21.527 -18.246  0.00  0.00    +0.138 C 
ATOM      8  C   UNL     1      34.977 -19.472 -20.114  0.00  0.00    +0.002 C 
ATOM      9  C   UNL     1      33.677 -21.056 -18.834  0.00  0.00    +0.037 C 
ATOM     10  C   UNL     1      36.079 -20.980 -18.582  0.00  0.00    +0.037 C 
ATOM     11  C   UNL     1      33.744 -20.025 -19.771  0.00  0.00    +0.003 C 
ATOM     12  C   UNL     1      36.145 -19.950 -19.519  0.00  0.00    +0.003 C 
BRANCH   7  13
ATOM     13  O   UNL     1      34.780 -22.540 -17.325  0.00  0.00    -0.478 OA
BRANCH  13  14
ATOM     14  C   UNL     1      33.619 -22.587 -16.506  0.00  0.00    +0.183 C 
BRANCH  14  15
ATOM     15  C   UNL     1      34.043 -22.855 -15.071  0.00  0.00    -0.029 C 
BRANCH  15  17
ATOM     16  O   UNL     1      37.734 -24.234 -13.626  0.00  0.00    -0.358 OA
ATOM     17  N   UNL     1      35.432 -23.305 -15.018  0.00  0.00    +0.393 N 
ATOM     18  C   UNL     1      36.242 -22.405 -14.186  0.00  0.00    -0.044 C 
ATOM     19  C   UNL     1      35.517 -24.679 -14.504  0.00  0.00    -0.044 C 
ATOM     20  C   UNL     1      37.684 -22.902 -14.138  0.00  0.00    +0.119 C 
ATOM     21  C   UNL     1      36.975 -25.122 -14.447  0.00  0.00    +0.119 C 
ATOM     22  H   UNL     1      35.801 -23.289 -15.969  0.00  0.00    -0.079 HD
ENDBRANCH  15  17
ENDBRANCH  14  15
ENDBRANCH  13  14
ENDBRANCH   7  13
ENDBRANCH   2   8
BRANCH   3  23
ATOM     23  C   UNL     1      35.280 -15.187 -23.806  0.00  0.00    +0.131 C 
BRANCH  23  26
ATOM     24  O   UNL     1      33.139 -14.326 -24.543  0.00  0.00    -0.275 OA
ATOM     25  N   UNL     1      34.180 -13.333 -22.721  0.00  0.00    -0.300 N 
ATOM     26  C   UNL     1      34.077 -14.255 -23.753  0.00  0.00    +0.229 C 
ATOM     27  H   UNL     1      34.976 -13.360 -22.140  0.00  0.00    +0.150 HD
BRANCH  25  28
ATOM     28  C   UNL     1      33.167 -12.336 -22.463  0.00  0.00    +0.116 C 
BRANCH  28  29
ATOM     29  C   UNL     1      33.590 -10.973 -22.930  0.00  0.00    -0.003 C 
ATOM     30  C   UNL     1      33.008  -9.843 -22.367  0.00  0.00    -0.003 C 
ATOM     31  C   UNL     1      34.558 -10.855 -23.920  0.00  0.00    -0.003 C 
ATOM     32  C   UNL     1      33.400  -8.577 -22.800  0.00  0.00    -0.000 C 
ATOM     33  C   UNL     1      34.951  -9.588 -24.353  0.00  0.00    -0.000 C 
ATOM     34  C   UNL     1      34.371  -8.449 -23.794  0.00  0.00    -0.000 C 
ENDBRANCH  28  29
ENDBRANCH  25  28
ENDBRANCH  23  26
ENDBRANCH   3  23
TORSDOF 9
ENDMDL
MODEL 8
REMARK VINA RESULT:     -11.6      1.786     11.271
REMARK  Name = 23635314
REMARK  9 active torsions:
REMARK  status: ('A' for Active; 'I' for Inactive)
REMARK    1  A    between atoms: C_2  and  C_8
REMARK    2  A    between atoms: C_3  and  C_23
REMARK    3  A    between atoms: C_7  and  O_13
REMARK    4  A    between atoms: O_13  and  C_14
REMARK    5  A    between atoms: C_14  and  C_15
REMARK    6  A    between atoms: C_15  and  N_17
REMARK    7  A    between atoms: C_23  and  C_26
REMARK    8  A    between atoms: N_25  and  C_28
REMARK    9  A    between atoms: C_28  and  C_29
REMARK                            x       y       z     vdW  Elec       q    Type
REMARK                         _______ _______ _______ _____ _____    ______ ____
ROOT
ATOM      1  N   UNL     1      35.716 -21.400 -18.333  0.00  0.00    -0.248 NA
ATOM      2  C   UNL     1      34.743 -19.760 -19.816  0.00  0.00    +0.019 C 
ATOM      3  C   UNL     1      34.460 -21.759 -17.985  0.00  0.00    +0.068 C 
ATOM      4  C   UNL     1      33.468 -20.156 -19.434  0.00  0.00    +0.003 C 
ATOM      5  C   UNL     1      35.826 -20.406 -19.243  0.00  0.00    +0.098 C 
ATOM      6  C   UNL     1      33.315 -21.174 -18.500  0.00  0.00    +0.015 C 
ENDROOT
BRANCH   2   8
ATOM      7  C   UNL     1      35.305 -16.672 -22.648  0.00  0.00    +0.138 C 
ATOM      8  C   UNL     1      34.936 -18.703 -20.785  0.00  0.00    +0.002 C 
ATOM      9  C   UNL     1      35.630 -16.451 -21.315  0.00  0.00    +0.037 C 
ATOM     10  C   UNL     1      34.796 -17.900 -23.059  0.00  0.00    +0.037 C 
ATOM     11  C   UNL     1      35.446 -17.469 -20.381  0.00  0.00    +0.003 C 
ATOM     12  C   UNL     1      34.611 -18.917 -22.125  0.00  0.00    +0.003 C 
BRANCH   7  13
ATOM     13  O   UNL     1      35.486 -15.671 -23.566  0.00  0.00    -0.478 OA
BRANCH  13  14
ATOM     14  C   UNL     1      34.379 -14.811 -23.804  0.00  0.00    +0.183 C 
BRANCH  14  15
ATOM     15  C   UNL     1      34.620 -13.494 -23.086  0.00  0.00    -0.029 C 
BRANCH  15  17
ATOM     16  O   UNL     1      32.268 -11.824 -20.037  0.00  0.00    -0.358 OA
ATOM     17  N   UNL     1      33.471 -13.140 -22.256  0.00  0.00    +0.393 N 
ATOM     18  C   UNL     1      33.646 -13.633 -20.883  0.00  0.00    -0.044 C 
ATOM     19  C   UNL     1      33.261 -11.686 -22.246  0.00  0.00    -0.044 C 
ATOM     20  C   UNL     1      32.440 -13.242 -20.034  0.00  0.00    +0.119 C 
ATOM     21  C   UNL     1      32.064 -11.340 -21.365  0.00  0.00    +0.119 C 
ATOM     22  H   UNL     1      32.646 -13.586 -22.659  0.00  0.00    -0.079 HD
ENDBRANCH  15  17
ENDBRANCH  14  15
ENDBRANCH  13  14
ENDBRANCH   7  13
ENDBRANCH   2   8
BRANCH   3  23
ATOM     23  C   UNL     1      34.333 -22.855 -16.980  0.00  0.00    +0.131 C 
BRANCH  23  26
ATOM     24  O   UNL     1      34.235 -22.225 -14.643  0.00  0.00    -0.275 OA
ATOM     25  N   UNL     1      36.310 -22.559 -15.629  0.00  0.00    -0.300 N 
ATOM     26  C   UNL     1      34.923 -22.512 -15.620  0.00  0.00    +0.229 C 
ATOM     27  H   UNL     1      36.769 -22.801 -16.466  0.00  0.00    +0.150 HD
BRANCH  25  28
ATOM     28  C   UNL     1      37.107 -22.270 -14.460  0.00  0.00    +0.116 C 
BRANCH  28  29
ATOM     29  C   UNL     1      37.381 -23.503 -13.648  0.00  0.00    -0.003 C 
ATOM     30  C   UNL     1      37.781 -23.378 -12.323  0.00  0.00    -0.003 C 
ATOM     31  C   UNL     1      37.232 -24.756 -14.230  0.00  0.00    -0.003 C 
ATOM     32  C   UNL     1      38.036 -24.524 -11.569  0.00  0.00    -0.000 C 
ATOM     33  C   UNL     1      37.487 -25.902 -13.476  0.00  0.00    -0.000 C 
ATOM     34  C   UNL     1      37.890 -25.785 -12.145  0.00  0.00    -0.000 C 
ENDBRANCH  28  29
ENDBRANCH  25  28
ENDBRANCH  23  26
ENDBRANCH   3  23
TORSDOF 9
ENDMDL
MODEL 9
REMARK VINA RESULT:     -11.4      2.275     11.831
REMARK  Name = 23635314
REMARK  9 active torsions:
REMARK  status: ('A' for Active; 'I' for Inactive)
REMARK    1  A    between atoms: C_2  and  C_8
REMARK    2  A    between atoms: C_3  and  C_23
REMARK    3  A    between atoms: C_7  and  O_13
REMARK    4  A    between atoms: O_13  and  C_14
REMARK    5  A    between atoms: C_14  and  C_15
REMARK    6  A    between atoms: C_15  and  N_17
REMARK    7  A    between atoms: C_23  and  C_26
REMARK    8  A    between atoms: N_25  and  C_28
REMARK    9  A    between atoms: C_28  and  C_29
REMARK                            x       y       z     vdW  Elec       q    Type
REMARK                         _______ _______ _______ _____ _____    ______ ____
ROOT
ATOM      1  N   UNL     1      35.540 -21.492 -18.516  0.00  0.00    -0.248 NA
ATOM      2  C   UNL     1      34.648 -19.733 -19.911  0.00  0.00    +0.019 C 
ATOM      3  C   UNL     1      34.270 -21.783 -18.155  0.00  0.00    +0.068 C 
ATOM      4  C   UNL     1      33.357 -20.061 -19.516  0.00  0.00    +0.003 C 
ATOM      5  C   UNL     1      35.697 -20.471 -19.388  0.00  0.00    +0.098 C 
ATOM      6  C   UNL     1      33.156 -21.104 -18.621  0.00  0.00    +0.015 C 
ENDROOT
BRANCH   2   8
ATOM      7  C   UNL     1      35.358 -16.574 -22.629  0.00  0.00    +0.138 C 
ATOM      8  C   UNL     1      34.891 -18.652 -20.841  0.00  0.00    +0.002 C 
ATOM      9  C   UNL     1      34.901 -17.799 -23.101  0.00  0.00    +0.037 C 
ATOM     10  C   UNL     1      35.584 -16.378 -21.271  0.00  0.00    +0.037 C 
ATOM     11  C   UNL     1      34.666 -18.841 -22.205  0.00  0.00    +0.003 C 
ATOM     12  C   UNL     1      35.349 -17.420 -20.375  0.00  0.00    +0.003 C 
BRANCH   7  13
ATOM     13  O   UNL     1      35.588 -15.550 -23.510  0.00  0.00    -0.478 OA
BRANCH  13  14
ATOM     14  C   UNL     1      34.448 -14.965 -24.126  0.00  0.00    +0.183 C 
BRANCH  14  15
ATOM     15  C   UNL     1      33.870 -13.918 -23.189  0.00  0.00    -0.029 C 
BRANCH  15  17
ATOM     16  O   UNL     1      34.361 -10.441 -25.489  0.00  0.00    -0.358 OA
ATOM     17  N   UNL     1      33.585 -12.680 -23.912  0.00  0.00    +0.393 N 
ATOM     18  C   UNL     1      34.331 -11.554 -23.334  0.00  0.00    -0.044 C 
ATOM     19  C   UNL     1      33.910 -12.820 -25.338  0.00  0.00    -0.044 C 
ATOM     20  C   UNL     1      34.026 -10.277 -24.111  0.00  0.00    +0.119 C 
ATOM     21  C   UNL     1      33.616 -11.514 -26.068  0.00  0.00    +0.119 C 
ATOM     22  H   UNL     1      32.587 -12.489 -23.822  0.00  0.00    -0.079 HD
ENDBRANCH  15  17
ENDBRANCH  14  15
ENDBRANCH  13  14
ENDBRANCH   7  13
ENDBRANCH   2   8
BRANCH   3  23
ATOM     23  C   UNL     1      34.090 -22.909 -17.191  0.00  0.00    +0.131 C 
BRANCH  23  26
ATOM     24  O   UNL     1      33.610 -22.403 -14.871  0.00  0.00    -0.275 OA
ATOM     25  N   UNL     1      35.820 -22.412 -15.583  0.00  0.00    -0.300 N 
ATOM     26  C   UNL     1      34.450 -22.551 -15.756  0.00  0.00    +0.229 C 
ATOM     27  H   UNL     1      36.411 -22.553 -16.359  0.00  0.00    +0.150 HD
BRANCH  25  28
ATOM     28  C   UNL     1      36.414 -22.072 -14.312  0.00  0.00    +0.116 C 
BRANCH  28  29
ATOM     29  C   UNL     1      37.167 -23.226 -13.717  0.00  0.00    -0.003 C 
ATOM     30  C   UNL     1      37.726 -23.103 -12.450  0.00  0.00    -0.003 C 
ATOM     31  C   UNL     1      37.298 -24.407 -14.439  0.00  0.00    -0.003 C 
ATOM     32  C   UNL     1      38.426 -24.175 -11.897  0.00  0.00    -0.000 C 
ATOM     33  C   UNL     1      37.997 -25.480 -13.885  0.00  0.00    -0.000 C 
ATOM     34  C   UNL     1      38.562 -25.363 -12.615  0.00  0.00    -0.000 C 
ENDBRANCH  28  29
ENDBRANCH  25  28
ENDBRANCH  23  26
ENDBRANCH   3  23
TORSDOF 9
ENDMDL
