MODEL 1
REMARK VINA RESULT:     -12.4      0.000      0.000
REMARK  Name = 28693
REMARK  5 active torsions:
REMARK  status: ('A' for Active; 'I' for Inactive)
REMARK    1  A    between atoms: C_6  and  C_20
REMARK    2  A    between atoms: C_20  and  N_22
REMARK    3  A    between atoms: C_23  and  O_25
REMARK    4  A    between atoms: O_25  and  C_26
REMARK    5  A    between atoms: C_26  and  C_27
REMARK                            x       y       z     vdW  Elec       q    Type
REMARK                         _______ _______ _______ _____ _____    ______ ____
ROOT
ATOM      1  N   UNL     1      32.009 -23.278 -14.818  0.00  0.00    +0.387 N 
ATOM      2  N   UNL     1      34.618 -20.461 -19.457  0.00  0.00    -0.284 N 
ATOM      3  C   UNL     1      34.404 -22.862 -15.469  0.00  0.00    +0.004 C 
ATOM      4  C   UNL     1      32.887 -22.414 -15.645  0.00  0.00    -0.050 C 
ATOM      5  C   UNL     1      34.797 -22.824 -13.986  0.00  0.00    +0.002 C 
ATOM      6  C   UNL     1      33.819 -23.649 -13.148  0.00  0.00    -0.001 C 
ATOM      7  C   UNL     1      32.446 -22.384 -17.159  0.00  0.00    +0.007 C 
ATOM      8  C   UNL     1      32.376 -23.195 -13.393  0.00  0.00    -0.076 C 
ATOM      9  C   UNL     1      35.325 -22.039 -16.355  0.00  0.00    -0.024 C 
ATOM     10  C   UNL     1      34.771 -21.523 -17.533  0.00  0.00    +0.007 C 
ATOM     11  C   UNL     1      33.440 -21.638 -17.981  0.00  0.00    -0.008 C 
ATOM     12  C   UNL     1      35.500 -20.792 -18.452  0.00  0.00    +0.051 C 
ATOM     13  C   UNL     1      30.588 -22.950 -14.962  0.00  0.00    -0.101 C 
ATOM     14  C   UNL     1      36.691 -21.800 -16.162  0.00  0.00    -0.004 C 
ATOM     15  C   UNL     1      33.365 -20.972 -19.183  0.00  0.00    +0.061 C 
ATOM     16  C   UNL     1      36.856 -20.528 -18.257  0.00  0.00    +0.015 C 
ATOM     17  C   UNL     1      37.435 -21.053 -17.092  0.00  0.00    +0.001 C 
ATOM     18  C   UNL     1      34.943 -19.690 -20.638  0.00  0.00    +0.117 C 
ATOM     19  H   UNL     1      32.150 -24.228 -15.162  0.00  0.00    -0.080 HD
ENDROOT
BRANCH   6  20
ATOM     20  C   UNL     1      34.170 -23.551 -11.662  0.00  0.00    +0.091 C 
BRANCH  20  22
ATOM     21  O   UNL     1      35.566 -23.965  -9.148  0.00  0.00    -0.226 OA
ATOM     22  N   UNL     1      35.576 -23.715 -11.457  0.00  0.00    -0.271 N 
ATOM     23  C   UNL     1      36.166 -23.909 -10.216  0.00  0.00    +0.402 C 
ATOM     24  H   UNL     1      36.163 -23.689 -12.246  0.00  0.00    +0.153 HD
BRANCH  23  25
ATOM     25  O   UNL     1      37.520 -24.031 -10.353  0.00  0.00    -0.430 OA
BRANCH  25  26
ATOM     26  C   UNL     1      38.113 -23.263 -11.405  0.00  0.00    +0.237 C 
BRANCH  26  27
ATOM     27  C   UNL     1      38.756 -24.195 -12.390  0.00  0.00    +0.021 C 
ATOM     28  C   UNL     1      40.046 -23.939 -12.840  0.00  0.00    -0.001 C 
ATOM     29  C   UNL     1      38.055 -25.307 -12.843  0.00  0.00    -0.001 C 
ATOM     30  C   UNL     1      40.644 -24.806 -13.755  0.00  0.00    -0.000 C 
ATOM     31  C   UNL     1      38.652 -26.174 -13.759  0.00  0.00    -0.000 C 
ATOM     32  C   UNL     1      39.947 -25.923 -14.215  0.00  0.00    -0.000 C 
ENDBRANCH  26  27
ENDBRANCH  25  26
ENDBRANCH  23  25
ENDBRANCH  20  22
ENDBRANCH   6  20
TORSDOF 5
ENDMDL
MODEL 2
REMARK VINA RESULT:     -11.9      8.964     12.671
REMARK  Name = 28693
REMARK  5 active torsions:
REMARK  status: ('A' for Active; 'I' for Inactive)
REMARK    1  A    between atoms: C_6  and  C_20
REMARK    2  A    between atoms: C_20  and  N_22
REMARK    3  A    between atoms: C_23  and  O_25
REMARK    4  A    between atoms: O_25  and  C_26
REMARK    5  A    between atoms: C_26  and  C_27
REMARK                            x       y       z     vdW  Elec       q    Type
REMARK                         _______ _______ _______ _____ _____    ______ ____
ROOT
ATOM      1  N   UNL     1      32.493 -12.803 -20.993  0.00  0.00    +0.387 N 
ATOM      2  N   UNL     1      32.663  -6.855 -21.918  0.00  0.00    -0.284 N 
ATOM      3  C   UNL     1      33.424 -11.360 -22.833  0.00  0.00    +0.004 C 
ATOM      4  C   UNL     1      32.944 -11.426 -21.317  0.00  0.00    -0.050 C 
ATOM      5  C   UNL     1      34.528 -12.396 -23.083  0.00  0.00    +0.002 C 
ATOM      6  C   UNL     1      34.066 -13.790 -22.653  0.00  0.00    -0.001 C 
ATOM      7  C   UNL     1      31.844 -10.344 -20.992  0.00  0.00    +0.007 C 
ATOM      8  C   UNL     1      33.580 -13.777 -21.199  0.00  0.00    -0.076 C 
ATOM      9  C   UNL     1      33.830  -9.947 -23.218  0.00  0.00    -0.024 C 
ATOM     10  C   UNL     1      33.206  -8.901 -22.527  0.00  0.00    +0.007 C 
ATOM     11  C   UNL     1      32.270  -9.000 -21.477  0.00  0.00    -0.008 C 
ATOM     12  C   UNL     1      33.447  -7.568 -22.798  0.00  0.00    +0.051 C 
ATOM     13  C   UNL     1      31.996 -12.931 -19.620  0.00  0.00    -0.101 C 
ATOM     14  C   UNL     1      34.706  -9.569 -24.243  0.00  0.00    -0.004 C 
ATOM     15  C   UNL     1      31.942  -7.715 -21.114  0.00  0.00    +0.061 C 
ATOM     16  C   UNL     1      34.336  -7.181 -23.801  0.00  0.00    +0.015 C 
ATOM     17  C   UNL     1      34.957  -8.215 -24.520  0.00  0.00    +0.001 C 
ATOM     18  C   UNL     1      32.591  -5.412 -21.838  0.00  0.00    +0.117 C 
ATOM     19  H   UNL     1      31.720 -13.000 -21.628  0.00  0.00    -0.080 HD
ENDROOT
BRANCH   6  20
ATOM     20  C   UNL     1      35.193 -14.809 -22.835  0.00  0.00    +0.091 C 
BRANCH  20  22
ATOM     21  O   UNL     1      36.058 -17.579 -22.705  0.00  0.00    -0.226 OA
ATOM     22  N   UNL     1      35.335 -15.629 -21.672  0.00  0.00    -0.271 N 
ATOM     23  C   UNL     1      35.756 -16.950 -21.696  0.00  0.00    +0.402 C 
ATOM     24  H   UNL     1      35.120 -15.230 -20.798  0.00  0.00    +0.153 HD
BRANCH  23  25
ATOM     25  O   UNL     1      35.789 -17.457 -20.428  0.00  0.00    -0.430 OA
BRANCH  25  26
ATOM     26  C   UNL     1      36.405 -18.742 -20.285  0.00  0.00    +0.237 C 
BRANCH  26  27
ATOM     27  C   UNL     1      35.416 -19.694 -19.677  0.00  0.00    +0.021 C 
ATOM     28  C   UNL     1      35.856 -20.669 -18.788  0.00  0.00    -0.001 C 
ATOM     29  C   UNL     1      34.070 -19.593 -20.009  0.00  0.00    -0.001 C 
ATOM     30  C   UNL     1      34.937 -21.553 -18.223  0.00  0.00    -0.000 C 
ATOM     31  C   UNL     1      33.151 -20.478 -19.444  0.00  0.00    -0.000 C 
ATOM     32  C   UNL     1      33.585 -21.458 -18.551  0.00  0.00    -0.000 C 
ENDBRANCH  26  27
ENDBRANCH  25  26
ENDBRANCH  23  25
ENDBRANCH  20  22
ENDBRANCH   6  20
TORSDOF 5
ENDMDL
MODEL 3
REMARK VINA RESULT:     -11.7      9.380     13.164
REMARK  Name = 28693
REMARK  5 active torsions:
REMARK  status: ('A' for Active; 'I' for Inactive)
REMARK    1  A    between atoms: C_6  and  C_20
REMARK    2  A    between atoms: C_20  and  N_22
REMARK    3  A    between atoms: C_23  and  O_25
REMARK    4  A    between atoms: O_25  and  C_26
REMARK    5  A    between atoms: C_26  and  C_27
REMARK                            x       y       z     vdW  Elec       q    Type
REMARK                         _______ _______ _______ _____ _____    ______ ____
ROOT
ATOM      1  N   UNL     1      32.440 -13.007 -20.708  0.00  0.00    +0.387 N 
ATOM      2  N   UNL     1      32.268  -7.111 -19.491  0.00  0.00    -0.284 N 
ATOM      3  C   UNL     1      32.748 -10.938 -22.107  0.00  0.00    +0.004 C 
ATOM      4  C   UNL     1      32.757 -11.558 -20.642  0.00  0.00    -0.050 C 
ATOM      5  C   UNL     1      33.731 -11.697 -23.009  0.00  0.00    +0.002 C 
ATOM      6  C   UNL     1      33.435 -13.199 -22.983  0.00  0.00    -0.001 C 
ATOM      7  C   UNL     1      31.802 -10.780 -19.658  0.00  0.00    +0.007 C 
ATOM      8  C   UNL     1      33.418 -13.725 -21.544  0.00  0.00    -0.076 C 
ATOM      9  C   UNL     1      33.004  -9.440 -22.070  0.00  0.00    -0.024 C 
ATOM     10  C   UNL     1      32.614  -8.763 -20.907  0.00  0.00    +0.007 C 
ATOM     11  C   UNL     1      32.048  -9.312 -19.740  0.00  0.00    -0.008 C 
ATOM     12  C   UNL     1      32.750  -7.397 -20.749  0.00  0.00    +0.051 C 
ATOM     13  C   UNL     1      32.389 -13.640 -19.387  0.00  0.00    -0.101 C 
ATOM     14  C   UNL     1      33.521  -8.645 -23.100  0.00  0.00    -0.004 C 
ATOM     15  C   UNL     1      31.836  -8.267 -18.871  0.00  0.00    +0.061 C 
ATOM     16  C   UNL     1      33.284  -6.599 -21.761  0.00  0.00    +0.015 C 
ATOM     17  C   UNL     1      33.663  -7.256 -22.943  0.00  0.00    +0.001 C 
ATOM     18  C   UNL     1      32.212  -5.796 -18.892  0.00  0.00    +0.117 C 
ATOM     19  H   UNL     1      31.510 -13.069 -21.124  0.00  0.00    -0.080 HD
ENDROOT
BRANCH   6  20
ATOM     20  C   UNL     1      34.459 -13.961 -23.825  0.00  0.00    +0.091 C 
BRANCH  20  22
ATOM     21  O   UNL     1      34.433 -16.560 -25.123  0.00  0.00    -0.226 OA
ATOM     22  N   UNL     1      34.753 -15.235 -23.243  0.00  0.00    -0.271 N 
ATOM     23  C   UNL     1      34.717 -16.436 -23.936  0.00  0.00    +0.402 C 
ATOM     24  H   UNL     1      34.997 -15.260 -22.290  0.00  0.00    +0.153 HD
BRANCH  23  25
ATOM     25  O   UNL     1      35.047 -17.469 -23.105  0.00  0.00    -0.430 OA
BRANCH  25  26
ATOM     26  C   UNL     1      35.644 -17.099 -21.857  0.00  0.00    +0.237 C 
BRANCH  26  27
ATOM     27  C   UNL     1      35.614 -18.280 -20.931  0.00  0.00    +0.021 C 
ATOM     28  C   UNL     1      36.796 -18.740 -20.362  0.00  0.00    -0.001 C 
ATOM     29  C   UNL     1      34.404 -18.904 -20.651  0.00  0.00    -0.001 C 
ATOM     30  C   UNL     1      36.769 -19.837 -19.502  0.00  0.00    -0.000 C 
ATOM     31  C   UNL     1      34.375 -20.002 -19.790  0.00  0.00    -0.000 C 
ATOM     32  C   UNL     1      35.558 -20.468 -19.216  0.00  0.00    -0.000 C 
ENDBRANCH  26  27
ENDBRANCH  25  26
ENDBRANCH  23  25
ENDBRANCH  20  22
ENDBRANCH   6  20
TORSDOF 5
ENDMDL
MODEL 4
REMARK VINA RESULT:     -11.3     10.554     15.036
REMARK  Name = 28693
REMARK  5 active torsions:
REMARK  status: ('A' for Active; 'I' for Inactive)
REMARK    1  A    between atoms: C_6  and  C_20
REMARK    2  A    between atoms: C_20  and  N_22
REMARK    3  A    between atoms: C_23  and  O_25
REMARK    4  A    between atoms: O_25  and  C_26
REMARK    5  A    between atoms: C_26  and  C_27
REMARK                            x       y       z     vdW  Elec       q    Type
REMARK                         _______ _______ _______ _____ _____    ______ ____
ROOT
ATOM      1  N   UNL     1      33.826 -11.919 -25.834  0.00  0.00    +0.387 N 
ATOM      2  N   UNL     1      35.109 -16.887 -22.682  0.00  0.00    -0.284 N 
ATOM      3  C   UNL     1      33.835 -12.459 -23.376  0.00  0.00    +0.004 C 
ATOM      4  C   UNL     1      34.364 -12.862 -24.822  0.00  0.00    -0.050 C 
ATOM      5  C   UNL     1      34.213 -11.005 -23.061  0.00  0.00    +0.002 C 
ATOM      6  C   UNL     1      33.724 -10.069 -24.169  0.00  0.00    -0.001 C 
ATOM      7  C   UNL     1      34.048 -14.366 -25.175  0.00  0.00    +0.007 C 
ATOM      8  C   UNL     1      34.234 -10.535 -25.537  0.00  0.00    -0.076 C 
ATOM      9  C   UNL     1      34.314 -13.444 -22.323  0.00  0.00    -0.024 C 
ATOM     10  C   UNL     1      34.562 -14.754 -22.752  0.00  0.00    +0.007 C 
ATOM     11  C   UNL     1      34.463 -15.265 -24.061  0.00  0.00    -0.008 C 
ATOM     12  C   UNL     1      34.964 -15.764 -21.898  0.00  0.00    +0.051 C 
ATOM     13  C   UNL     1      34.239 -12.253 -27.200  0.00  0.00    -0.101 C 
ATOM     14  C   UNL     1      34.465 -13.208 -20.951  0.00  0.00    -0.004 C 
ATOM     15  C   UNL     1      34.804 -16.596 -23.997  0.00  0.00    +0.061 C 
ATOM     16  C   UNL     1      35.139 -15.533 -20.534  0.00  0.00    +0.015 C 
ATOM     17  C   UNL     1      34.877 -14.231 -20.080  0.00  0.00    +0.001 C 
ATOM     18  C   UNL     1      35.518 -18.192 -22.211  0.00  0.00    +0.117 C 
ATOM     19  H   UNL     1      32.811 -12.004 -25.782  0.00  0.00    -0.080 HD
ENDROOT
BRANCH   6  20
ATOM     20  C   UNL     1      34.165  -8.631 -23.890  0.00  0.00    +0.091 C 
BRANCH  20  22
ATOM     21  O   UNL     1      33.021  -6.249 -22.683  0.00  0.00    -0.226 OA
ATOM     22  N   UNL     1      34.050  -8.322 -22.498  0.00  0.00    -0.271 N 
ATOM     23  C   UNL     1      33.488  -7.156 -22.001  0.00  0.00    +0.402 C 
ATOM     24  H   UNL     1      34.393  -8.980 -21.851  0.00  0.00    +0.153 HD
BRANCH  23  25
ATOM     25  O   UNL     1      33.527  -7.158 -20.636  0.00  0.00    -0.430 OA
BRANCH  25  26
ATOM     26  C   UNL     1      32.264  -7.309 -19.976  0.00  0.00    +0.237 C 
BRANCH  26  27
ATOM     27  C   UNL     1      32.010  -8.768 -19.733  0.00  0.00    +0.021 C 
ATOM     28  C   UNL     1      32.158  -9.289 -18.452  0.00  0.00    -0.001 C 
ATOM     29  C   UNL     1      31.628  -9.586 -20.790  0.00  0.00    -0.001 C 
ATOM     30  C   UNL     1      31.922 -10.644 -18.226  0.00  0.00    -0.000 C 
ATOM     31  C   UNL     1      31.392 -10.942 -20.564  0.00  0.00    -0.000 C 
ATOM     32  C   UNL     1      31.539 -11.471 -19.282  0.00  0.00    -0.000 C 
ENDBRANCH  26  27
ENDBRANCH  25  26
ENDBRANCH  23  25
ENDBRANCH  20  22
ENDBRANCH   6  20
TORSDOF 5
ENDMDL
MODEL 5
REMARK VINA RESULT:     -11.0      4.076      9.451
REMARK  Name = 28693
REMARK  5 active torsions:
REMARK  status: ('A' for Active; 'I' for Inactive)
REMARK    1  A    between atoms: C_6  and  C_20
REMARK    2  A    between atoms: C_20  and  N_22
REMARK    3  A    between atoms: C_23  and  O_25
REMARK    4  A    between atoms: O_25  and  C_26
REMARK    5  A    between atoms: C_26  and  C_27
REMARK                            x       y       z     vdW  Elec       q    Type
REMARK                         _______ _______ _______ _____ _____    ______ ____
ROOT
ATOM      1  N   UNL     1      36.980 -22.393 -15.795  0.00  0.00    +0.387 N 
ATOM      2  N   UNL     1      31.680 -23.736 -13.271  0.00  0.00    -0.284 N 
ATOM      3  C   UNL     1      34.606 -22.371 -16.631  0.00  0.00    +0.004 C 
ATOM      4  C   UNL     1      35.562 -22.354 -15.358  0.00  0.00    -0.050 C 
ATOM      5  C   UNL     1      34.949 -21.204 -17.565  0.00  0.00    +0.002 C 
ATOM      6  C   UNL     1      36.437 -21.219 -17.923  0.00  0.00    -0.001 C 
ATOM      7  C   UNL     1      35.217 -23.505 -14.337  0.00  0.00    +0.007 C 
ATOM      8  C   UNL     1      37.300 -21.242 -16.657  0.00  0.00    -0.076 C 
ATOM      9  C   UNL     1      33.144 -22.399 -16.218  0.00  0.00    -0.024 C 
ATOM     10  C   UNL     1      32.849 -22.990 -14.983  0.00  0.00    +0.007 C 
ATOM     11  C   UNL     1      33.755 -23.528 -14.047  0.00  0.00    -0.008 C 
ATOM     12  C   UNL     1      31.562 -23.120 -14.497  0.00  0.00    +0.051 C 
ATOM     13  C   UNL     1      37.921 -22.422 -14.672  0.00  0.00    -0.101 C 
ATOM     14  C   UNL     1      32.045 -21.965 -16.970  0.00  0.00    -0.004 C 
ATOM     15  C   UNL     1      33.007 -23.991 -12.989  0.00  0.00    +0.061 C 
ATOM     16  C   UNL     1      30.462 -22.671 -15.228  0.00  0.00    +0.015 C 
ATOM     17  C   UNL     1      30.735 -22.093 -16.478  0.00  0.00    +0.001 C 
ATOM     18  C   UNL     1      30.581 -24.076 -12.393  0.00  0.00    +0.117 C 
ATOM     19  H   UNL     1      37.086 -23.263 -16.318  0.00  0.00    -0.080 HD
ENDROOT
BRANCH   6  20
ATOM     20  C   UNL     1      36.791 -20.014 -18.796  0.00  0.00    +0.091 C 
BRANCH  20  22
ATOM     21  O   UNL     1      35.737 -17.572 -19.965  0.00  0.00    -0.226 OA
ATOM     22  N   UNL     1      35.879 -19.888 -19.891  0.00  0.00    -0.271 N 
ATOM     23  C   UNL     1      35.422 -18.678 -20.391  0.00  0.00    +0.402 C 
ATOM     24  H   UNL     1      35.555 -20.715 -20.317  0.00  0.00    +0.153 HD
BRANCH  23  25
ATOM     25  O   UNL     1      34.566 -18.893 -21.434  0.00  0.00    -0.430 OA
BRANCH  25  26
ATOM     26  C   UNL     1      35.165 -18.934 -22.735  0.00  0.00    +0.237 C 
BRANCH  26  27
ATOM     27  C   UNL     1      34.697 -17.748 -23.526  0.00  0.00    +0.021 C 
ATOM     28  C   UNL     1      35.165 -16.478 -23.205  0.00  0.00    -0.001 C 
ATOM     29  C   UNL     1      33.802 -17.929 -24.574  0.00  0.00    -0.001 C 
ATOM     30  C   UNL     1      34.731 -15.376 -23.941  0.00  0.00    -0.000 C 
ATOM     31  C   UNL     1      33.367 -16.827 -25.310  0.00  0.00    -0.000 C 
ATOM     32  C   UNL     1      33.832 -15.550 -24.993  0.00  0.00    -0.000 C 
ENDBRANCH  26  27
ENDBRANCH  25  26
ENDBRANCH  23  25
ENDBRANCH  20  22
ENDBRANCH   6  20
TORSDOF 5
ENDMDL
MODEL 6
REMARK VINA RESULT:     -10.7      8.556     12.850
REMARK  Name = 28693
REMARK  5 active torsions:
REMARK  status: ('A' for Active; 'I' for Inactive)
REMARK    1  A    between atoms: C_6  and  C_20
REMARK    2  A    between atoms: C_20  and  N_22
REMARK    3  A    between atoms: C_23  and  O_25
REMARK    4  A    between atoms: O_25  and  C_26
REMARK    5  A    between atoms: C_26  and  C_27
REMARK                            x       y       z     vdW  Elec       q    Type
REMARK                         _______ _______ _______ _____ _____    ______ ____
ROOT
ATOM      1  N   UNL     1      34.260 -11.773 -25.004  0.00  0.00    +0.387 N 
ATOM      2  N   UNL     1      32.135  -8.614 -20.338  0.00  0.00    -0.284 N 
ATOM      3  C   UNL     1      33.742 -12.351 -22.610  0.00  0.00    +0.004 C 
ATOM      4  C   UNL     1      33.487 -11.341 -23.813  0.00  0.00    -0.050 C 
ATOM      5  C   UNL     1      33.384 -13.781 -23.036  0.00  0.00    +0.002 C 
ATOM      6  C   UNL     1      34.127 -14.164 -24.319  0.00  0.00    -0.001 C 
ATOM      7  C   UNL     1      33.790  -9.846 -23.411  0.00  0.00    +0.007 C 
ATOM      8  C   UNL     1      33.872 -13.131 -25.422  0.00  0.00    -0.076 C 
ATOM      9  C   UNL     1      33.017 -11.902 -21.353  0.00  0.00    -0.024 C 
ATOM     10  C   UNL     1      32.792 -10.526 -21.213  0.00  0.00    +0.007 C 
ATOM     11  C   UNL     1      33.120  -9.503 -22.124  0.00  0.00    -0.008 C 
ATOM     12  C   UNL     1      32.181  -9.971 -20.105  0.00  0.00    +0.051 C 
ATOM     13  C   UNL     1      34.107 -10.863 -26.143  0.00  0.00    -0.101 C 
ATOM     14  C   UNL     1      32.612 -12.703 -20.278  0.00  0.00    -0.004 C 
ATOM     15  C   UNL     1      32.706  -8.319 -21.560  0.00  0.00    +0.061 C 
ATOM     16  C   UNL     1      31.753 -10.763 -19.039  0.00  0.00    +0.015 C 
ATOM     17  C   UNL     1      31.987 -12.143 -19.151  0.00  0.00    +0.001 C 
ATOM     18  C   UNL     1      31.576  -7.627 -19.440  0.00  0.00    +0.117 C 
ATOM     19  H   UNL     1      35.240 -11.760 -24.720  0.00  0.00    -0.080 HD
ENDROOT
BRANCH   6  20
ATOM     20  C   UNL     1      33.714 -15.561 -24.782  0.00  0.00    +0.091 C 
BRANCH  20  22
ATOM     21  O   UNL     1      33.181 -18.417 -24.756  0.00  0.00    -0.226 OA
ATOM     22  N   UNL     1      34.384 -16.572 -24.023  0.00  0.00    -0.271 N 
ATOM     23  C   UNL     1      34.067 -17.921 -24.068  0.00  0.00    +0.402 C 
ATOM     24  H   UNL     1      35.119 -16.291 -23.431  0.00  0.00    +0.153 HD
BRANCH  23  25
ATOM     25  O   UNL     1      34.887 -18.625 -23.232  0.00  0.00    -0.430 OA
BRANCH  25  26
ATOM     26  C   UNL     1      35.177 -18.006 -21.974  0.00  0.00    +0.237 C 
BRANCH  26  27
ATOM     27  C   UNL     1      35.011 -19.019 -20.879  0.00  0.00    +0.021 C 
ATOM     28  C   UNL     1      36.135 -19.564 -20.269  0.00  0.00    -0.001 C 
ATOM     29  C   UNL     1      33.735 -19.402 -20.485  0.00  0.00    -0.001 C 
ATOM     30  C   UNL     1      35.981 -20.505 -19.251  0.00  0.00    -0.000 C 
ATOM     31  C   UNL     1      33.580 -20.344 -19.467  0.00  0.00    -0.000 C 
ATOM     32  C   UNL     1      34.704 -20.896 -18.851  0.00  0.00    -0.000 C 
ENDBRANCH  26  27
ENDBRANCH  25  26
ENDBRANCH  23  25
ENDBRANCH  20  22
ENDBRANCH   6  20
TORSDOF 5
ENDMDL
MODEL 7
REMARK VINA RESULT:     -10.6      3.635      8.784
REMARK  Name = 28693
REMARK  5 active torsions:
REMARK  status: ('A' for Active; 'I' for Inactive)
REMARK    1  A    between atoms: C_6  and  C_20
REMARK    2  A    between atoms: C_20  and  N_22
REMARK    3  A    between atoms: C_23  and  O_25
REMARK    4  A    between atoms: O_25  and  C_26
REMARK    5  A    between atoms: C_26  and  C_27
REMARK                            x       y       z     vdW  Elec       q    Type
REMARK                         _______ _______ _______ _____ _____    ______ ____
ROOT
ATOM      1  N   UNL     1      32.363 -22.421 -15.510  0.00  0.00    +0.387 N 
ATOM      2  N   UNL     1      36.844 -24.351 -11.980  0.00  0.00    -0.284 N 
ATOM      3  C   UNL     1      34.859 -22.101 -15.545  0.00  0.00    +0.004 C 
ATOM      4  C   UNL     1      33.645 -22.986 -15.020  0.00  0.00    -0.050 C 
ATOM      5  C   UNL     1      34.823 -22.009 -17.077  0.00  0.00    +0.002 C 
ATOM      6  C   UNL     1      33.458 -21.512 -17.555  0.00  0.00    -0.001 C 
ATOM      7  C   UNL     1      33.665 -23.156 -13.453  0.00  0.00    +0.007 C 
ATOM      8  C   UNL     1      32.332 -22.381 -16.983  0.00  0.00    -0.076 C 
ATOM      9  C   UNL     1      36.185 -22.613 -15.006  0.00  0.00    -0.024 C 
ATOM     10  C   UNL     1      36.149 -23.279 -13.775  0.00  0.00    +0.007 C 
ATOM     11  C   UNL     1      35.018 -23.574 -12.987  0.00  0.00    -0.008 C 
ATOM     12  C   UNL     1      37.281 -23.763 -13.146  0.00  0.00    +0.051 C 
ATOM     13  C   UNL     1      31.194 -23.164 -15.031  0.00  0.00    -0.101 C 
ATOM     14  C   UNL     1      37.454 -22.428 -15.569  0.00  0.00    -0.004 C 
ATOM     15  C   UNL     1      35.472 -24.238 -11.872  0.00  0.00    +0.061 C 
ATOM     16  C   UNL     1      38.547 -23.604 -13.710  0.00  0.00    +0.015 C 
ATOM     17  C   UNL     1      38.607 -22.922 -14.935  0.00  0.00    +0.001 C 
ATOM     18  C   UNL     1      37.688 -24.994 -10.997  0.00  0.00    +0.117 C 
ATOM     19  H   UNL     1      32.313 -21.475 -15.133  0.00  0.00    -0.080 HD
ENDROOT
BRANCH   6  20
ATOM     20  C   UNL     1      33.400 -21.490 -19.083  0.00  0.00    +0.091 C 
BRANCH  20  22
ATOM     21  O   UNL     1      35.958 -20.363 -19.871  0.00  0.00    -0.226 OA
ATOM     22  N   UNL     1      33.661 -20.178 -19.587  0.00  0.00    -0.271 N 
ATOM     23  C   UNL     1      34.919 -19.715 -19.942  0.00  0.00    +0.402 C 
ATOM     24  H   UNL     1      32.899 -19.563 -19.689  0.00  0.00    +0.153 HD
BRANCH  23  25
ATOM     25  O   UNL     1      34.838 -18.425 -20.387  0.00  0.00    -0.430 OA
BRANCH  25  26
ATOM     26  C   UNL     1      35.897 -17.995 -21.251  0.00  0.00    +0.237 C 
BRANCH  26  27
ATOM     27  C   UNL     1      35.303 -17.422 -22.504  0.00  0.00    +0.021 C 
ATOM     28  C   UNL     1      35.412 -16.059 -22.757  0.00  0.00    -0.001 C 
ATOM     29  C   UNL     1      34.651 -18.259 -23.402  0.00  0.00    -0.001 C 
ATOM     30  C   UNL     1      34.861 -15.526 -23.922  0.00  0.00    -0.000 C 
ATOM     31  C   UNL     1      34.099 -17.726 -24.567  0.00  0.00    -0.000 C 
ATOM     32  C   UNL     1      34.204 -16.359 -24.827  0.00  0.00    -0.000 C 
ENDBRANCH  26  27
ENDBRANCH  25  26
ENDBRANCH  23  25
ENDBRANCH  20  22
ENDBRANCH   6  20
TORSDOF 5
ENDMDL
MODEL 8
REMARK VINA RESULT:     -10.4      2.090      4.991
REMARK  Name = 28693
REMARK  5 active torsions:
REMARK  status: ('A' for Active; 'I' for Inactive)
REMARK    1  A    between atoms: C_6  and  C_20
REMARK    2  A    between atoms: C_20  and  N_22
REMARK    3  A    between atoms: C_23  and  O_25
REMARK    4  A    between atoms: O_25  and  C_26
REMARK    5  A    between atoms: C_26  and  C_27
REMARK                            x       y       z     vdW  Elec       q    Type
REMARK                         _______ _______ _______ _____ _____    ______ ____
ROOT
ATOM      1  N   UNL     1      35.022 -21.268 -17.554  0.00  0.00    +0.387 N 
ATOM      2  N   UNL     1      29.966 -23.590 -15.251  0.00  0.00    -0.284 N 
ATOM      3  C   UNL     1      34.373 -22.076 -15.261  0.00  0.00    +0.004 C 
ATOM      4  C   UNL     1      34.055 -22.121 -16.820  0.00  0.00    -0.050 C 
ATOM      5  C   UNL     1      35.824 -22.507 -15.005  0.00  0.00    +0.002 C 
ATOM      6  C   UNL     1      36.791 -21.671 -15.847  0.00  0.00    -0.001 C 
ATOM      7  C   UNL     1      32.558 -21.736 -17.134  0.00  0.00    +0.007 C 
ATOM      8  C   UNL     1      36.406 -21.723 -17.329  0.00  0.00    -0.076 C 
ATOM      9  C   UNL     1      33.359 -22.887 -14.471  0.00  0.00    -0.024 C 
ATOM     10  C   UNL     1      32.079 -23.009 -15.027  0.00  0.00    +0.007 C 
ATOM     11  C   UNL     1      31.625 -22.504 -16.262  0.00  0.00    -0.008 C 
ATOM     12  C   UNL     1      31.047 -23.683 -14.402  0.00  0.00    +0.051 C 
ATOM     13  C   UNL     1      34.765 -21.227 -18.997  0.00  0.00    -0.101 C 
ATOM     14  C   UNL     1      33.539 -23.466 -13.209  0.00  0.00    -0.004 C 
ATOM     15  C   UNL     1      30.305 -22.874 -16.381  0.00  0.00    +0.061 C 
ATOM     16  C   UNL     1      31.223 -24.283 -13.155  0.00  0.00    +0.015 C 
ATOM     17  C   UNL     1      32.493 -24.155 -12.571  0.00  0.00    +0.001 C 
ATOM     18  C   UNL     1      28.657 -24.154 -15.006  0.00  0.00    +0.117 C 
ATOM     19  H   UNL     1      34.899 -20.325 -17.185  0.00  0.00    -0.080 HD
ENDROOT
BRANCH   6  20
ATOM     20  C   UNL     1      38.229 -22.150 -15.645  0.00  0.00    +0.091 C 
BRANCH  20  22
ATOM     21  O   UNL     1      40.549 -23.688 -14.814  0.00  0.00    -0.226 OA
ATOM     22  N   UNL     1      38.257 -23.483 -15.127  0.00  0.00    -0.271 N 
ATOM     23  C   UNL     1      39.414 -24.149 -14.752  0.00  0.00    +0.402 C 
ATOM     24  H   UNL     1      37.400 -23.957 -15.031  0.00  0.00    +0.153 HD
BRANCH  23  25
ATOM     25  O   UNL     1      39.110 -25.402 -14.298  0.00  0.00    -0.430 OA
BRANCH  25  26
ATOM     26  C   UNL     1      39.258 -25.608 -12.889  0.00  0.00    +0.237 C 
BRANCH  26  27
ATOM     27  C   UNL     1      38.310 -24.703 -12.158  0.00  0.00    +0.021 C 
ATOM     28  C   UNL     1      38.757 -23.472 -11.688  0.00  0.00    -0.001 C 
ATOM     29  C   UNL     1      36.994 -25.101 -11.959  0.00  0.00    -0.001 C 
ATOM     30  C   UNL     1      37.877 -22.630 -11.010  0.00  0.00    -0.000 C 
ATOM     31  C   UNL     1      36.112 -24.259 -11.280  0.00  0.00    -0.000 C 
ATOM     32  C   UNL     1      36.554 -23.024 -10.805  0.00  0.00    -0.000 C 
ENDBRANCH  26  27
ENDBRANCH  25  26
ENDBRANCH  23  25
ENDBRANCH  20  22
ENDBRANCH   6  20
TORSDOF 5
ENDMDL
MODEL 9
REMARK VINA RESULT:     -10.1      4.474      9.411
REMARK  Name = 28693
REMARK  5 active torsions:
REMARK  status: ('A' for Active; 'I' for Inactive)
REMARK    1  A    between atoms: C_6  and  C_20
REMARK    2  A    between atoms: C_20  and  N_22
REMARK    3  A    between atoms: C_23  and  O_25
REMARK    4  A    between atoms: O_25  and  C_26
REMARK    5  A    between atoms: C_26  and  C_27
REMARK                            x       y       z     vdW  Elec       q    Type
REMARK                         _______ _______ _______ _____ _____    ______ ____
ROOT
ATOM      1  N   UNL     1      33.339 -21.863 -16.590  0.00  0.00    +0.387 N 
ATOM      2  N   UNL     1      36.768 -24.682 -12.521  0.00  0.00    -0.284 N 
ATOM      3  C   UNL     1      35.802 -21.828 -16.075  0.00  0.00    +0.004 C 
ATOM      4  C   UNL     1      34.431 -22.623 -15.932  0.00  0.00    -0.050 C 
ATOM      5  C   UNL     1      36.105 -21.559 -17.556  0.00  0.00    +0.002 C 
ATOM      6  C   UNL     1      34.923 -20.857 -18.228  0.00  0.00    -0.001 C 
ATOM      7  C   UNL     1      34.098 -22.972 -14.431  0.00  0.00    +0.007 C 
ATOM      8  C   UNL     1      33.629 -21.651 -18.019  0.00  0.00    -0.076 C 
ATOM      9  C   UNL     1      36.931 -22.547 -15.354  0.00  0.00    -0.024 C 
ATOM     10  C   UNL     1      36.573 -23.340 -14.257  0.00  0.00    +0.007 C 
ATOM     11  C   UNL     1      35.278 -23.592 -13.762  0.00  0.00    -0.008 C 
ATOM     12  C   UNL     1      37.496 -24.019 -13.484  0.00  0.00    +0.051 C 
ATOM     13  C   UNL     1      32.034 -22.516 -16.462  0.00  0.00    -0.101 C 
ATOM     14  C   UNL     1      38.303 -22.445 -15.618  0.00  0.00    -0.004 C 
ATOM     15  C   UNL     1      35.421 -24.427 -12.678  0.00  0.00    +0.061 C 
ATOM     16  C   UNL     1      38.863 -23.943 -13.753  0.00  0.00    +0.015 C 
ATOM     17  C   UNL     1      39.244 -23.136 -14.837  0.00  0.00    +0.001 C 
ATOM     18  C   UNL     1      37.322 -25.526 -11.484  0.00  0.00    +0.117 C 
ATOM     19  H   UNL     1      33.293 -20.967 -16.105  0.00  0.00    -0.080 HD
ENDROOT
BRANCH   6  20
ATOM     20  C   UNL     1      35.198 -20.655 -19.719  0.00  0.00    +0.091 C 
BRANCH  20  22
ATOM     21  O   UNL     1      34.456 -18.919 -21.927  0.00  0.00    -0.226 OA
ATOM     22  N   UNL     1      35.654 -19.325 -19.980  0.00  0.00    -0.271 N 
ATOM     23  C   UNL     1      35.249 -18.559 -21.063  0.00  0.00    +0.402 C 
ATOM     24  H   UNL     1      36.298 -18.927 -19.350  0.00  0.00    +0.153 HD
BRANCH  23  25
ATOM     25  O   UNL     1      35.862 -17.338 -21.033  0.00  0.00    -0.430 OA
BRANCH  25  26
ATOM     26  C   UNL     1      35.845 -16.601 -22.260  0.00  0.00    +0.237 C 
BRANCH  26  27
ATOM     27  C   UNL     1      35.181 -15.275 -22.026  0.00  0.00    +0.021 C 
ATOM     28  C   UNL     1      34.876 -14.457 -23.108  0.00  0.00    -0.001 C 
ATOM     29  C   UNL     1      34.877 -14.878 -20.729  0.00  0.00    -0.001 C 
ATOM     30  C   UNL     1      34.259 -13.226 -22.891  0.00  0.00    -0.000 C 
ATOM     31  C   UNL     1      34.260 -13.646 -20.511  0.00  0.00    -0.000 C 
ATOM     32  C   UNL     1      33.951 -12.819 -21.592  0.00  0.00    -0.000 C 
ENDBRANCH  26  27
ENDBRANCH  25  26
ENDBRANCH  23  25
ENDBRANCH  20  22
ENDBRANCH   6  20
TORSDOF 5
ENDMDL
