MODEL 1
REMARK VINA RESULT:     -13.2      0.000      0.000
REMARK  Name = 3815
REMARK  0 active torsions:
REMARK  status: ('A' for Active; 'I' for Inactive)
REMARK                            x       y       z     vdW  Elec       q    Type
REMARK                         _______ _______ _______ _____ _____    ______ ____
ROOT
ATOM      1  O   UNL     1      31.299 -22.200 -16.570  0.00  0.00    -0.270 OA
ATOM      2  N   UNL     1      37.722 -22.707 -15.349  0.00  0.00    -0.352 N 
ATOM      3  N   UNL     1      36.632 -21.369 -17.539  0.00  0.00    -0.352 N 
ATOM      4  N   UNL     1      31.783 -23.414 -14.620  0.00  0.00    -0.297 N 
ATOM      5  C   UNL     1      34.059 -23.256 -14.720  0.00  0.00    +0.003 A 
ATOM      6  C   UNL     1      35.451 -23.253 -14.632  0.00  0.00    +0.016 A 
ATOM      7  C   UNL     1      34.405 -21.975 -16.725  0.00  0.00    +0.022 A 
ATOM      8  C   UNL     1      36.383 -22.645 -15.533  0.00  0.00    +0.072 A 
ATOM      9  C   UNL     1      33.529 -22.580 -15.824  0.00  0.00    +0.053 A 
ATOM     10  C   UNL     1      35.836 -21.975 -16.630  0.00  0.00    +0.073 A 
ATOM     11  C   UNL     1      32.964 -23.829 -13.886  0.00  0.00    +0.117 C 
ATOM     12  C   UNL     1      36.472 -23.785 -13.724  0.00  0.00    +0.017 A 
ATOM     13  C   UNL     1      34.361 -21.192 -17.970  0.00  0.00    +0.017 A 
ATOM     14  C   UNL     1      37.790 -23.446 -14.175  0.00  0.00    +0.057 A 
ATOM     15  C   UNL     1      35.686 -20.857 -18.413  0.00  0.00    +0.057 A 
ATOM     16  C   UNL     1      32.076 -22.677 -15.766  0.00  0.00    +0.246 C 
ATOM     17  C   UNL     1      36.359 -24.542 -12.534  0.00  0.00    +0.001 C 
ATOM     18  C   UNL     1      33.282 -20.734 -18.765  0.00  0.00    +0.001 C 
ATOM     19  C   UNL     1      38.933 -23.845 -13.468  0.00  0.00    +0.017 C 
ATOM     20  C   UNL     1      35.908 -20.112 -19.581  0.00  0.00    +0.017 C 
ATOM     21  C   UNL     1      37.506 -24.935 -11.837  0.00  0.00    +0.000 C 
ATOM     22  C   UNL     1      33.515 -19.993 -19.928  0.00  0.00    +0.000 C 
ATOM     23  C   UNL     1      38.771 -24.591 -12.298  0.00  0.00    +0.001 C 
ATOM     24  C   UNL     1      34.809 -19.687 -20.328  0.00  0.00    +0.001 C 
ATOM     25  H   UNL     1      38.449 -22.331 -15.896  0.00  0.00    +0.166 HD
ATOM     26  H   UNL     1      37.614 -21.307 -17.571  0.00  0.00    +0.166 HD
ATOM     27  H   UNL     1      30.866 -23.630 -14.337  0.00  0.00    +0.150 HD
ENDROOT
TORSDOF 0
ENDMDL
MODEL 2
REMARK VINA RESULT:     -12.8      0.957      5.964
REMARK  Name = 3815
REMARK  0 active torsions:
REMARK  status: ('A' for Active; 'I' for Inactive)
REMARK                            x       y       z     vdW  Elec       q    Type
REMARK                         _______ _______ _______ _____ _____    ______ ____
ROOT
ATOM      1  O   UNL     1      32.945 -24.377 -12.841  0.00  0.00    -0.270 OA
ATOM      2  N   UNL     1      36.587 -21.441 -17.437  0.00  0.00    -0.352 N 
ATOM      3  N   UNL     1      37.619 -22.740 -15.196  0.00  0.00    -0.352 N 
ATOM      4  N   UNL     1      31.672 -23.402 -14.556  0.00  0.00    -0.297 N 
ATOM      5  C   UNL     1      33.407 -22.578 -15.792  0.00  0.00    +0.003 A 
ATOM      6  C   UNL     1      34.343 -22.015 -16.657  0.00  0.00    +0.016 A 
ATOM      7  C   UNL     1      35.326 -23.258 -14.514  0.00  0.00    +0.022 A 
ATOM      8  C   UNL     1      35.769 -22.024 -16.530  0.00  0.00    +0.072 A 
ATOM      9  C   UNL     1      33.941 -23.227 -14.674  0.00  0.00    +0.053 A 
ATOM     10  C   UNL     1      36.286 -22.676 -15.407  0.00  0.00    +0.073 A 
ATOM     11  C   UNL     1      31.917 -22.656 -15.776  0.00  0.00    +0.117 C 
ATOM     12  C   UNL     1      34.328 -21.258 -17.914  0.00  0.00    +0.017 A 
ATOM     13  C   UNL     1      36.330 -23.777 -13.572  0.00  0.00    +0.017 A 
ATOM     14  C   UNL     1      35.659 -20.939 -18.340  0.00  0.00    +0.057 A 
ATOM     15  C   UNL     1      37.660 -23.453 -14.007  0.00  0.00    +0.057 A 
ATOM     16  C   UNL     1      32.838 -23.755 -13.880  0.00  0.00    +0.246 C 
ATOM     17  C   UNL     1      33.255 -20.819 -18.726  0.00  0.00    +0.001 C 
ATOM     18  C   UNL     1      36.208 -24.509 -12.365  0.00  0.00    +0.001 C 
ATOM     19  C   UNL     1      35.899 -20.219 -19.518  0.00  0.00    +0.017 C 
ATOM     20  C   UNL     1      38.792 -23.839 -13.275  0.00  0.00    +0.017 C 
ATOM     21  C   UNL     1      33.506 -20.101 -19.899  0.00  0.00    +0.000 C 
ATOM     22  C   UNL     1      37.344 -24.889 -11.642  0.00  0.00    +0.000 C 
ATOM     23  C   UNL     1      34.808 -19.807 -20.286  0.00  0.00    +0.001 C 
ATOM     24  C   UNL     1      38.616 -24.558 -12.092  0.00  0.00    +0.001 C 
ATOM     25  H   UNL     1      37.570 -21.385 -17.452  0.00  0.00    +0.166 HD
ATOM     26  H   UNL     1      38.358 -22.381 -15.738  0.00  0.00    +0.166 HD
ATOM     27  H   UNL     1      30.771 -23.637 -14.237  0.00  0.00    +0.150 HD
ENDROOT
TORSDOF 0
ENDMDL
MODEL 3
REMARK VINA RESULT:     -12.8      2.236      4.762
REMARK  Name = 3815
REMARK  0 active torsions:
REMARK  status: ('A' for Active; 'I' for Inactive)
REMARK                            x       y       z     vdW  Elec       q    Type
REMARK                         _______ _______ _______ _____ _____    ______ ____
ROOT
ATOM      1  O   UNL     1      37.800 -21.935 -15.992  0.00  0.00    -0.270 OA
ATOM      2  N   UNL     1      31.303 -22.380 -16.766  0.00  0.00    -0.352 N 
ATOM      3  N   UNL     1      33.019 -21.078 -18.536  0.00  0.00    -0.352 N 
ATOM      4  N   UNL     1      36.736 -23.117 -14.266  0.00  0.00    -0.297 N 
ATOM      5  C   UNL     1      34.599 -22.946 -15.053  0.00  0.00    +0.003 A 
ATOM      6  C   UNL     1      33.246 -22.933 -15.391  0.00  0.00    +0.016 A 
ATOM      7  C   UNL     1      34.889 -21.689 -17.081  0.00  0.00    +0.022 A 
ATOM      8  C   UNL     1      32.636 -22.331 -16.537  0.00  0.00    +0.072 A 
ATOM      9  C   UNL     1      35.445 -22.289 -15.952  0.00  0.00    +0.053 A 
ATOM     10  C   UNL     1      33.496 -21.678 -17.424  0.00  0.00    +0.073 A 
ATOM     11  C   UNL     1      35.384 -23.515 -13.919  0.00  0.00    +0.117 C 
ATOM     12  C   UNL     1      31.992 -23.445 -14.828  0.00  0.00    +0.017 A 
ATOM     13  C   UNL     1      35.316 -20.920 -18.261  0.00  0.00    +0.017 A 
ATOM     14  C   UNL     1      30.876 -23.103 -15.660  0.00  0.00    +0.057 A 
ATOM     15  C   UNL     1      34.190 -20.582 -19.088  0.00  0.00    +0.057 A 
ATOM     16  C   UNL     1      36.811 -22.395 -15.455  0.00  0.00    +0.246 C 
ATOM     17  C   UNL     1      31.731 -24.187 -13.651  0.00  0.00    +0.001 C 
ATOM     18  C   UNL     1      36.589 -20.481 -18.697  0.00  0.00    +0.001 C 
ATOM     19  C   UNL     1      29.568 -23.485 -15.328  0.00  0.00    +0.017 C 
ATOM     20  C   UNL     1      34.339 -19.848 -20.274  0.00  0.00    +0.017 C 
ATOM     21  C   UNL     1      30.423 -24.563 -13.329  0.00  0.00    +0.000 C 
ATOM     22  C   UNL     1      36.726 -19.749 -19.881  0.00  0.00    +0.000 C 
ATOM     23  C   UNL     1      29.361 -24.216 -14.156  0.00  0.00    +0.001 C 
ATOM     24  C   UNL     1      35.617 -19.438 -20.657  0.00  0.00    +0.001 C 
ATOM     25  H   UNL     1      30.780 -22.006 -17.511  0.00  0.00    +0.166 HD
ATOM     26  H   UNL     1      32.094 -21.011 -18.866  0.00  0.00    +0.166 HD
ATOM     27  H   UNL     1      37.522 -23.337 -13.717  0.00  0.00    +0.150 HD
ENDROOT
TORSDOF 0
ENDMDL
MODEL 4
REMARK VINA RESULT:     -12.6      2.123      6.297
REMARK  Name = 3815
REMARK  0 active torsions:
REMARK  status: ('A' for Active; 'I' for Inactive)
REMARK                            x       y       z     vdW  Elec       q    Type
REMARK                         _______ _______ _______ _____ _____    ______ ____
ROOT
ATOM      1  O   UNL     1      34.985 -24.040 -13.109  0.00  0.00    -0.270 OA
ATOM      2  N   UNL     1      32.920 -21.087 -18.588  0.00  0.00    -0.352 N 
ATOM      3  N   UNL     1      31.256 -22.408 -16.784  0.00  0.00    -0.352 N 
ATOM      4  N   UNL     1      36.718 -23.050 -14.343  0.00  0.00    -0.297 N 
ATOM      5  C   UNL     1      35.445 -22.224 -16.049  0.00  0.00    +0.003 A 
ATOM      6  C   UNL     1      34.817 -21.656 -17.157  0.00  0.00    +0.016 A 
ATOM      7  C   UNL     1      33.229 -22.920 -15.430  0.00  0.00    +0.022 A 
ATOM      8  C   UNL     1      33.422 -21.674 -17.477  0.00  0.00    +0.072 A 
ATOM      9  C   UNL     1      34.595 -22.881 -15.154  0.00  0.00    +0.053 A 
ATOM     10  C   UNL     1      32.588 -22.336 -16.572  0.00  0.00    +0.073 A 
ATOM     11  C   UNL     1      36.857 -22.296 -15.575  0.00  0.00    +0.117 C 
ATOM     12  C   UNL     1      35.215 -20.892 -18.344  0.00  0.00    +0.017 A 
ATOM     13  C   UNL     1      31.987 -23.453 -14.847  0.00  0.00    +0.017 A 
ATOM     14  C   UNL     1      34.079 -20.576 -19.159  0.00  0.00    +0.057 A 
ATOM     15  C   UNL     1      30.855 -23.132 -15.671  0.00  0.00    +0.057 A 
ATOM     16  C   UNL     1      35.403 -23.412 -14.062  0.00  0.00    +0.246 C 
ATOM     17  C   UNL     1      36.484 -20.443 -18.783  0.00  0.00    +0.001 C 
ATOM     18  C   UNL     1      31.735 -24.193 -13.667  0.00  0.00    +0.001 C 
ATOM     19  C   UNL     1      34.209 -19.848 -20.350  0.00  0.00    +0.017 C 
ATOM     20  C   UNL     1      29.554 -23.531 -15.327  0.00  0.00    +0.017 C 
ATOM     21  C   UNL     1      36.602 -19.718 -19.973  0.00  0.00    +0.000 C 
ATOM     22  C   UNL     1      30.434 -24.587 -13.334  0.00  0.00    +0.000 C 
ATOM     23  C   UNL     1      35.482 -19.427 -20.742  0.00  0.00    +0.001 C 
ATOM     24  C   UNL     1      29.362 -24.259 -14.153  0.00  0.00    +0.001 C 
ATOM     25  H   UNL     1      31.990 -21.036 -18.906  0.00  0.00    +0.166 HD
ATOM     26  H   UNL     1      30.717 -22.047 -17.524  0.00  0.00    +0.166 HD
ATOM     27  H   UNL     1      37.479 -23.283 -13.762  0.00  0.00    +0.150 HD
ENDROOT
TORSDOF 0
ENDMDL
MODEL 5
REMARK VINA RESULT:     -12.1      1.667      4.457
REMARK  Name = 3815
REMARK  0 active torsions:
REMARK  status: ('A' for Active; 'I' for Inactive)
REMARK                            x       y       z     vdW  Elec       q    Type
REMARK                         _______ _______ _______ _____ _____    ______ ____
ROOT
ATOM      1  O   UNL     1      32.732 -21.286 -18.015  0.00  0.00    -0.270 OA
ATOM      2  N   UNL     1      35.448 -24.541 -13.012  0.00  0.00    -0.352 N 
ATOM      3  N   UNL     1      32.704 -24.330 -13.454  0.00  0.00    -0.352 N 
ATOM      4  N   UNL     1      35.078 -21.209 -18.018  0.00  0.00    -0.297 N 
ATOM      5  C   UNL     1      35.426 -22.455 -16.136  0.00  0.00    +0.003 A 
ATOM      6  C   UNL     1      35.811 -23.191 -15.017  0.00  0.00    +0.016 A 
ATOM      7  C   UNL     1      33.187 -22.988 -15.442  0.00  0.00    +0.022 A 
ATOM      8  C   UNL     1      34.963 -23.850 -14.069  0.00  0.00    +0.072 A 
ATOM      9  C   UNL     1      34.047 -22.360 -16.344  0.00  0.00    +0.053 A 
ATOM     10  C   UNL     1      33.588 -23.744 -14.291  0.00  0.00    +0.073 A 
ATOM     11  C   UNL     1      36.165 -21.719 -17.203  0.00  0.00    +0.117 C 
ATOM     12  C   UNL     1      37.065 -23.585 -14.367  0.00  0.00    +0.017 A 
ATOM     13  C   UNL     1      31.744 -23.178 -15.223  0.00  0.00    +0.017 A 
ATOM     14  C   UNL     1      36.815 -24.374 -13.196  0.00  0.00    +0.057 A 
ATOM     15  C   UNL     1      31.504 -23.970 -14.048  0.00  0.00    +0.057 A 
ATOM     16  C   UNL     1      33.817 -21.565 -17.544  0.00  0.00    +0.246 C 
ATOM     17  C   UNL     1      38.414 -23.318 -14.703  0.00  0.00    +0.001 C 
ATOM     18  C   UNL     1      30.609 -22.733 -15.942  0.00  0.00    +0.001 C 
ATOM     19  C   UNL     1      37.862 -24.868 -12.407  0.00  0.00    +0.017 C 
ATOM     20  C   UNL     1      30.205 -24.290 -13.626  0.00  0.00    +0.017 C 
ATOM     21  C   UNL     1      39.451 -23.816 -13.908  0.00  0.00    +0.000 C 
ATOM     22  C   UNL     1      29.318 -23.057 -15.513  0.00  0.00    +0.000 C 
ATOM     23  C   UNL     1      39.177 -24.578 -12.779  0.00  0.00    +0.001 C 
ATOM     24  C   UNL     1      29.121 -23.825 -14.372  0.00  0.00    +0.001 C 
ATOM     25  H   UNL     1      34.967 -25.027 -12.305  0.00  0.00    +0.166 HD
ATOM     26  H   UNL     1      32.866 -24.867 -12.645  0.00  0.00    +0.166 HD
ATOM     27  H   UNL     1      35.217 -20.665 -18.826  0.00  0.00    +0.150 HD
ENDROOT
TORSDOF 0
ENDMDL
MODEL 6
REMARK VINA RESULT:     -11.8      2.034      6.316
REMARK  Name = 3815
REMARK  0 active torsions:
REMARK  status: ('A' for Active; 'I' for Inactive)
REMARK                            x       y       z     vdW  Elec       q    Type
REMARK                         _______ _______ _______ _____ _____    ______ ____
ROOT
ATOM      1  O   UNL     1      37.109 -21.594 -17.305  0.00  0.00    -0.270 OA
ATOM      2  N   UNL     1      32.592 -24.353 -13.434  0.00  0.00    -0.352 N 
ATOM      3  N   UNL     1      35.342 -24.487 -12.995  0.00  0.00    -0.352 N 
ATOM      4  N   UNL     1      34.909 -21.239 -18.041  0.00  0.00    -0.297 N 
ATOM      5  C   UNL     1      33.842 -22.377 -16.374  0.00  0.00    +0.003 A 
ATOM      6  C   UNL     1      33.041 -23.028 -15.437  0.00  0.00    +0.016 A 
ATOM      7  C   UNL     1      35.671 -23.155 -15.021  0.00  0.00    +0.022 A 
ATOM      8  C   UNL     1      33.464 -23.756 -14.279  0.00  0.00    +0.072 A 
ATOM      9  C   UNL     1      35.218 -22.454 -16.139  0.00  0.00    +0.053 A 
ATOM     10  C   UNL     1      34.842 -23.823 -14.060  0.00  0.00    +0.073 A 
ATOM     11  C   UNL     1      33.569 -21.590 -17.612  0.00  0.00    +0.117 C 
ATOM     12  C   UNL     1      31.608 -23.250 -15.217  0.00  0.00    +0.017 A 
ATOM     13  C   UNL     1      36.938 -23.512 -14.365  0.00  0.00    +0.017 A 
ATOM     14  C   UNL     1      31.383 -24.030 -14.035  0.00  0.00    +0.057 A 
ATOM     15  C   UNL     1      36.702 -24.292 -13.182  0.00  0.00    +0.057 A 
ATOM     16  C   UNL     1      35.906 -21.729 -17.200  0.00  0.00    +0.246 C 
ATOM     17  C   UNL     1      30.474 -22.834 -15.956  0.00  0.00    +0.001 C 
ATOM     18  C   UNL     1      38.287 -23.228 -14.689  0.00  0.00    +0.001 C 
ATOM     19  C   UNL     1      30.089 -24.371 -13.617  0.00  0.00    +0.017 C 
ATOM     20  C   UNL     1      37.756 -24.756 -12.380  0.00  0.00    +0.017 C 
ATOM     21  C   UNL     1      29.189 -23.181 -15.529  0.00  0.00    +0.000 C 
ATOM     22  C   UNL     1      39.330 -23.696 -13.884  0.00  0.00    +0.000 C 
ATOM     23  C   UNL     1      29.002 -23.938 -14.379  0.00  0.00    +0.001 C 
ATOM     24  C   UNL     1      39.066 -24.448 -12.746  0.00  0.00    +0.001 C 
ATOM     25  H   UNL     1      32.766 -24.873 -12.616  0.00  0.00    +0.166 HD
ATOM     26  H   UNL     1      34.871 -24.975 -12.281  0.00  0.00    +0.166 HD
ATOM     27  H   UNL     1      35.097 -20.705 -18.847  0.00  0.00    +0.150 HD
ENDROOT
TORSDOF 0
ENDMDL
MODEL 7
REMARK VINA RESULT:     -10.4      7.771     12.087
REMARK  Name = 3815
REMARK  0 active torsions:
REMARK  status: ('A' for Active; 'I' for Inactive)
REMARK                            x       y       z     vdW  Elec       q    Type
REMARK                         _______ _______ _______ _____ _____    ______ ____
ROOT
ATOM      1  O   UNL     1      34.944 -15.659 -25.496  0.00  0.00    -0.270 OA
ATOM      2  N   UNL     1      33.392 -12.892 -19.757  0.00  0.00    -0.352 N 
ATOM      3  N   UNL     1      34.747 -15.313 -20.027  0.00  0.00    -0.352 N 
ATOM      4  N   UNL     1      33.802 -13.622 -25.724  0.00  0.00    -0.297 N 
ATOM      5  C   UNL     1      33.546 -13.166 -23.501  0.00  0.00    +0.003 A 
ATOM      6  C   UNL     1      33.309 -12.740 -22.195  0.00  0.00    +0.016 A 
ATOM      7  C   UNL     1      34.604 -15.055 -22.456  0.00  0.00    +0.022 A 
ATOM      8  C   UNL     1      33.677 -13.400 -20.979  0.00  0.00    +0.072 A 
ATOM      9  C   UNL     1      34.228 -14.381 -23.618  0.00  0.00    +0.053 A 
ATOM     10  C   UNL     1      34.356 -14.613 -21.114  0.00  0.00    +0.073 A 
ATOM     11  C   UNL     1      33.235 -12.611 -24.850  0.00  0.00    +0.117 C 
ATOM     12  C   UNL     1      32.668 -11.597 -21.536  0.00  0.00    +0.017 A 
ATOM     13  C   UNL     1      35.294 -16.291 -22.057  0.00  0.00    +0.017 A 
ATOM     14  C   UNL     1      32.736 -11.720 -20.109  0.00  0.00    +0.057 A 
ATOM     15  C   UNL     1      35.357 -16.405 -20.626  0.00  0.00    +0.057 A 
ATOM     16  C   UNL     1      34.393 -14.678 -25.036  0.00  0.00    +0.246 C 
ATOM     17  C   UNL     1      32.026 -10.452 -22.067  0.00  0.00    +0.001 C 
ATOM     18  C   UNL     1      35.880 -17.337 -22.812  0.00  0.00    +0.001 C 
ATOM     19  C   UNL     1      32.190 -10.745 -19.262  0.00  0.00    +0.017 C 
ATOM     20  C   UNL     1      35.969 -17.501 -19.998  0.00  0.00    +0.017 C 
ATOM     21  C   UNL     1      31.486  -9.486 -21.213  0.00  0.00    +0.000 C 
ATOM     22  C   UNL     1      36.486 -18.425 -22.175  0.00  0.00    +0.000 C 
ATOM     23  C   UNL     1      31.567  -9.633 -19.833  0.00  0.00    +0.001 C 
ATOM     24  C   UNL     1      36.529 -18.504 -20.789  0.00  0.00    +0.001 C 
ATOM     25  H   UNL     1      33.594 -13.253 -18.864  0.00  0.00    +0.166 HD
ATOM     26  H   UNL     1      34.632 -15.106 -19.072  0.00  0.00    +0.166 HD
ATOM     27  H   UNL     1      33.771 -13.566 -26.706  0.00  0.00    +0.150 HD
ENDROOT
TORSDOF 0
ENDMDL
