MODEL 1
REMARK VINA RESULT:     -11.5      0.000      0.000
REMARK  Name = 24963036
REMARK  7 active torsions:
REMARK  status: ('A' for Active; 'I' for Inactive)
REMARK    1  A    between atoms: N_2  and  C_20
REMARK    2  A    between atoms: C_3  and  C_7
REMARK    3  A    between atoms: C_11  and  C_12
REMARK    4  A    between atoms: C_12  and  O_13
REMARK    5  A    between atoms: O_13  and  C_14
REMARK    6  A    between atoms: C_20  and  C_21
REMARK    7  A    between atoms: C_26  and  C_29
REMARK                            x       y       z     vdW  Elec       q    Type
REMARK                         _______ _______ _______ _____ _____    ______ ____
ROOT
ATOM      1  O   UNL     1      32.465 -24.540 -12.738  0.00  0.00    -0.273 OA
ATOM      2  N   UNL     1      34.281 -23.101 -12.510  0.00  0.00    -0.299 N 
ATOM      3  C   UNL     1      33.029 -23.474 -12.970  0.00  0.00    +0.241 C 
ATOM      4  H   UNL     1      34.628 -22.216 -12.764  0.00  0.00    +0.150 HD
ENDROOT
BRANCH   3   7
ATOM      5  O   UNL     1      34.818 -22.134 -15.297  0.00  0.00    -0.272 OA
ATOM      6  N   UNL     1      32.589 -22.751 -15.193  0.00  0.00    -0.271 N 
ATOM      7  C   UNL     1      32.384 -22.401 -13.794  0.00  0.00    +0.152 C 
ATOM      8  C   UNL     1      30.870 -22.384 -13.617  0.00  0.00    +0.031 C 
ATOM      9  C   UNL     1      30.381 -23.397 -14.650  0.00  0.00    +0.024 C 
ATOM     10  C   UNL     1      31.346 -23.205 -15.811  0.00  0.00    +0.094 C 
ATOM     11  C   UNL     1      33.786 -22.517 -15.852  0.00  0.00    +0.256 C 
BRANCH  11  12
ATOM     12  C   UNL     1      33.772 -22.775 -17.338  0.00  0.00    +0.227 C 
BRANCH  12  13
ATOM     13  O   UNL     1      34.999 -22.305 -17.840  0.00  0.00    -0.347 OA
BRANCH  13  14
ATOM     14  C   UNL     1      34.831 -21.519 -19.013  0.00  0.00    +0.116 C 
ATOM     15  C   UNL     1      33.526 -20.729 -18.918  0.00  0.00    +0.030 C 
ATOM     16  C   UNL     1      36.035 -20.594 -19.188  0.00  0.00    +0.030 C 
ATOM     17  C   UNL     1      33.347 -19.794 -20.111  0.00  0.00    +0.002 C 
ATOM     18  C   UNL     1      35.857 -19.660 -20.381  0.00  0.00    +0.002 C 
ATOM     19  C   UNL     1      34.552 -18.873 -20.287  0.00  0.00    +0.000 C 
ENDBRANCH  13  14
ENDBRANCH  12  13
ENDBRANCH  11  12
ENDBRANCH   3   7
BRANCH   2  20
ATOM     20  C   UNL     1      35.101 -23.949 -11.675  0.00  0.00    +0.116 C 
BRANCH  20  21
ATOM     21  C   UNL     1      36.453 -24.194 -12.280  0.00  0.00    -0.003 C 
ATOM     22  C   UNL     1      37.602 -24.030 -11.506  0.00  0.00    -0.003 C 
ATOM     23  C   UNL     1      36.560 -24.584 -13.614  0.00  0.00    -0.003 C 
ATOM     24  C   UNL     1      38.859 -24.257 -12.068  0.00  0.00    +0.002 C 
ATOM     25  C   UNL     1      37.816 -24.811 -14.176  0.00  0.00    +0.002 C 
ATOM     26  C   UNL     1      38.966 -24.647 -13.404  0.00  0.00    +0.031 C 
BRANCH  26  29
ATOM     27  N   UNL     1      40.851 -26.152 -13.991  0.00  0.00    -0.343 N 
ATOM     28  N   UNL     1      40.945 -23.880 -14.530  0.00  0.00    -0.285 NA
ATOM     29  C   UNL     1      40.275 -24.882 -13.989  0.00  0.00    +0.117 C 
ATOM     30  H   UNL     1      41.740 -26.289 -14.393  0.00  0.00    +0.144 HD
ATOM     31  H   UNL     1      40.370 -26.911 -13.589  0.00  0.00    +0.144 HD
ATOM     32  H   UNL     1      41.831 -24.038 -14.928  0.00  0.00    +0.188 HD
ENDBRANCH  26  29
ENDBRANCH  20  21
ENDBRANCH   2  20
TORSDOF 7
ENDMDL
MODEL 2
REMARK VINA RESULT:     -10.3      2.493      7.166
REMARK  Name = 24963036
REMARK  7 active torsions:
REMARK  status: ('A' for Active; 'I' for Inactive)
REMARK    1  A    between atoms: N_2  and  C_20
REMARK    2  A    between atoms: C_3  and  C_7
REMARK    3  A    between atoms: C_11  and  C_12
REMARK    4  A    between atoms: C_12  and  O_13
REMARK    5  A    between atoms: O_13  and  C_14
REMARK    6  A    between atoms: C_20  and  C_21
REMARK    7  A    between atoms: C_26  and  C_29
REMARK                            x       y       z     vdW  Elec       q    Type
REMARK                         _______ _______ _______ _____ _____    ______ ____
ROOT
ATOM      1  O   UNL     1      38.475 -23.418 -14.310  0.00  0.00    -0.273 OA
ATOM      2  N   UNL     1      37.165 -21.695 -15.167  0.00  0.00    -0.299 N 
ATOM      3  C   UNL     1      37.603 -22.562 -14.181  0.00  0.00    +0.241 C 
ATOM      4  H   UNL     1      36.457 -21.050 -14.942  0.00  0.00    +0.150 HD
ENDROOT
BRANCH   3   7
ATOM      5  O   UNL     1      34.416 -22.072 -14.285  0.00  0.00    -0.272 OA
ATOM      6  N   UNL     1      35.773 -23.253 -12.828  0.00  0.00    -0.271 N 
ATOM      7  C   UNL     1      36.904 -22.337 -12.874  0.00  0.00    +0.152 C 
ATOM      8  C   UNL     1      37.776 -22.738 -11.690  0.00  0.00    +0.031 C 
ATOM      9  C   UNL     1      37.487 -24.228 -11.525  0.00  0.00    +0.024 C 
ATOM     10  C   UNL     1      36.012 -24.340 -11.882  0.00  0.00    +0.094 C 
ATOM     11  C   UNL     1      34.582 -23.001 -13.492  0.00  0.00    +0.256 C 
BRANCH  11  12
ATOM     12  C   UNL     1      33.457 -23.960 -13.197  0.00  0.00    +0.227 C 
BRANCH  12  13
ATOM     13  O   UNL     1      32.497 -23.241 -12.461  0.00  0.00    -0.347 OA
BRANCH  13  14
ATOM     14  C   UNL     1      31.202 -23.329 -13.042  0.00  0.00    +0.116 C 
ATOM     15  C   UNL     1      31.015 -22.198 -14.053  0.00  0.00    +0.030 C 
ATOM     16  C   UNL     1      31.023 -24.700 -13.694  0.00  0.00    +0.030 C 
ATOM     17  C   UNL     1      29.676 -22.305 -14.776  0.00  0.00    +0.002 C 
ATOM     18  C   UNL     1      29.684 -24.808 -14.416  0.00  0.00    +0.002 C 
ATOM     19  C   UNL     1      29.497 -23.677 -15.424  0.00  0.00    +0.000 C 
ENDBRANCH  13  14
ENDBRANCH  12  13
ENDBRANCH  11  12
ENDBRANCH   3   7
BRANCH   2  20
ATOM     20  C   UNL     1      37.697 -21.692 -16.511  0.00  0.00    +0.116 C 
BRANCH  20  21
ATOM     21  C   UNL     1      36.696 -21.189 -17.510  0.00  0.00    -0.003 C 
ATOM     22  C   UNL     1      35.364 -21.596 -17.427  0.00  0.00    -0.003 C 
ATOM     23  C   UNL     1      37.097 -20.318 -18.522  0.00  0.00    -0.003 C 
ATOM     24  C   UNL     1      34.433 -21.130 -18.356  0.00  0.00    +0.002 C 
ATOM     25  C   UNL     1      36.166 -19.851 -19.450  0.00  0.00    +0.002 C 
ATOM     26  C   UNL     1      34.835 -20.257 -19.368  0.00  0.00    +0.031 C 
BRANCH  26  29
ATOM     27  N   UNL     1      34.262 -19.056 -21.464  0.00  0.00    -0.343 N 
ATOM     28  N   UNL     1      32.578 -20.005 -20.153  0.00  0.00    -0.285 NA
ATOM     29  C   UNL     1      33.865 -19.772 -20.336  0.00  0.00    +0.117 C 
ATOM     30  H   UNL     1      33.589 -18.737 -22.108  0.00  0.00    +0.144 HD
ATOM     31  H   UNL     1      35.217 -18.869 -21.617  0.00  0.00    +0.144 HD
ATOM     32  H   UNL     1      31.920 -19.678 -20.807  0.00  0.00    +0.188 HD
ENDBRANCH  26  29
ENDBRANCH  20  21
ENDBRANCH   2  20
TORSDOF 7
ENDMDL
MODEL 3
REMARK VINA RESULT:     -10.3      2.493      6.849
REMARK  Name = 24963036
REMARK  7 active torsions:
REMARK  status: ('A' for Active; 'I' for Inactive)
REMARK    1  A    between atoms: N_2  and  C_20
REMARK    2  A    between atoms: C_3  and  C_7
REMARK    3  A    between atoms: C_11  and  C_12
REMARK    4  A    between atoms: C_12  and  O_13
REMARK    5  A    between atoms: O_13  and  C_14
REMARK    6  A    between atoms: C_20  and  C_21
REMARK    7  A    between atoms: C_26  and  C_29
REMARK                            x       y       z     vdW  Elec       q    Type
REMARK                         _______ _______ _______ _____ _____    ______ ____
ROOT
ATOM      1  O   UNL     1      39.782 -23.547 -14.523  0.00  0.00    -0.273 OA
ATOM      2  N   UNL     1      37.611 -22.795 -14.898  0.00  0.00    -0.299 N 
ATOM      3  C   UNL     1      38.569 -23.627 -14.345  0.00  0.00    +0.241 C 
ATOM      4  H   UNL     1      36.665 -22.960 -14.680  0.00  0.00    +0.150 HD
ENDROOT
BRANCH   3   7
ATOM      5  O   UNL     1      36.523 -22.600 -12.071  0.00  0.00    -0.272 OA
ATOM      6  N   UNL     1      36.527 -24.458 -13.451  0.00  0.00    -0.271 N 
ATOM      7  C   UNL     1      37.969 -24.666 -13.447  0.00  0.00    +0.152 C 
ATOM      8  C   UNL     1      38.160 -26.073 -14.003  0.00  0.00    +0.031 C 
ATOM      9  C   UNL     1      36.958 -26.255 -14.927  0.00  0.00    +0.024 C 
ATOM     10  C   UNL     1      35.846 -25.508 -14.205  0.00  0.00    +0.094 C 
ATOM     11  C   UNL     1      35.914 -23.472 -12.695  0.00  0.00    +0.256 C 
BRANCH  11  12
ATOM     12  C   UNL     1      34.407 -23.508 -12.678  0.00  0.00    +0.227 C 
BRANCH  12  13
ATOM     13  O   UNL     1      33.975 -22.806 -13.818  0.00  0.00    -0.347 OA
BRANCH  13  14
ATOM     14  C   UNL     1      32.796 -23.372 -14.380  0.00  0.00    +0.116 C 
ATOM     15  C   UNL     1      32.052 -24.172 -13.311  0.00  0.00    +0.030 C 
ATOM     16  C   UNL     1      31.922 -22.262 -14.962  0.00  0.00    +0.030 C 
ATOM     17  C   UNL     1      30.729 -24.719 -13.838  0.00  0.00    +0.002 C 
ATOM     18  C   UNL     1      30.599 -22.809 -15.490  0.00  0.00    +0.002 C 
ATOM     19  C   UNL     1      29.857 -23.610 -14.423  0.00  0.00    +0.000 C 
ENDBRANCH  13  14
ENDBRANCH  12  13
ENDBRANCH  11  12
ENDBRANCH   3   7
BRANCH   2  20
ATOM     20  C   UNL     1      37.932 -21.698 -15.782  0.00  0.00    +0.116 C 
BRANCH  20  21
ATOM     21  C   UNL     1      36.837 -21.438 -16.775  0.00  0.00    -0.003 C 
ATOM     22  C   UNL     1      37.094 -20.669 -17.911  0.00  0.00    -0.003 C 
ATOM     23  C   UNL     1      35.562 -21.962 -16.562  0.00  0.00    -0.003 C 
ATOM     24  C   UNL     1      36.076 -20.426 -18.834  0.00  0.00    +0.002 C 
ATOM     25  C   UNL     1      34.545 -21.719 -17.485  0.00  0.00    +0.002 C 
ATOM     26  C   UNL     1      34.801 -20.951 -18.620  0.00  0.00    +0.031 C 
BRANCH  26  29
ATOM     27  N   UNL     1      33.849 -19.682 -20.530  0.00  0.00    -0.343 N 
ATOM     28  N   UNL     1      32.645 -21.435 -19.564  0.00  0.00    -0.285 NA
ATOM     29  C   UNL     1      33.740 -20.697 -19.581  0.00  0.00    +0.117 C 
ATOM     30  H   UNL     1      33.119 -19.527 -21.172  0.00  0.00    +0.144 HD
ATOM     31  H   UNL     1      34.656 -19.118 -20.557  0.00  0.00    +0.144 HD
ATOM     32  H   UNL     1      31.926 -21.266 -20.214  0.00  0.00    +0.188 HD
ENDBRANCH  26  29
ENDBRANCH  20  21
ENDBRANCH   2  20
TORSDOF 7
ENDMDL
MODEL 4
REMARK VINA RESULT:     -10.1      5.169      8.410
REMARK  Name = 24963036
REMARK  7 active torsions:
REMARK  status: ('A' for Active; 'I' for Inactive)
REMARK    1  A    between atoms: N_2  and  C_20
REMARK    2  A    between atoms: C_3  and  C_7
REMARK    3  A    between atoms: C_11  and  C_12
REMARK    4  A    between atoms: C_12  and  O_13
REMARK    5  A    between atoms: O_13  and  C_14
REMARK    6  A    between atoms: C_20  and  C_21
REMARK    7  A    between atoms: C_26  and  C_29
REMARK                            x       y       z     vdW  Elec       q    Type
REMARK                         _______ _______ _______ _____ _____    ______ ____
ROOT
ATOM      1  O   UNL     1      37.162 -18.047 -20.908  0.00  0.00    -0.273 OA
ATOM      2  N   UNL     1      35.818 -19.534 -19.725  0.00  0.00    -0.299 N 
ATOM      3  C   UNL     1      36.059 -18.501 -20.614  0.00  0.00    +0.241 C 
ATOM      4  H   UNL     1      34.886 -19.811 -19.571  0.00  0.00    +0.150 HD
ENDROOT
BRANCH   3   7
ATOM      5  O   UNL     1      34.911 -15.709 -19.476  0.00  0.00    -0.272 OA
ATOM      6  N   UNL     1      35.046 -16.593 -21.611  0.00  0.00    -0.271 N 
ATOM      7  C   UNL     1      34.799 -17.978 -21.234  0.00  0.00    +0.152 C 
ATOM      8  C   UNL     1      34.477 -18.685 -22.545  0.00  0.00    +0.031 C 
ATOM      9  C   UNL     1      35.257 -17.880 -23.583  0.00  0.00    +0.024 C 
ATOM     10  C   UNL     1      35.163 -16.454 -23.060  0.00  0.00    +0.094 C 
ATOM     11  C   UNL     1      35.010 -15.553 -20.695  0.00  0.00    +0.256 C 
BRANCH  11  12
ATOM     12  C   UNL     1      35.114 -14.167 -21.280  0.00  0.00    +0.227 C 
BRANCH  12  13
ATOM     13  O   UNL     1      33.812 -13.792 -21.659  0.00  0.00    -0.347 OA
BRANCH  13  14
ATOM     14  C   UNL     1      33.358 -12.645 -20.950  0.00  0.00    +0.116 C 
ATOM     15  C   UNL     1      32.775 -11.632 -21.933  0.00  0.00    +0.030 C 
ATOM     16  C   UNL     1      32.331 -13.065 -19.900  0.00  0.00    +0.030 C 
ATOM     17  C   UNL     1      32.184 -10.424 -21.212  0.00  0.00    +0.002 C 
ATOM     18  C   UNL     1      31.741 -11.857 -19.177  0.00  0.00    +0.002 C 
ATOM     19  C   UNL     1      31.160 -10.844 -20.161  0.00  0.00    +0.000 C 
ENDBRANCH  13  14
ENDBRANCH  12  13
ENDBRANCH  11  12
ENDBRANCH   3   7
BRANCH   2  20
ATOM     20  C   UNL     1      36.868 -20.224 -19.011  0.00  0.00    +0.116 C 
BRANCH  20  21
ATOM     21  C   UNL     1      36.336 -20.998 -17.840  0.00  0.00    -0.003 C 
ATOM     22  C   UNL     1      37.133 -21.191 -16.711  0.00  0.00    -0.003 C 
ATOM     23  C   UNL     1      35.046 -21.526 -17.880  0.00  0.00    -0.003 C 
ATOM     24  C   UNL     1      36.640 -21.911 -15.623  0.00  0.00    +0.002 C 
ATOM     25  C   UNL     1      34.552 -22.246 -16.792  0.00  0.00    +0.002 C 
ATOM     26  C   UNL     1      35.349 -22.438 -15.664  0.00  0.00    +0.031 C 
BRANCH  26  29
ATOM     27  N   UNL     1      35.230 -24.504 -14.291  0.00  0.00    -0.343 N 
ATOM     28  N   UNL     1      33.972 -22.626 -13.703  0.00  0.00    -0.285 NA
ATOM     29  C   UNL     1      34.835 -23.189 -14.530  0.00  0.00    +0.117 C 
ATOM     30  H   UNL     1      34.870 -24.994 -13.517  0.00  0.00    +0.144 HD
ATOM     31  H   UNL     1      35.870 -24.943 -14.898  0.00  0.00    +0.144 HD
ATOM     32  H   UNL     1      33.624 -23.132 -12.935  0.00  0.00    +0.188 HD
ENDBRANCH  26  29
ENDBRANCH  20  21
ENDBRANCH   2  20
TORSDOF 7
ENDMDL
MODEL 5
REMARK VINA RESULT:     -10.1      4.235      9.782
REMARK  Name = 24963036
REMARK  7 active torsions:
REMARK  status: ('A' for Active; 'I' for Inactive)
REMARK    1  A    between atoms: N_2  and  C_20
REMARK    2  A    between atoms: C_3  and  C_7
REMARK    3  A    between atoms: C_11  and  C_12
REMARK    4  A    between atoms: C_12  and  O_13
REMARK    5  A    between atoms: O_13  and  C_14
REMARK    6  A    between atoms: C_20  and  C_21
REMARK    7  A    between atoms: C_26  and  C_29
REMARK                            x       y       z     vdW  Elec       q    Type
REMARK                         _______ _______ _______ _____ _____    ______ ____
ROOT
ATOM      1  O   UNL     1      37.093 -19.769 -17.976  0.00  0.00    -0.273 OA
ATOM      2  N   UNL     1      36.041 -19.657 -20.051  0.00  0.00    -0.299 N 
ATOM      3  C   UNL     1      36.376 -20.255 -18.848  0.00  0.00    +0.241 C 
ATOM      4  H   UNL     1      35.456 -20.148 -20.671  0.00  0.00    +0.150 HD
ENDROOT
BRANCH   3   7
ATOM      5  O   UNL     1      37.383 -22.071 -16.379  0.00  0.00    -0.272 OA
ATOM      6  N   UNL     1      35.293 -21.702 -17.302  0.00  0.00    -0.271 N 
ATOM      7  C   UNL     1      35.737 -21.601 -18.685  0.00  0.00    +0.152 C 
ATOM      8  C   UNL     1      34.462 -21.726 -19.512  0.00  0.00    +0.031 C 
ATOM      9  C   UNL     1      33.384 -21.162 -18.588  0.00  0.00    +0.024 C 
ATOM     10  C   UNL     1      33.838 -21.612 -17.207  0.00  0.00    +0.094 C 
ATOM     11  C   UNL     1      36.158 -22.003 -16.261  0.00  0.00    +0.256 C 
BRANCH  11  12
ATOM     12  C   UNL     1      35.507 -22.243 -14.923  0.00  0.00    +0.227 C 
BRANCH  12  13
ATOM     13  O   UNL     1      35.519 -23.634 -14.712  0.00  0.00    -0.347 OA
BRANCH  13  14
ATOM     14  C   UNL     1      36.212 -23.988 -13.521  0.00  0.00    +0.116 C 
ATOM     15  C   UNL     1      37.518 -24.695 -13.879  0.00  0.00    +0.030 C 
ATOM     16  C   UNL     1      36.462 -22.737 -12.681  0.00  0.00    +0.030 C 
ATOM     17  C   UNL     1      38.346 -25.010 -12.636  0.00  0.00    +0.002 C 
ATOM     18  C   UNL     1      37.288 -23.051 -11.437  0.00  0.00    +0.002 C 
ATOM     19  C   UNL     1      38.593 -23.760 -11.795  0.00  0.00    +0.000 C 
ENDBRANCH  13  14
ENDBRANCH  12  13
ENDBRANCH  11  12
ENDBRANCH   3   7
BRANCH   2  20
ATOM     20  C   UNL     1      36.510 -18.346 -20.439  0.00  0.00    +0.116 C 
BRANCH  20  21
ATOM     21  C   UNL     1      35.767 -17.815 -21.631  0.00  0.00    -0.003 C 
ATOM     22  C   UNL     1      35.085 -18.692 -22.474  0.00  0.00    -0.003 C 
ATOM     23  C   UNL     1      35.761 -16.445 -21.895  0.00  0.00    -0.003 C 
ATOM     24  C   UNL     1      34.396 -18.198 -23.583  0.00  0.00    +0.002 C 
ATOM     25  C   UNL     1      35.072 -15.952 -23.003  0.00  0.00    +0.002 C 
ATOM     26  C   UNL     1      34.390 -16.828 -23.847  0.00  0.00    +0.031 C 
BRANCH  26  29
ATOM     27  N   UNL     1      33.929 -15.041 -25.508  0.00  0.00    -0.343 N 
ATOM     28  N   UNL     1      32.752 -17.058 -25.590  0.00  0.00    -0.285 NA
ATOM     29  C   UNL     1      33.672 -16.314 -25.002  0.00  0.00    +0.117 C 
ATOM     30  H   UNL     1      33.431 -14.713 -26.292  0.00  0.00    +0.144 HD
ATOM     31  H   UNL     1      34.609 -14.470 -25.082  0.00  0.00    +0.144 HD
ATOM     32  H   UNL     1      32.265 -16.712 -26.372  0.00  0.00    +0.188 HD
ENDBRANCH  26  29
ENDBRANCH  20  21
ENDBRANCH   2  20
TORSDOF 7
ENDMDL
MODEL 6
REMARK VINA RESULT:     -10.1      9.328     14.292
REMARK  Name = 24963036
REMARK  7 active torsions:
REMARK  status: ('A' for Active; 'I' for Inactive)
REMARK    1  A    between atoms: N_2  and  C_20
REMARK    2  A    between atoms: C_3  and  C_7
REMARK    3  A    between atoms: C_11  and  C_12
REMARK    4  A    between atoms: C_12  and  O_13
REMARK    5  A    between atoms: O_13  and  C_14
REMARK    6  A    between atoms: C_20  and  C_21
REMARK    7  A    between atoms: C_26  and  C_29
REMARK                            x       y       z     vdW  Elec       q    Type
REMARK                         _______ _______ _______ _____ _____    ______ ____
ROOT
ATOM      1  O   UNL     1      32.714 -13.474 -20.914  0.00  0.00    -0.273 OA
ATOM      2  N   UNL     1      32.767 -11.318 -21.789  0.00  0.00    -0.299 N 
ATOM      3  C   UNL     1      33.221 -12.616 -21.631  0.00  0.00    +0.241 C 
ATOM      4  H   UNL     1      33.260 -10.719 -22.395  0.00  0.00    +0.150 HD
ENDROOT
BRANCH   3   7
ATOM      5  O   UNL     1      35.323 -14.783 -20.493  0.00  0.00    -0.272 OA
ATOM      6  N   UNL     1      34.519 -14.347 -22.619  0.00  0.00    -0.271 N 
ATOM      7  C   UNL     1      34.430 -12.901 -22.471  0.00  0.00    +0.152 C 
ATOM      8  C   UNL     1      34.268 -12.375 -23.892  0.00  0.00    +0.031 C 
ATOM      9  C   UNL     1      33.562 -13.519 -24.616  0.00  0.00    +0.024 C 
ATOM     10  C   UNL     1      34.162 -14.761 -23.974  0.00  0.00    +0.094 C 
ATOM     11  C   UNL     1      35.033 -15.168 -21.627  0.00  0.00    +0.256 C 
BRANCH  11  12
ATOM     12  C   UNL     1      35.216 -16.615 -22.010  0.00  0.00    +0.227 C 
BRANCH  12  13
ATOM     13  O   UNL     1      36.094 -17.174 -21.064  0.00  0.00    -0.347 OA
BRANCH  13  14
ATOM     14  C   UNL     1      35.818 -18.549 -20.825  0.00  0.00    +0.116 C 
ATOM     15  C   UNL     1      36.878 -19.129 -19.889  0.00  0.00    +0.030 C 
ATOM     16  C   UNL     1      34.413 -18.697 -20.244  0.00  0.00    +0.030 C 
ATOM     17  C   UNL     1      36.572 -20.579 -19.524  0.00  0.00    +0.002 C 
ATOM     18  C   UNL     1      34.106 -20.146 -19.879  0.00  0.00    +0.002 C 
ATOM     19  C   UNL     1      35.167 -20.727 -18.946  0.00  0.00    +0.000 C 
ENDBRANCH  13  14
ENDBRANCH  12  13
ENDBRANCH  11  12
ENDBRANCH   3   7
BRANCH   2  20
ATOM     20  C   UNL     1      31.603 -10.799 -21.107  0.00  0.00    +0.116 C 
BRANCH  20  21
ATOM     21  C   UNL     1      31.812  -9.391 -20.630  0.00  0.00    -0.003 C 
ATOM     22  C   UNL     1      31.825  -8.340 -21.547  0.00  0.00    -0.003 C 
ATOM     23  C   UNL     1      31.997  -9.134 -19.272  0.00  0.00    -0.003 C 
ATOM     24  C   UNL     1      32.021  -7.031 -21.104  0.00  0.00    +0.002 C 
ATOM     25  C   UNL     1      32.192  -7.826 -18.829  0.00  0.00    +0.002 C 
ATOM     26  C   UNL     1      32.205  -6.775 -19.745  0.00  0.00    +0.031 C 
BRANCH  26  29
ATOM     27  N   UNL     1      32.256  -4.325 -20.144  0.00  0.00    -0.343 N 
ATOM     28  N   UNL     1      32.752  -5.184 -18.029  0.00  0.00    -0.285 NA
ATOM     29  C   UNL     1      32.409  -5.411 -19.284  0.00  0.00    +0.117 C 
ATOM     30  H   UNL     1      32.399  -3.409 -19.810  0.00  0.00    +0.144 HD
ATOM     31  H   UNL     1      32.004  -4.473 -21.084  0.00  0.00    +0.144 HD
ATOM     32  H   UNL     1      32.890  -4.262 -17.715  0.00  0.00    +0.188 HD
ENDBRANCH  26  29
ENDBRANCH  20  21
ENDBRANCH   2  20
TORSDOF 7
ENDMDL
MODEL 7
REMARK VINA RESULT:      -9.9      7.150     11.260
REMARK  Name = 24963036
REMARK  7 active torsions:
REMARK  status: ('A' for Active; 'I' for Inactive)
REMARK    1  A    between atoms: N_2  and  C_20
REMARK    2  A    between atoms: C_3  and  C_7
REMARK    3  A    between atoms: C_11  and  C_12
REMARK    4  A    between atoms: C_12  and  O_13
REMARK    5  A    between atoms: O_13  and  C_14
REMARK    6  A    between atoms: C_20  and  C_21
REMARK    7  A    between atoms: C_26  and  C_29
REMARK                            x       y       z     vdW  Elec       q    Type
REMARK                         _______ _______ _______ _____ _____    ______ ____
ROOT
ATOM      1  O   UNL     1      35.990 -14.775 -22.953  0.00  0.00    -0.273 OA
ATOM      2  N   UNL     1      34.946 -16.830 -22.628  0.00  0.00    -0.299 N 
ATOM      3  C   UNL     1      35.003 -15.503 -23.017  0.00  0.00    +0.241 C 
ATOM      4  H   UNL     1      34.093 -17.311 -22.728  0.00  0.00    +0.150 HD
ENDROOT
BRANCH   3   7
ATOM      5  O   UNL     1      33.094 -13.830 -21.024  0.00  0.00    -0.272 OA
ATOM      6  N   UNL     1      33.605 -13.594 -23.269  0.00  0.00    -0.271 N 
ATOM      7  C   UNL     1      33.697 -15.017 -23.570  0.00  0.00    +0.152 C 
ATOM      8  C   UNL     1      33.663 -15.094 -25.092  0.00  0.00    +0.031 C 
ATOM      9  C   UNL     1      34.280 -13.767 -25.528  0.00  0.00    +0.024 C 
ATOM     10  C   UNL     1      33.785 -12.788 -24.474  0.00  0.00    +0.094 C 
ATOM     11  C   UNL     1      33.236 -13.119 -22.021  0.00  0.00    +0.256 C 
BRANCH  11  12
ATOM     12  C   UNL     1      33.020 -11.629 -21.930  0.00  0.00    +0.227 C 
BRANCH  12  13
ATOM     13  O   UNL     1      31.646 -11.435 -21.700  0.00  0.00    -0.347 OA
BRANCH  13  14
ATOM     14  C   UNL     1      31.405 -10.554 -20.610  0.00  0.00    +0.116 C 
ATOM     15  C   UNL     1      31.614 -11.299 -19.292  0.00  0.00    +0.030 C 
ATOM     16  C   UNL     1      32.323  -9.338 -20.720  0.00  0.00    +0.030 C 
ATOM     17  C   UNL     1      31.462 -10.370 -18.091  0.00  0.00    +0.002 C 
ATOM     18  C   UNL     1      32.171  -8.408 -19.520  0.00  0.00    +0.002 C 
ATOM     19  C   UNL     1      32.378  -9.154 -18.204  0.00  0.00    +0.000 C 
ENDBRANCH  13  14
ENDBRANCH  12  13
ENDBRANCH  11  12
ENDBRANCH   3   7
BRANCH   2  20
ATOM     20  C   UNL     1      36.079 -17.543 -22.083  0.00  0.00    +0.116 C 
BRANCH  20  21
ATOM     21  C   UNL     1      35.662 -18.571 -21.072  0.00  0.00    -0.003 C 
ATOM     22  C   UNL     1      34.321 -18.944 -20.969  0.00  0.00    -0.003 C 
ATOM     23  C   UNL     1      36.613 -19.152 -20.234  0.00  0.00    -0.003 C 
ATOM     24  C   UNL     1      33.933 -19.898 -20.028  0.00  0.00    +0.002 C 
ATOM     25  C   UNL     1      36.225 -20.106 -19.294  0.00  0.00    +0.002 C 
ATOM     26  C   UNL     1      34.886 -20.479 -19.190  0.00  0.00    +0.031 C 
BRANCH  26  29
ATOM     27  N   UNL     1      33.171 -21.946 -18.155  0.00  0.00    -0.343 N 
ATOM     28  N   UNL     1      35.362 -21.943 -17.345  0.00  0.00    -0.285 NA
ATOM     29  C   UNL     1      34.481 -21.473 -18.210  0.00  0.00    +0.117 C 
ATOM     30  H   UNL     1      32.918 -22.620 -17.483  0.00  0.00    +0.144 HD
ATOM     31  H   UNL     1      32.498 -21.605 -18.788  0.00  0.00    +0.144 HD
ATOM     32  H   UNL     1      35.091 -22.617 -16.682  0.00  0.00    +0.188 HD
ENDBRANCH  26  29
ENDBRANCH  20  21
ENDBRANCH   2  20
TORSDOF 7
ENDMDL
MODEL 8
REMARK VINA RESULT:      -9.8      2.230      5.650
REMARK  Name = 24963036
REMARK  7 active torsions:
REMARK  status: ('A' for Active; 'I' for Inactive)
REMARK    1  A    between atoms: N_2  and  C_20
REMARK    2  A    between atoms: C_3  and  C_7
REMARK    3  A    between atoms: C_11  and  C_12
REMARK    4  A    between atoms: C_12  and  O_13
REMARK    5  A    between atoms: O_13  and  C_14
REMARK    6  A    between atoms: C_20  and  C_21
REMARK    7  A    between atoms: C_26  and  C_29
REMARK                            x       y       z     vdW  Elec       q    Type
REMARK                         _______ _______ _______ _____ _____    ______ ____
ROOT
ATOM      1  O   UNL     1      37.148 -19.546 -18.594  0.00  0.00    -0.273 OA
ATOM      2  N   UNL     1      36.517 -21.326 -17.232  0.00  0.00    -0.299 N 
ATOM      3  C   UNL     1      36.464 -20.543 -18.372  0.00  0.00    +0.241 C 
ATOM      4  H   UNL     1      35.917 -22.103 -17.170  0.00  0.00    +0.150 HD
ENDROOT
BRANCH   3   7
ATOM      5  O   UNL     1      34.378 -22.780 -17.347  0.00  0.00    -0.272 OA
ATOM      6  N   UNL     1      34.153 -20.957 -18.756  0.00  0.00    -0.271 N 
ATOM      7  C   UNL     1      35.471 -21.057 -19.370  0.00  0.00    +0.152 C 
ATOM      8  C   UNL     1      35.392 -20.165 -20.603  0.00  0.00    +0.031 C 
ATOM      9  C   UNL     1      34.366 -19.105 -20.209  0.00  0.00    +0.024 C 
ATOM     10  C   UNL     1      33.372 -19.881 -19.359  0.00  0.00    +0.094 C 
ATOM     11  C   UNL     1      33.688 -21.883 -17.836  0.00  0.00    +0.256 C 
BRANCH  11  12
ATOM     12  C   UNL     1      32.243 -21.731 -17.434  0.00  0.00    +0.227 C 
BRANCH  12  13
ATOM     13  O   UNL     1      31.845 -22.963 -16.885  0.00  0.00    -0.347 OA
BRANCH  13  14
ATOM     14  C   UNL     1      31.305 -22.817 -15.577  0.00  0.00    +0.116 C 
ATOM     15  C   UNL     1      30.373 -23.989 -15.273  0.00  0.00    +0.030 C 
ATOM     16  C   UNL     1      32.442 -22.725 -14.560  0.00  0.00    +0.030 C 
ATOM     17  C   UNL     1      29.843 -23.931 -13.844  0.00  0.00    +0.002 C 
ATOM     18  C   UNL     1      31.912 -22.665 -13.130  0.00  0.00    +0.002 C 
ATOM     19  C   UNL     1      30.979 -23.835 -12.828  0.00  0.00    +0.000 C 
ENDBRANCH  13  14
ENDBRANCH  12  13
ENDBRANCH  11  12
ENDBRANCH   3   7
BRANCH   2  20
ATOM     20  C   UNL     1      37.411 -21.056 -16.129  0.00  0.00    +0.116 C 
BRANCH  20  21
ATOM     21  C   UNL     1      37.325 -22.113 -15.066  0.00  0.00    -0.003 C 
ATOM     22  C   UNL     1      36.167 -22.236 -14.297  0.00  0.00    -0.003 C 
ATOM     23  C   UNL     1      38.402 -22.971 -14.846  0.00  0.00    -0.003 C 
ATOM     24  C   UNL     1      36.088 -23.217 -13.308  0.00  0.00    +0.002 C 
ATOM     25  C   UNL     1      38.323 -23.952 -13.858  0.00  0.00    +0.002 C 
ATOM     26  C   UNL     1      37.166 -24.075 -13.089  0.00  0.00    +0.031 C 
BRANCH  26  29
ATOM     27  N   UNL     1      37.472 -26.412 -12.308  0.00  0.00    -0.343 N 
ATOM     28  N   UNL     1      36.628 -24.786 -10.857  0.00  0.00    -0.285 NA
ATOM     29  C   UNL     1      37.083 -25.097 -12.058  0.00  0.00    +0.117 C 
ATOM     30  H   UNL     1      37.408 -27.088 -11.595  0.00  0.00    +0.144 HD
ATOM     31  H   UNL     1      37.810 -26.664 -13.198  0.00  0.00    +0.144 HD
ATOM     32  H   UNL     1      36.572 -25.476 -10.158  0.00  0.00    +0.188 HD
ENDBRANCH  26  29
ENDBRANCH  20  21
ENDBRANCH   2  20
TORSDOF 7
ENDMDL
MODEL 9
REMARK VINA RESULT:      -9.7      8.629     12.326
REMARK  Name = 24963036
REMARK  7 active torsions:
REMARK  status: ('A' for Active; 'I' for Inactive)
REMARK    1  A    between atoms: N_2  and  C_20
REMARK    2  A    between atoms: C_3  and  C_7
REMARK    3  A    between atoms: C_11  and  C_12
REMARK    4  A    between atoms: C_12  and  O_13
REMARK    5  A    between atoms: O_13  and  C_14
REMARK    6  A    between atoms: C_20  and  C_21
REMARK    7  A    between atoms: C_26  and  C_29
REMARK                            x       y       z     vdW  Elec       q    Type
REMARK                         _______ _______ _______ _____ _____    ______ ____
ROOT
ATOM      1  O   UNL     1      33.845 -14.259 -23.602  0.00  0.00    -0.273 OA
ATOM      2  N   UNL     1      35.260 -15.282 -22.062  0.00  0.00    -0.299 N 
ATOM      3  C   UNL     1      34.511 -14.235 -22.570  0.00  0.00    +0.241 C 
ATOM      4  H   UNL     1      35.753 -15.142 -21.222  0.00  0.00    +0.150 HD
ENDROOT
BRANCH   3   7
ATOM      5  O   UNL     1      34.962 -11.393 -24.029  0.00  0.00    -0.272 OA
ATOM      6  N   UNL     1      33.636 -12.046 -22.248  0.00  0.00    -0.271 N 
ATOM      7  C   UNL     1      34.568 -13.019 -21.694  0.00  0.00    +0.152 C 
ATOM      8  C   UNL     1      34.042 -13.306 -20.293  0.00  0.00    +0.031 C 
ATOM      9  C   UNL     1      32.538 -13.075 -20.425  0.00  0.00    +0.024 C 
ATOM     10  C   UNL     1      32.447 -11.918 -21.409  0.00  0.00    +0.094 C 
ATOM     11  C   UNL     1      33.947 -11.255 -23.343  0.00  0.00    +0.256 C 
BRANCH  11  12
ATOM     12  C   UNL     1      32.943 -10.181 -23.676  0.00  0.00    +0.227 C 
BRANCH  12  13
ATOM     13  O   UNL     1      33.580  -8.948 -23.446  0.00  0.00    -0.347 OA
BRANCH  13  14
ATOM     14  C   UNL     1      32.885  -8.157 -22.488  0.00  0.00    +0.116 C 
ATOM     15  C   UNL     1      33.890  -7.371 -21.647  0.00  0.00    +0.030 C 
ATOM     16  C   UNL     1      31.903  -7.231 -23.204  0.00  0.00    +0.030 C 
ATOM     17  C   UNL     1      33.191  -6.432 -20.669  0.00  0.00    +0.002 C 
ATOM     18  C   UNL     1      31.203  -6.292 -22.225  0.00  0.00    +0.002 C 
ATOM     19  C   UNL     1      32.207  -5.508 -21.384  0.00  0.00    +0.000 C 
ENDBRANCH  13  14
ENDBRANCH  12  13
ENDBRANCH  11  12
ENDBRANCH   3   7
BRANCH   2  20
ATOM     20  C   UNL     1      35.352 -16.573 -22.707  0.00  0.00    +0.116 C 
BRANCH  20  21
ATOM     21  C   UNL     1      35.479 -17.690 -21.711  0.00  0.00    -0.003 C 
ATOM     22  C   UNL     1      34.401 -18.545 -21.483  0.00  0.00    -0.003 C 
ATOM     23  C   UNL     1      36.673 -17.871 -21.013  0.00  0.00    -0.003 C 
ATOM     24  C   UNL     1      34.518 -19.583 -20.557  0.00  0.00    +0.002 C 
ATOM     25  C   UNL     1      36.790 -18.908 -20.088  0.00  0.00    +0.002 C 
ATOM     26  C   UNL     1      35.713 -19.763 -19.859  0.00  0.00    +0.031 C 
BRANCH  26  29
ATOM     27  N   UNL     1      36.722 -20.763 -17.823  0.00  0.00    -0.343 N 
ATOM     28  N   UNL     1      35.096 -21.931 -19.026  0.00  0.00    -0.285 NA
ATOM     29  C   UNL     1      35.834 -20.844 -18.894  0.00  0.00    +0.117 C 
ATOM     30  H   UNL     1      36.788 -21.506 -17.180  0.00  0.00    +0.144 HD
ATOM     31  H   UNL     1      37.284 -19.962 -17.709  0.00  0.00    +0.144 HD
ATOM     32  H   UNL     1      35.176 -22.663 -18.374  0.00  0.00    +0.188 HD
ENDBRANCH  26  29
ENDBRANCH  20  21
ENDBRANCH   2  20
TORSDOF 7
ENDMDL
