MODEL 1
REMARK VINA RESULT:     -11.9      0.000      0.000
REMARK  Name = 6914657
REMARK  8 active torsions:
REMARK  status: ('A' for Active; 'I' for Inactive)
REMARK    1  A    between atoms: C_1  and  C_4
REMARK    2  A    between atoms: C_1  and  C_16
REMARK    3  A    between atoms: C_9  and  C_10
REMARK    4  A    between atoms: C_16  and  C_17
REMARK    5  A    between atoms: C_17  and  C_18
REMARK    6  A    between atoms: C_18  and  N_20
REMARK    7  A    between atoms: C_21  and  C_23
REMARK    8  A    between atoms: C_24  and  C_26
REMARK                            x       y       z     vdW  Elec       q    Type
REMARK                         _______ _______ _______ _____ _____    ______ ____
ROOT
ATOM      1  C   UNL     1      32.784 -22.779 -15.459  0.00  0.00    +0.000 C 
ENDROOT
BRANCH   1   4
ATOM      2  O   UNL     1      36.544 -25.223 -11.140  0.00  0.00    -0.270 OA
ATOM      3  N   UNL     1      35.993 -23.591 -12.722  0.00  0.00    -0.276 N 
ATOM      4  C   UNL     1      33.865 -22.571 -14.401  0.00  0.00    +0.003 C 
ATOM      5  C   UNL     1      35.255 -22.904 -14.967  0.00  0.00    +0.022 C 
ATOM      6  C   UNL     1      33.578 -23.420 -13.152  0.00  0.00    +0.022 C 
ATOM      7  C   UNL     1      36.332 -22.773 -13.893  0.00  0.00    +0.094 C 
ATOM      8  C   UNL     1      34.696 -23.285 -12.120  0.00  0.00    +0.094 C 
ATOM      9  C   UNL     1      36.810 -24.566 -12.145  0.00  0.00    +0.249 C 
BRANCH   9  10
ATOM     10  C   UNL     1      38.100 -24.856 -12.785  0.00  0.00    +0.054 C 
ATOM     11  C   UNL     1      38.217 -25.935 -13.662  0.00  0.00    +0.005 C 
ATOM     12  C   UNL     1      39.208 -24.053 -12.516  0.00  0.00    +0.005 C 
ATOM     13  C   UNL     1      39.441 -26.210 -14.269  0.00  0.00    +0.000 C 
ATOM     14  C   UNL     1      40.433 -24.328 -13.124  0.00  0.00    +0.000 C 
ATOM     15  C   UNL     1      40.550 -25.407 -14.000  0.00  0.00    +0.000 C 
ENDBRANCH   9  10
ENDBRANCH   1   4
BRANCH   1  16
ATOM     16  C   UNL     1      33.397 -23.019 -16.836  0.00  0.00    +0.002 C 
BRANCH  16  17
ATOM     17  C   UNL     1      33.305 -21.765 -17.705  0.00  0.00    +0.021 C 
BRANCH  17  18
ATOM     18  C   UNL     1      34.378 -21.761 -18.788  0.00  0.00    +0.090 C 
BRANCH  18  20
ATOM     19  O   UNL     1      36.403 -19.737 -19.237  0.00  0.00    -0.270 OA
ATOM     20  N   UNL     1      34.278 -20.598 -19.627  0.00  0.00    -0.301 N 
ATOM     21  C   UNL     1      35.306 -19.677 -19.783  0.00  0.00    +0.246 C 
ATOM     22  H   UNL     1      33.438 -20.448 -20.117  0.00  0.00    +0.150 HD
BRANCH  21  23
ATOM     23  C   UNL     1      34.933 -18.571 -20.711  0.00  0.00    +0.058 C 
ATOM     24  C   UNL     1      35.233 -18.661 -22.014  0.00  0.00    +0.006 C 
BRANCH  24  26
ATOM     25  N   UNL     1      33.892 -17.077 -25.144  0.00  0.00    -0.242 NA
ATOM     26  C   UNL     1      34.905 -17.636 -23.021  0.00  0.00    +0.019 C 
ATOM     27  C   UNL     1      35.270 -16.307 -22.837  0.00  0.00    +0.003 C 
ATOM     28  C   UNL     1      34.223 -17.967 -24.181  0.00  0.00    +0.099 C 
ATOM     29  C   UNL     1      34.947 -15.363 -23.804  0.00  0.00    +0.021 C 
ATOM     30  C   UNL     1      34.264 -15.795 -24.930  0.00  0.00    +0.099 C 
ENDBRANCH  24  26
ENDBRANCH  21  23
ENDBRANCH  18  20
ENDBRANCH  17  18
ENDBRANCH  16  17
ENDBRANCH   1  16
TORSDOF 8
ENDMDL
MODEL 2
REMARK VINA RESULT:     -11.6      1.866     10.834
REMARK  Name = 6914657
REMARK  8 active torsions:
REMARK  status: ('A' for Active; 'I' for Inactive)
REMARK    1  A    between atoms: C_1  and  C_4
REMARK    2  A    between atoms: C_1  and  C_16
REMARK    3  A    between atoms: C_9  and  C_10
REMARK    4  A    between atoms: C_16  and  C_17
REMARK    5  A    between atoms: C_17  and  C_18
REMARK    6  A    between atoms: C_18  and  N_20
REMARK    7  A    between atoms: C_21  and  C_23
REMARK    8  A    between atoms: C_24  and  C_26
REMARK                            x       y       z     vdW  Elec       q    Type
REMARK                         _______ _______ _______ _____ _____    ______ ____
ROOT
ATOM      1  C   UNL     1      34.041 -22.056 -18.828  0.00  0.00    +0.000 C 
ENDROOT
BRANCH   1   4
ATOM      2  O   UNL     1      37.634 -17.991 -21.884  0.00  0.00    -0.270 OA
ATOM      3  N   UNL     1      35.782 -18.533 -20.564  0.00  0.00    -0.276 N 
ATOM      4  C   UNL     1      34.556 -20.626 -18.981  0.00  0.00    +0.003 C 
ATOM      5  C   UNL     1      33.780 -19.880 -20.079  0.00  0.00    +0.022 C 
ATOM      6  C   UNL     1      36.062 -20.618 -19.292  0.00  0.00    +0.022 C 
ATOM      7  C   UNL     1      34.340 -18.475 -20.290  0.00  0.00    +0.094 C 
ATOM      8  C   UNL     1      36.572 -19.198 -19.530  0.00  0.00    +0.094 C 
ATOM      9  C   UNL     1      36.422 -17.979 -21.675  0.00  0.00    +0.249 C 
BRANCH   9  10
ATOM     10  C   UNL     1      35.595 -17.331 -22.700  0.00  0.00    +0.054 C 
ATOM     11  C   UNL     1      35.540 -15.939 -22.774  0.00  0.00    +0.005 C 
ATOM     12  C   UNL     1      34.864 -18.106 -23.600  0.00  0.00    +0.005 C 
ATOM     13  C   UNL     1      34.754 -15.322 -23.747  0.00  0.00    +0.000 C 
ATOM     14  C   UNL     1      34.078 -17.489 -24.574  0.00  0.00    +0.000 C 
ATOM     15  C   UNL     1      34.023 -16.097 -24.647  0.00  0.00    +0.000 C 
ENDBRANCH   9  10
ENDBRANCH   1   4
BRANCH   1  16
ATOM     16  C   UNL     1      33.911 -22.442 -17.358  0.00  0.00    +0.002 C 
BRANCH  16  17
ATOM     17  C   UNL     1      32.509 -22.138 -16.831  0.00  0.00    +0.021 C 
BRANCH  17  18
ATOM     18  C   UNL     1      32.295 -22.735 -15.445  0.00  0.00    +0.090 C 
BRANCH  18  20
ATOM     19  O   UNL     1      32.825 -23.182 -12.631  0.00  0.00    -0.270 OA
ATOM     20  N   UNL     1      33.538 -23.136 -14.845  0.00  0.00    -0.301 N 
ATOM     21  C   UNL     1      33.700 -23.328 -13.479  0.00  0.00    +0.246 C 
ATOM     22  H   UNL     1      34.314 -23.284 -15.433  0.00  0.00    +0.150 HD
BRANCH  21  23
ATOM     23  C   UNL     1      35.089 -23.743 -13.131  0.00  0.00    +0.058 C 
ATOM     24  C   UNL     1      35.904 -24.218 -14.084  0.00  0.00    +0.006 C 
BRANCH  24  26
ATOM     25  N   UNL     1      39.042 -26.275 -14.244  0.00  0.00    -0.242 NA
ATOM     26  C   UNL     1      37.295 -24.648 -13.857  0.00  0.00    +0.019 C 
ATOM     27  C   UNL     1      38.163 -23.890 -13.080  0.00  0.00    +0.003 C 
ATOM     28  C   UNL     1      37.779 -25.822 -14.413  0.00  0.00    +0.099 C 
ATOM     29  C   UNL     1      39.470 -24.322 -12.884  0.00  0.00    +0.021 C 
ATOM     30  C   UNL     1      39.856 -25.511 -13.482  0.00  0.00    +0.099 C 
ENDBRANCH  24  26
ENDBRANCH  21  23
ENDBRANCH  18  20
ENDBRANCH  17  18
ENDBRANCH  16  17
ENDBRANCH   1  16
TORSDOF 8
ENDMDL
MODEL 3
REMARK VINA RESULT:     -11.5      2.370      9.355
REMARK  Name = 6914657
REMARK  8 active torsions:
REMARK  status: ('A' for Active; 'I' for Inactive)
REMARK    1  A    between atoms: C_1  and  C_4
REMARK    2  A    between atoms: C_1  and  C_16
REMARK    3  A    between atoms: C_9  and  C_10
REMARK    4  A    between atoms: C_16  and  C_17
REMARK    5  A    between atoms: C_17  and  C_18
REMARK    6  A    between atoms: C_18  and  N_20
REMARK    7  A    between atoms: C_21  and  C_23
REMARK    8  A    between atoms: C_24  and  C_26
REMARK                            x       y       z     vdW  Elec       q    Type
REMARK                         _______ _______ _______ _____ _____    ______ ____
ROOT
ATOM      1  C   UNL     1      36.782 -21.474 -15.569  0.00  0.00    +0.000 C 
ENDROOT
BRANCH   1   4
ATOM      2  O   UNL     1      32.738 -19.957 -20.053  0.00  0.00    -0.270 OA
ATOM      3  N   UNL     1      34.808 -20.756 -19.315  0.00  0.00    -0.276 N 
ATOM      4  C   UNL     1      36.281 -21.675 -16.997  0.00  0.00    +0.003 C 
ATOM      5  C   UNL     1      36.833 -20.584 -17.929  0.00  0.00    +0.022 C 
ATOM      6  C   UNL     1      34.744 -21.687 -17.041  0.00  0.00    +0.022 C 
ATOM      7  C   UNL     1      36.275 -20.734 -19.343  0.00  0.00    +0.094 C 
ATOM      8  C   UNL     1      34.230 -21.803 -18.474  0.00  0.00    +0.094 C 
ATOM      9  C   UNL     1      33.967 -19.911 -20.043  0.00  0.00    +0.249 C 
BRANCH   9  10
ATOM     10  C   UNL     1      34.582 -18.863 -20.867  0.00  0.00    +0.054 C 
ATOM     11  C   UNL     1      35.134 -17.734 -20.261  0.00  0.00    +0.005 C 
ATOM     12  C   UNL     1      34.615 -18.995 -22.255  0.00  0.00    +0.005 C 
ATOM     13  C   UNL     1      35.718 -16.738 -21.043  0.00  0.00    +0.000 C 
ATOM     14  C   UNL     1      35.200 -17.999 -23.037  0.00  0.00    +0.000 C 
ATOM     15  C   UNL     1      35.751 -16.870 -22.431  0.00  0.00    +0.000 C 
ENDBRANCH   9  10
ENDBRANCH   1   4
BRANCH   1  16
ATOM     16  C   UNL     1      37.628 -22.658 -15.108  0.00  0.00    +0.002 C 
BRANCH  16  17
ATOM     17  C   UNL     1      37.358 -22.989 -13.640  0.00  0.00    +0.021 C 
BRANCH  17  18
ATOM     18  C   UNL     1      36.653 -24.332 -13.495  0.00  0.00    +0.090 C 
BRANCH  18  20
ATOM     19  O   UNL     1      34.707 -23.241 -11.647  0.00  0.00    -0.270 OA
ATOM     20  N   UNL     1      35.235 -24.210 -13.694  0.00  0.00    -0.301 N 
ATOM     21  C   UNL     1      34.374 -23.671 -12.747  0.00  0.00    +0.246 C 
ATOM     22  H   UNL     1      34.855 -24.525 -14.546  0.00  0.00    +0.150 HD
BRANCH  21  23
ATOM     23  C   UNL     1      32.959 -23.665 -13.214  0.00  0.00    +0.058 C 
ATOM     24  C   UNL     1      32.653 -23.158 -14.417  0.00  0.00    +0.006 C 
BRANCH  24  26
ATOM     25  N   UNL     1      29.741 -22.101 -16.539  0.00  0.00    -0.242 NA
ATOM     26  C   UNL     1      31.294 -23.109 -14.983  0.00  0.00    +0.019 C 
ATOM     27  C   UNL     1      30.299 -23.972 -14.539  0.00  0.00    +0.003 C 
ATOM     28  C   UNL     1      30.967 -22.199 -15.977  0.00  0.00    +0.099 C 
ATOM     29  C   UNL     1      29.026 -23.901 -15.092  0.00  0.00    +0.021 C 
ATOM     30  C   UNL     1      28.800 -22.956 -16.080  0.00  0.00    +0.099 C 
ENDBRANCH  24  26
ENDBRANCH  21  23
ENDBRANCH  18  20
ENDBRANCH  17  18
ENDBRANCH  16  17
ENDBRANCH   1  16
TORSDOF 8
ENDMDL
MODEL 4
REMARK VINA RESULT:     -11.3      4.398     12.093
REMARK  Name = 6914657
REMARK  8 active torsions:
REMARK  status: ('A' for Active; 'I' for Inactive)
REMARK    1  A    between atoms: C_1  and  C_4
REMARK    2  A    between atoms: C_1  and  C_16
REMARK    3  A    between atoms: C_9  and  C_10
REMARK    4  A    between atoms: C_16  and  C_17
REMARK    5  A    between atoms: C_17  and  C_18
REMARK    6  A    between atoms: C_18  and  N_20
REMARK    7  A    between atoms: C_21  and  C_23
REMARK    8  A    between atoms: C_24  and  C_26
REMARK                            x       y       z     vdW  Elec       q    Type
REMARK                         _______ _______ _______ _____ _____    ______ ____
ROOT
ATOM      1  C   UNL     1      35.570 -18.244 -20.557  0.00  0.00    +0.000 C 
ENDROOT
BRANCH   1   4
ATOM      2  O   UNL     1      33.175 -13.380 -23.618  0.00  0.00    -0.270 OA
ATOM      3  N   UNL     1      34.574 -14.323 -21.999  0.00  0.00    -0.276 N 
ATOM      4  C   UNL     1      35.720 -16.804 -21.041  0.00  0.00    +0.003 C 
ATOM      5  C   UNL     1      34.989 -15.832 -20.100  0.00  0.00    +0.022 C 
ATOM      6  C   UNL     1      35.196 -16.652 -22.478  0.00  0.00    +0.022 C 
ATOM      7  C   UNL     1      35.071 -14.398 -20.619  0.00  0.00    +0.094 C 
ATOM      8  C   UNL     1      35.264 -15.199 -22.944  0.00  0.00    +0.094 C 
ATOM      9  C   UNL     1      33.563 -13.473 -22.455  0.00  0.00    +0.249 C 
BRANCH   9  10
ATOM     10  C   UNL     1      32.883 -12.617 -21.475  0.00  0.00    +0.054 C 
ATOM     11  C   UNL     1      32.689 -11.263 -21.748  0.00  0.00    +0.005 C 
ATOM     12  C   UNL     1      32.431 -13.157 -20.272  0.00  0.00    +0.005 C 
ATOM     13  C   UNL     1      32.043 -10.449 -20.818  0.00  0.00    +0.000 C 
ATOM     14  C   UNL     1      31.784 -12.343 -19.341  0.00  0.00    +0.000 C 
ATOM     15  C   UNL     1      31.591 -10.988 -19.614  0.00  0.00    +0.000 C 
ENDBRANCH   9  10
ENDBRANCH   1   4
BRANCH   1  16
ATOM     16  C   UNL     1      36.926 -18.861 -20.227  0.00  0.00    +0.002 C 
BRANCH  16  17
ATOM     17  C   UNL     1      36.796 -19.926 -19.138  0.00  0.00    +0.021 C 
BRANCH  17  18
ATOM     18  C   UNL     1      35.734 -20.958 -19.496  0.00  0.00    +0.090 C 
BRANCH  18  20
ATOM     19  O   UNL     1      32.920 -21.460 -19.020  0.00  0.00    -0.270 OA
ATOM     20  N   UNL     1      35.137 -21.533 -18.321  0.00  0.00    -0.301 N 
ATOM     21  C   UNL     1      33.771 -21.737 -18.180  0.00  0.00    +0.246 C 
ATOM     22  H   UNL     1      35.728 -21.795 -17.579  0.00  0.00    +0.150 HD
BRANCH  21  23
ATOM     23  C   UNL     1      33.427 -22.348 -16.864  0.00  0.00    +0.058 C 
ATOM     24  C   UNL     1      32.159 -22.337 -16.431  0.00  0.00    +0.006 C 
BRANCH  24  26
ATOM     25  N   UNL     1      31.943 -23.064 -12.754  0.00  0.00    -0.242 NA
ATOM     26  C   UNL     1      31.705 -22.917 -15.155  0.00  0.00    +0.019 C 
ATOM     27  C   UNL     1      30.657 -23.829 -15.114  0.00  0.00    +0.003 C 
ATOM     28  C   UNL     1      32.310 -22.570 -13.958  0.00  0.00    +0.099 C 
ATOM     29  C   UNL     1      30.251 -24.360 -13.895  0.00  0.00    +0.021 C 
ATOM     30  C   UNL     1      30.921 -23.949 -12.754  0.00  0.00    +0.099 C 
ENDBRANCH  24  26
ENDBRANCH  21  23
ENDBRANCH  18  20
ENDBRANCH  17  18
ENDBRANCH  16  17
ENDBRANCH   1  16
TORSDOF 8
ENDMDL
MODEL 5
REMARK VINA RESULT:     -11.2      6.523     13.991
REMARK  Name = 6914657
REMARK  8 active torsions:
REMARK  status: ('A' for Active; 'I' for Inactive)
REMARK    1  A    between atoms: C_1  and  C_4
REMARK    2  A    between atoms: C_1  and  C_16
REMARK    3  A    between atoms: C_9  and  C_10
REMARK    4  A    between atoms: C_16  and  C_17
REMARK    5  A    between atoms: C_17  and  C_18
REMARK    6  A    between atoms: C_18  and  N_20
REMARK    7  A    between atoms: C_21  and  C_23
REMARK    8  A    between atoms: C_24  and  C_26
REMARK                            x       y       z     vdW  Elec       q    Type
REMARK                         _______ _______ _______ _____ _____    ______ ____
ROOT
ATOM      1  C   UNL     1      32.416 -13.198 -20.032  0.00  0.00    +0.000 C 
ENDROOT
BRANCH   1   4
ATOM      2  O   UNL     1      32.794  -7.061 -19.056  0.00  0.00    -0.270 OA
ATOM      3  N   UNL     1      31.797  -8.948 -20.010  0.00  0.00    -0.276 N 
ATOM      4  C   UNL     1      31.717 -11.843 -19.959  0.00  0.00    +0.003 C 
ATOM      5  C   UNL     1      31.905 -11.060 -21.269  0.00  0.00    +0.022 C 
ATOM      6  C   UNL     1      32.237 -11.023 -18.767  0.00  0.00    +0.022 C 
ATOM      7  C   UNL     1      31.275  -9.672 -21.176  0.00  0.00    +0.094 C 
ATOM      8  C   UNL     1      31.606  -9.632 -18.732  0.00  0.00    +0.094 C 
ATOM      9  C   UNL     1      32.395  -7.686 -20.037  0.00  0.00    +0.249 C 
BRANCH   9  10
ATOM     10  C   UNL     1      32.582  -7.035 -21.339  0.00  0.00    +0.054 C 
ATOM     11  C   UNL     1      31.703  -6.032 -21.751  0.00  0.00    +0.005 C 
ATOM     12  C   UNL     1      33.638  -7.418 -22.165  0.00  0.00    +0.005 C 
ATOM     13  C   UNL     1      31.880  -5.414 -22.988  0.00  0.00    +0.000 C 
ATOM     14  C   UNL     1      33.816  -6.799 -23.403  0.00  0.00    +0.000 C 
ATOM     15  C   UNL     1      32.936  -5.797 -23.814  0.00  0.00    +0.000 C 
ENDBRANCH   9  10
ENDBRANCH   1   4
BRANCH   1  16
ATOM     16  C   UNL     1      33.128 -13.382 -21.369  0.00  0.00    +0.002 C 
BRANCH  16  17
ATOM     17  C   UNL     1      34.630 -13.585 -21.169  0.00  0.00    +0.021 C 
BRANCH  17  18
ATOM     18  C   UNL     1      35.213 -14.504 -22.236  0.00  0.00    +0.090 C 
BRANCH  18  20
ATOM     19  O   UNL     1      35.157 -16.832 -23.960  0.00  0.00    -0.270 OA
ATOM     20  N   UNL     1      35.150 -15.884 -21.836  0.00  0.00    -0.301 N 
ATOM     21  C   UNL     1      35.128 -16.940 -22.738  0.00  0.00    +0.246 C 
ATOM     22  H   UNL     1      35.123 -16.090 -20.874  0.00  0.00    +0.150 HD
BRANCH  21  23
ATOM     23  C   UNL     1      35.063 -18.262 -22.052  0.00  0.00    +0.058 C 
ATOM     24  C   UNL     1      34.647 -18.336 -20.780  0.00  0.00    +0.006 C 
BRANCH  24  26
ATOM     25  N   UNL     1      33.132 -21.339 -19.108  0.00  0.00    -0.242 NA
ATOM     26  C   UNL     1      34.535 -19.586 -20.008  0.00  0.00    +0.019 C 
ATOM     27  C   UNL     1      35.658 -20.194 -19.459  0.00  0.00    +0.003 C 
ATOM     28  C   UNL     1      33.305 -20.193 -19.806  0.00  0.00    +0.099 C 
ATOM     29  C   UNL     1      35.521 -21.372 -18.735  0.00  0.00    +0.021 C 
ATOM     30  C   UNL     1      34.248 -21.899 -18.589  0.00  0.00    +0.099 C 
ENDBRANCH  24  26
ENDBRANCH  21  23
ENDBRANCH  18  20
ENDBRANCH  17  18
ENDBRANCH  16  17
ENDBRANCH   1  16
TORSDOF 8
ENDMDL
MODEL 6
REMARK VINA RESULT:     -11.0      3.648      4.768
REMARK  Name = 6914657
REMARK  8 active torsions:
REMARK  status: ('A' for Active; 'I' for Inactive)
REMARK    1  A    between atoms: C_1  and  C_4
REMARK    2  A    between atoms: C_1  and  C_16
REMARK    3  A    between atoms: C_9  and  C_10
REMARK    4  A    between atoms: C_16  and  C_17
REMARK    5  A    between atoms: C_17  and  C_18
REMARK    6  A    between atoms: C_18  and  N_20
REMARK    7  A    between atoms: C_21  and  C_23
REMARK    8  A    between atoms: C_24  and  C_26
REMARK                            x       y       z     vdW  Elec       q    Type
REMARK                         _______ _______ _______ _____ _____    ______ ____
ROOT
ATOM      1  C   UNL     1      35.973 -20.854 -19.388  0.00  0.00    +0.000 C 
ENDROOT
BRANCH   1   4
ATOM      2  O   UNL     1      34.837 -24.535 -14.497  0.00  0.00    -0.270 OA
ATOM      3  N   UNL     1      35.650 -22.567 -15.462  0.00  0.00    -0.276 N 
ATOM      4  C   UNL     1      35.706 -20.990 -17.891  0.00  0.00    +0.003 C 
ATOM      5  C   UNL     1      36.992 -21.363 -17.136  0.00  0.00    +0.022 C 
ATOM      6  C   UNL     1      34.608 -22.034 -17.624  0.00  0.00    +0.022 C 
ATOM      7  C   UNL     1      36.716 -21.575 -15.650  0.00  0.00    +0.094 C 
ATOM      8  C   UNL     1      34.389 -22.239 -16.127  0.00  0.00    +0.094 C 
ATOM      9  C   UNL     1      35.743 -23.726 -14.688  0.00  0.00    +0.249 C 
BRANCH   9  10
ATOM     10  C   UNL     1      37.028 -24.029 -14.046  0.00  0.00    +0.054 C 
ATOM     11  C   UNL     1      37.887 -24.970 -14.615  0.00  0.00    +0.005 C 
ATOM     12  C   UNL     1      37.391 -23.378 -12.868  0.00  0.00    +0.005 C 
ATOM     13  C   UNL     1      39.107 -25.259 -14.006  0.00  0.00    +0.000 C 
ATOM     14  C   UNL     1      38.612 -23.666 -12.259  0.00  0.00    +0.000 C 
ATOM     15  C   UNL     1      39.470 -24.607 -12.828  0.00  0.00    +0.000 C 
ENDBRANCH   9  10
ENDBRANCH   1   4
BRANCH   1  16
ATOM     16  C   UNL     1      35.410 -19.545 -19.934  0.00  0.00    +0.002 C 
BRANCH  16  17
ATOM     17  C   UNL     1      36.530 -18.562 -20.271  0.00  0.00    +0.021 C 
BRANCH  17  18
ATOM     18  C   UNL     1      36.126 -17.629 -21.406  0.00  0.00    +0.090 C 
BRANCH  18  20
ATOM     19  O   UNL     1      35.734 -15.095 -22.756  0.00  0.00    -0.270 OA
ATOM     20  N   UNL     1      35.408 -16.483 -20.919  0.00  0.00    -0.301 N 
ATOM     21  C   UNL     1      35.271 -15.304 -21.640  0.00  0.00    +0.246 C 
ATOM     22  H   UNL     1      34.991 -16.538 -20.029  0.00  0.00    +0.150 HD
BRANCH  21  23
ATOM     23  C   UNL     1      34.478 -14.282 -20.898  0.00  0.00    +0.058 C 
ATOM     24  C   UNL     1      33.668 -13.448 -21.566  0.00  0.00    +0.006 C 
BRANCH  24  26
ATOM     25  N   UNL     1      31.710 -10.275 -21.116  0.00  0.00    -0.242 NA
ATOM     26  C   UNL     1      32.834 -12.409 -20.937  0.00  0.00    +0.019 C 
ATOM     27  C   UNL     1      32.384 -12.544 -19.629  0.00  0.00    +0.003 C 
ATOM     28  C   UNL     1      32.472 -11.266 -21.633  0.00  0.00    +0.099 C 
ATOM     29  C   UNL     1      31.599 -11.547 -19.063  0.00  0.00    +0.021 C 
ATOM     30  C   UNL     1      31.293 -10.442 -19.841  0.00  0.00    +0.099 C 
ENDBRANCH  24  26
ENDBRANCH  21  23
ENDBRANCH  18  20
ENDBRANCH  17  18
ENDBRANCH  16  17
ENDBRANCH   1  16
TORSDOF 8
ENDMDL
MODEL 7
REMARK VINA RESULT:     -10.9      3.429     12.311
REMARK  Name = 6914657
REMARK  8 active torsions:
REMARK  status: ('A' for Active; 'I' for Inactive)
REMARK    1  A    between atoms: C_1  and  C_4
REMARK    2  A    between atoms: C_1  and  C_16
REMARK    3  A    between atoms: C_9  and  C_10
REMARK    4  A    between atoms: C_16  and  C_17
REMARK    5  A    between atoms: C_17  and  C_18
REMARK    6  A    between atoms: C_18  and  N_20
REMARK    7  A    between atoms: C_21  and  C_23
REMARK    8  A    between atoms: C_24  and  C_26
REMARK                            x       y       z     vdW  Elec       q    Type
REMARK                         _______ _______ _______ _____ _____    ______ ____
ROOT
ATOM      1  C   UNL     1      35.481 -18.593 -20.731  0.00  0.00    +0.000 C 
ENDROOT
BRANCH   1   4
ATOM      2  O   UNL     1      33.323 -13.533 -23.646  0.00  0.00    -0.270 OA
ATOM      3  N   UNL     1      34.645 -14.586 -22.031  0.00  0.00    -0.276 N 
ATOM      4  C   UNL     1      35.689 -17.139 -21.148  0.00  0.00    +0.003 C 
ATOM      5  C   UNL     1      34.961 -16.185 -20.188  0.00  0.00    +0.022 C 
ATOM      6  C   UNL     1      35.211 -16.911 -22.592  0.00  0.00    +0.022 C 
ATOM      7  C   UNL     1      35.100 -14.734 -20.643  0.00  0.00    +0.094 C 
ATOM      8  C   UNL     1      35.336 -15.443 -22.993  0.00  0.00    +0.094 C 
ATOM      9  C   UNL     1      33.674 -13.687 -22.478  0.00  0.00    +0.249 C 
BRANCH   9  10
ATOM     10  C   UNL     1      32.992 -12.852 -21.482  0.00  0.00    +0.054 C 
ATOM     11  C   UNL     1      32.742 -11.506 -21.753  0.00  0.00    +0.005 C 
ATOM     12  C   UNL     1      32.594 -13.402 -20.264  0.00  0.00    +0.005 C 
ATOM     13  C   UNL     1      32.095 -10.712 -20.807  0.00  0.00    +0.000 C 
ATOM     14  C   UNL     1      31.945 -12.608 -19.318  0.00  0.00    +0.000 C 
ATOM     15  C   UNL     1      31.696 -11.263 -19.589  0.00  0.00    +0.000 C 
ENDBRANCH   9  10
ENDBRANCH   1   4
BRANCH   1  16
ATOM     16  C   UNL     1      36.687 -19.125 -19.961  0.00  0.00    +0.002 C 
BRANCH  16  17
ATOM     17  C   UNL     1      36.524 -20.610 -19.641  0.00  0.00    +0.021 C 
BRANCH  17  18
ATOM     18  C   UNL     1      35.576 -20.825 -18.467  0.00  0.00    +0.090 C 
BRANCH  18  20
ATOM     19  O   UNL     1      37.610 -19.789 -16.681  0.00  0.00    -0.270 OA
ATOM     20  N   UNL     1      36.222 -21.517 -17.385  0.00  0.00    -0.301 N 
ATOM     21  C   UNL     1      37.191 -20.937 -16.577  0.00  0.00    +0.246 C 
ATOM     22  H   UNL     1      35.962 -22.450 -17.208  0.00  0.00    +0.150 HD
BRANCH  21  23
ATOM     23  C   UNL     1      37.689 -21.880 -15.535  0.00  0.00    +0.058 C 
ATOM     24  C   UNL     1      36.858 -22.784 -14.998  0.00  0.00    +0.006 C 
BRANCH  24  26
ATOM     25  N   UNL     1      36.645 -25.039 -12.002  0.00  0.00    -0.242 NA
ATOM     26  C   UNL     1      37.243 -23.768 -13.971  0.00  0.00    +0.019 C 
ATOM     27  C   UNL     1      38.506 -24.349 -13.970  0.00  0.00    +0.003 C 
ATOM     28  C   UNL     1      36.356 -24.144 -12.974  0.00  0.00    +0.099 C 
ATOM     29  C   UNL     1      38.840 -25.273 -12.987  0.00  0.00    +0.021 C 
ATOM     30  C   UNL     1      37.883 -25.581 -12.035  0.00  0.00    +0.099 C 
ENDBRANCH  24  26
ENDBRANCH  21  23
ENDBRANCH  18  20
ENDBRANCH  17  18
ENDBRANCH  16  17
ENDBRANCH   1  16
TORSDOF 8
ENDMDL
MODEL 8
REMARK VINA RESULT:     -10.7      2.497     12.632
REMARK  Name = 6914657
REMARK  8 active torsions:
REMARK  status: ('A' for Active; 'I' for Inactive)
REMARK    1  A    between atoms: C_1  and  C_4
REMARK    2  A    between atoms: C_1  and  C_16
REMARK    3  A    between atoms: C_9  and  C_10
REMARK    4  A    between atoms: C_16  and  C_17
REMARK    5  A    between atoms: C_17  and  C_18
REMARK    6  A    between atoms: C_18  and  N_20
REMARK    7  A    between atoms: C_21  and  C_23
REMARK    8  A    between atoms: C_24  and  C_26
REMARK                            x       y       z     vdW  Elec       q    Type
REMARK                         _______ _______ _______ _____ _____    ______ ____
ROOT
ATOM      1  C   UNL     1      35.220 -18.488 -20.359  0.00  0.00    +0.000 C 
ENDROOT
BRANCH   1   4
ATOM      2  O   UNL     1      32.966 -15.941 -25.574  0.00  0.00    -0.270 OA
ATOM      3  N   UNL     1      34.659 -16.273 -23.997  0.00  0.00    -0.276 N 
ATOM      4  C   UNL     1      35.484 -17.890 -21.740  0.00  0.00    +0.003 C 
ATOM      5  C   UNL     1      35.483 -16.354 -21.680  0.00  0.00    +0.022 C 
ATOM      6  C   UNL     1      34.442 -18.385 -22.757  0.00  0.00    +0.022 C 
ATOM      7  C   UNL     1      35.669 -15.749 -23.069  0.00  0.00    +0.094 C 
ATOM      8  C   UNL     1      34.644 -17.730 -24.122  0.00  0.00    +0.094 C 
ATOM      9  C   UNL     1      33.783 -15.504 -24.766  0.00  0.00    +0.249 C 
BRANCH   9  10
ATOM     10  C   UNL     1      33.817 -14.045 -24.605  0.00  0.00    +0.054 C 
ATOM     11  C   UNL     1      33.801 -13.484 -23.327  0.00  0.00    +0.005 C 
ATOM     12  C   UNL     1      33.865 -13.219 -25.727  0.00  0.00    +0.005 C 
ATOM     13  C   UNL     1      33.833 -12.099 -23.173  0.00  0.00    +0.000 C 
ATOM     14  C   UNL     1      33.898 -11.833 -25.573  0.00  0.00    +0.000 C 
ATOM     15  C   UNL     1      33.881 -11.273 -24.296  0.00  0.00    +0.000 C 
ENDBRANCH   9  10
ENDBRANCH   1   4
BRANCH   1  16
ATOM     16  C   UNL     1      34.061 -19.480 -20.399  0.00  0.00    +0.002 C 
BRANCH  16  17
ATOM     17  C   UNL     1      34.258 -20.598 -19.376  0.00  0.00    +0.021 C 
BRANCH  17  18
ATOM     18  C   UNL     1      35.712 -20.689 -18.928  0.00  0.00    +0.090 C 
BRANCH  18  20
ATOM     19  O   UNL     1      37.444 -20.098 -16.681  0.00  0.00    -0.270 OA
ATOM     20  N   UNL     1      35.843 -21.438 -17.707  0.00  0.00    -0.301 N 
ATOM     21  C   UNL     1      36.704 -21.077 -16.679  0.00  0.00    +0.246 C 
ATOM     22  H   UNL     1      35.294 -22.247 -17.595  0.00  0.00    +0.150 HD
BRANCH  21  23
ATOM     23  C   UNL     1      36.638 -22.028 -15.532  0.00  0.00    +0.058 C 
ATOM     24  C   UNL     1      37.744 -22.670 -15.130  0.00  0.00    +0.006 C 
BRANCH  24  26
ATOM     25  N   UNL     1      36.708 -24.619 -12.092  0.00  0.00    -0.242 NA
ATOM     26  C   UNL     1      37.797 -23.622 -14.007  0.00  0.00    +0.019 C 
ATOM     27  C   UNL     1      38.924 -24.404 -13.782  0.00  0.00    +0.003 C 
ATOM     28  C   UNL     1      36.725 -23.766 -13.141  0.00  0.00    +0.099 C 
ATOM     29  C   UNL     1      38.945 -25.293 -12.714  0.00  0.00    +0.021 C 
ATOM     30  C   UNL     1      37.822 -25.362 -11.906  0.00  0.00    +0.099 C 
ENDBRANCH  24  26
ENDBRANCH  21  23
ENDBRANCH  18  20
ENDBRANCH  17  18
ENDBRANCH  16  17
ENDBRANCH   1  16
TORSDOF 8
ENDMDL
MODEL 9
REMARK VINA RESULT:     -10.7      3.669      6.354
REMARK  Name = 6914657
REMARK  8 active torsions:
REMARK  status: ('A' for Active; 'I' for Inactive)
REMARK    1  A    between atoms: C_1  and  C_4
REMARK    2  A    between atoms: C_1  and  C_16
REMARK    3  A    between atoms: C_9  and  C_10
REMARK    4  A    between atoms: C_16  and  C_17
REMARK    5  A    between atoms: C_17  and  C_18
REMARK    6  A    between atoms: C_18  and  N_20
REMARK    7  A    between atoms: C_21  and  C_23
REMARK    8  A    between atoms: C_24  and  C_26
REMARK                            x       y       z     vdW  Elec       q    Type
REMARK                         _______ _______ _______ _____ _____    ______ ____
ROOT
ATOM      1  C   UNL     1      35.761 -20.309 -18.912  0.00  0.00    +0.000 C 
ENDROOT
BRANCH   1   4
ATOM      2  O   UNL     1      33.602 -22.786 -13.624  0.00  0.00    -0.270 OA
ATOM      3  N   UNL     1      33.979 -22.836 -15.931  0.00  0.00    -0.276 N 
ATOM      4  C   UNL     1      35.395 -21.555 -18.108  0.00  0.00    +0.003 C 
ATOM      5  C   UNL     1      33.882 -21.820 -18.170  0.00  0.00    +0.022 C 
ATOM      6  C   UNL     1      35.855 -21.417 -16.647  0.00  0.00    +0.022 C 
ATOM      7  C   UNL     1      33.498 -23.019 -17.306  0.00  0.00    +0.094 C 
ATOM      8  C   UNL     1      35.421 -22.621 -15.813  0.00  0.00    +0.094 C 
ATOM      9  C   UNL     1      33.193 -22.898 -14.778  0.00  0.00    +0.249 C 
BRANCH   9  10
ATOM     10  C   UNL     1      31.748 -23.102 -14.935  0.00  0.00    +0.054 C 
ATOM     11  C   UNL     1      30.982 -22.166 -15.631  0.00  0.00    +0.005 C 
ATOM     12  C   UNL     1      31.139 -24.232 -14.389  0.00  0.00    +0.005 C 
ATOM     13  C   UNL     1      29.610 -22.360 -15.781  0.00  0.00    +0.000 C 
ATOM     14  C   UNL     1      29.766 -24.426 -14.539  0.00  0.00    +0.000 C 
ATOM     15  C   UNL     1      29.001 -23.489 -15.235  0.00  0.00    +0.000 C 
ENDBRANCH   9  10
ENDBRANCH   1   4
BRANCH   1  16
ATOM     16  C   UNL     1      34.639 -19.920 -19.871  0.00  0.00    +0.002 C 
BRANCH  16  17
ATOM     17  C   UNL     1      35.159 -19.014 -20.987  0.00  0.00    +0.021 C 
BRANCH  17  18
ATOM     18  C   UNL     1      36.106 -17.952 -20.442  0.00  0.00    +0.090 C 
BRANCH  18  20
ATOM     19  O   UNL     1      35.670 -15.761 -22.289  0.00  0.00    -0.270 OA
ATOM     20  N   UNL     1      35.421 -16.715 -20.182  0.00  0.00    -0.301 N 
ATOM     21  C   UNL     1      35.259 -15.716 -21.134  0.00  0.00    +0.246 C 
ATOM     22  H   UNL     1      35.047 -16.569 -19.283  0.00  0.00    +0.150 HD
BRANCH  21  23
ATOM     23  C   UNL     1      34.510 -14.545 -20.595  0.00  0.00    +0.058 C 
ATOM     24  C   UNL     1      33.778 -13.782 -21.419  0.00  0.00    +0.006 C 
BRANCH  24  26
ATOM     25  N   UNL     1      32.168 -10.390 -21.490  0.00  0.00    -0.242 NA
ATOM     26  C   UNL     1      32.993 -12.609 -20.997  0.00  0.00    +0.019 C 
ATOM     27  C   UNL     1      32.349 -12.582 -19.764  0.00  0.00    +0.003 C 
ATOM     28  C   UNL     1      32.872 -11.498 -21.816  0.00  0.00    +0.099 C 
ATOM     29  C   UNL     1      31.616 -11.461 -19.394  0.00  0.00    +0.021 C 
ATOM     30  C   UNL     1      31.557 -10.401 -20.284  0.00  0.00    +0.099 C 
ENDBRANCH  24  26
ENDBRANCH  21  23
ENDBRANCH  18  20
ENDBRANCH  17  18
ENDBRANCH  16  17
ENDBRANCH   1  16
TORSDOF 8
ENDMDL
