MODEL 1
REMARK VINA RESULT:     -11.9      0.000      0.000
REMARK  Name = 6323454
REMARK  1 active torsions:
REMARK  status: ('A' for Active; 'I' for Inactive)
REMARK    1  A    between atoms: C_18  and  O_22
REMARK                            x       y       z     vdW  Elec       q    Type
REMARK                         _______ _______ _______ _____ _____    ______ ____
ROOT
ATOM      1  O   UNL     1      34.472 -24.517 -12.797  0.00  0.00    -0.350 OA
ATOM      2  O   UNL     1      37.545 -22.814 -13.117  0.00  0.00    -0.445 OA
ATOM      3  O   UNL     1      37.840 -22.391 -15.860  0.00  0.00    -0.287 OA
ATOM      4  O   UNL     1      38.511 -22.710 -11.026  0.00  0.00    -0.250 OA
ATOM      5  O   UNL     1      32.662 -23.472 -16.523  0.00  0.00    -0.287 OA
ATOM      6  C   UNL     1      35.479 -23.570 -12.511  0.00  0.00    +0.171 C 
ATOM      7  C   UNL     1      36.485 -23.610 -13.634  0.00  0.00    +0.221 C 
ATOM      8  C   UNL     1      35.817 -23.163 -14.898  0.00  0.00    +0.060 C 
ATOM      9  C   UNL     1      33.680 -24.104 -13.944  0.00  0.00    +0.141 C 
ATOM     10  C   UNL     1      34.503 -23.421 -15.045  0.00  0.00    +0.046 C 
ATOM     11  C   UNL     1      36.383 -23.854 -11.338  0.00  0.00    +0.143 C 
ATOM     12  C   UNL     1      37.603 -23.068 -11.761  0.00  0.00    +0.320 C 
ATOM     13  C   UNL     1      36.629 -22.535 -15.969  0.00  0.00    +0.195 C 
ATOM     14  C   UNL     1      33.814 -23.103 -16.328  0.00  0.00    +0.197 C 
ATOM     15  C   UNL     1      32.537 -23.228 -13.422  0.00  0.00    +0.037 C 
ATOM     16  C   UNL     1      35.924 -22.087 -17.183  0.00  0.00    +0.045 C 
ATOM     17  C   UNL     1      34.568 -22.362 -17.355  0.00  0.00    +0.075 C 
ATOM     18  C   UNL     1      33.915 -21.939 -18.520  0.00  0.00    +0.137 C 
ATOM     19  C   UNL     1      36.630 -21.393 -18.174  0.00  0.00    +0.003 C 
ATOM     20  C   UNL     1      34.619 -21.244 -19.504  0.00  0.00    +0.037 C 
ATOM     21  C   UNL     1      35.974 -20.972 -19.331  0.00  0.00    +0.003 C 
ENDROOT
BRANCH  18  22
ATOM     22  O   UNL     1      32.590 -22.168 -18.749  0.00  0.00    -0.505 OA
ATOM     23  H   UNL     1      32.114 -21.614 -19.336  0.00  0.00    +0.292 HD
ENDBRANCH  18  22
TORSDOF 1
ENDMDL
MODEL 2
REMARK VINA RESULT:     -10.9      1.102      1.363
REMARK  Name = 6323454
REMARK  1 active torsions:
REMARK  status: ('A' for Active; 'I' for Inactive)
REMARK    1  A    between atoms: C_18  and  O_22
REMARK                            x       y       z     vdW  Elec       q    Type
REMARK                         _______ _______ _______ _____ _____    ______ ____
ROOT
ATOM      1  O   UNL     1      33.920 -24.337 -14.225  0.00  0.00    -0.350 OA
ATOM      2  O   UNL     1      37.114 -22.839 -14.261  0.00  0.00    -0.445 OA
ATOM      3  O   UNL     1      37.516 -22.088 -16.918  0.00  0.00    -0.287 OA
ATOM      4  O   UNL     1      38.025 -23.078 -12.156  0.00  0.00    -0.250 OA
ATOM      5  O   UNL     1      32.295 -22.688 -17.814  0.00  0.00    -0.287 OA
ATOM      6  C   UNL     1      34.984 -23.512 -13.798  0.00  0.00    +0.171 C 
ATOM      7  C   UNL     1      36.015 -23.481 -14.897  0.00  0.00    +0.221 C 
ATOM      8  C   UNL     1      35.417 -22.825 -16.104  0.00  0.00    +0.060 C 
ATOM      9  C   UNL     1      33.193 -23.721 -15.322  0.00  0.00    +0.141 C 
ATOM     10  C   UNL     1      34.093 -22.964 -16.308  0.00  0.00    +0.046 C 
ATOM     11  C   UNL     1      35.831 -24.012 -12.655  0.00  0.00    +0.143 C 
ATOM     12  C   UNL     1      37.116 -23.270 -12.948  0.00  0.00    +0.320 C 
ATOM     13  C   UNL     1      36.301 -22.127 -17.068  0.00  0.00    +0.195 C 
ATOM     14  C   UNL     1      33.464 -22.434 -17.551  0.00  0.00    +0.197 C 
ATOM     15  C   UNL     1      32.100 -22.838 -14.711  0.00  0.00    +0.037 C 
ATOM     16  C   UNL     1      35.665 -21.474 -18.226  0.00  0.00    +0.045 C 
ATOM     17  C   UNL     1      34.298 -21.623 -18.458  0.00  0.00    +0.075 C 
ATOM     18  C   UNL     1      33.709 -21.006 -19.569  0.00  0.00    +0.137 C 
ATOM     19  C   UNL     1      36.445 -20.712 -19.103  0.00  0.00    +0.003 C 
ATOM     20  C   UNL     1      34.489 -20.244 -20.441  0.00  0.00    +0.037 C 
ATOM     21  C   UNL     1      35.854 -20.098 -20.208  0.00  0.00    +0.003 C 
ENDROOT
BRANCH  18  22
ATOM     22  O   UNL     1      32.379 -21.105 -19.851  0.00  0.00    -0.505 OA
ATOM     23  H   UNL     1      32.099 -21.368 -20.706  0.00  0.00    +0.292 HD
ENDBRANCH  18  22
TORSDOF 1
ENDMDL
MODEL 3
REMARK VINA RESULT:     -10.3      1.951      6.084
REMARK  Name = 6323454
REMARK  1 active torsions:
REMARK  status: ('A' for Active; 'I' for Inactive)
REMARK    1  A    between atoms: C_18  and  O_22
REMARK                            x       y       z     vdW  Elec       q    Type
REMARK                         _______ _______ _______ _____ _____    ______ ____
ROOT
ATOM      1  O   UNL     1      37.039 -22.336 -17.463  0.00  0.00    -0.350 OA
ATOM      2  O   UNL     1      34.143 -21.160 -19.098  0.00  0.00    -0.445 OA
ATOM      3  O   UNL     1      32.037 -22.539 -17.891  0.00  0.00    -0.287 OA
ATOM      4  O   UNL     1      34.817 -19.758 -20.799  0.00  0.00    -0.250 OA
ATOM      5  O   UNL     1      35.288 -23.874 -13.883  0.00  0.00    -0.287 OA
ATOM      6  C   UNL     1      36.144 -21.403 -18.030  0.00  0.00    +0.171 C 
ATOM      7  C   UNL     1      34.851 -22.120 -18.322  0.00  0.00    +0.221 C 
ATOM      8  C   UNL     1      34.243 -22.570 -17.029  0.00  0.00    +0.060 C 
ATOM      9  C   UNL     1      36.597 -22.741 -16.139  0.00  0.00    +0.141 C 
ATOM     10  C   UNL     1      35.074 -22.883 -16.015  0.00  0.00    +0.046 C 
ATOM     11  C   UNL     1      36.471 -20.878 -19.406  0.00  0.00    +0.143 C 
ATOM     12  C   UNL     1      35.082 -20.510 -19.874  0.00  0.00    +0.320 C 
ATOM     13  C   UNL     1      32.773 -22.737 -16.933  0.00  0.00    +0.195 C 
ATOM     14  C   UNL     1      34.532 -23.447 -14.747  0.00  0.00    +0.197 C 
ATOM     15  C   UNL     1      37.188 -21.749 -15.132  0.00  0.00    +0.037 C 
ATOM     16  C   UNL     1      32.219 -23.156 -15.633  0.00  0.00    +0.045 C 
ATOM     17  C   UNL     1      33.068 -23.498 -14.580  0.00  0.00    +0.075 C 
ATOM     18  C   UNL     1      32.526 -23.905 -13.354  0.00  0.00    +0.137 C 
ATOM     19  C   UNL     1      30.831 -23.222 -15.463  0.00  0.00    +0.003 C 
ATOM     20  C   UNL     1      31.142 -23.967 -13.187  0.00  0.00    +0.037 C 
ATOM     21  C   UNL     1      30.297 -23.627 -14.239  0.00  0.00    +0.003 C 
ENDROOT
BRANCH  18  22
ATOM     22  O   UNL     1      33.298 -24.246 -12.283  0.00  0.00    -0.505 OA
ATOM     23  H   UNL     1      32.922 -24.722 -11.568  0.00  0.00    +0.292 HD
ENDBRANCH  18  22
TORSDOF 1
ENDMDL
MODEL 4
REMARK VINA RESULT:     -10.3      2.021      5.746
REMARK  Name = 6323454
REMARK  1 active torsions:
REMARK  status: ('A' for Active; 'I' for Inactive)
REMARK    1  A    between atoms: C_18  and  O_22
REMARK                            x       y       z     vdW  Elec       q    Type
REMARK                         _______ _______ _______ _____ _____    ______ ____
ROOT
ATOM      1  O   UNL     1      31.969 -22.954 -14.455  0.00  0.00    -0.350 OA
ATOM      2  O   UNL     1      34.225 -22.853 -17.165  0.00  0.00    -0.445 OA
ATOM      3  O   UNL     1      36.749 -23.080 -15.997  0.00  0.00    -0.287 OA
ATOM      4  O   UNL     1      33.006 -22.439 -19.078  0.00  0.00    -0.250 OA
ATOM      5  O   UNL     1      34.449 -24.796 -11.504  0.00  0.00    -0.287 OA
ATOM      6  C   UNL     1      32.498 -23.253 -15.729  0.00  0.00    +0.171 C 
ATOM      7  C   UNL     1      33.904 -22.712 -15.787  0.00  0.00    +0.221 C 
ATOM      8  C   UNL     1      34.746 -23.444 -14.787  0.00  0.00    +0.060 C 
ATOM      9  C   UNL     1      32.643 -23.720 -13.420  0.00  0.00    +0.141 C 
ATOM     10  C   UNL     1      34.149 -23.894 -13.665  0.00  0.00    +0.046 C 
ATOM     11  C   UNL     1      31.893 -22.542 -16.914  0.00  0.00    +0.143 C 
ATOM     12  C   UNL     1      33.064 -22.598 -17.869  0.00  0.00    +0.320 C 
ATOM     13  C   UNL     1      36.204 -23.575 -15.019  0.00  0.00    +0.195 C 
ATOM     14  C   UNL     1      34.958 -24.525 -12.585  0.00  0.00    +0.197 C 
ATOM     15  C   UNL     1      31.904 -25.054 -13.278  0.00  0.00    +0.037 C 
ATOM     16  C   UNL     1      36.987 -24.327 -14.021  0.00  0.00    +0.045 C 
ATOM     17  C   UNL     1      36.386 -24.783 -12.849  0.00  0.00    +0.075 C 
ATOM     18  C   UNL     1      37.145 -25.486 -11.905  0.00  0.00    +0.137 C 
ATOM     19  C   UNL     1      38.346 -24.569 -14.251  0.00  0.00    +0.003 C 
ATOM     20  C   UNL     1      38.499 -25.730 -12.138  0.00  0.00    +0.037 C 
ATOM     21  C   UNL     1      39.099 -25.271 -13.309  0.00  0.00    +0.003 C 
ENDROOT
BRANCH  18  22
ATOM     22  O   UNL     1      36.619 -25.967 -10.743  0.00  0.00    -0.505 OA
ATOM     23  H   UNL     1      37.181 -26.349 -10.097  0.00  0.00    +0.292 HD
ENDBRANCH  18  22
TORSDOF 1
ENDMDL
MODEL 5
REMARK VINA RESULT:     -10.2      2.200      5.357
REMARK  Name = 6323454
REMARK  1 active torsions:
REMARK  status: ('A' for Active; 'I' for Inactive)
REMARK    1  A    between atoms: C_18  and  O_22
REMARK                            x       y       z     vdW  Elec       q    Type
REMARK                         _______ _______ _______ _____ _____    ______ ____
ROOT
ATOM      1  O   UNL     1      36.502 -23.698 -15.114  0.00  0.00    -0.350 OA
ATOM      2  O   UNL     1      34.968 -21.778 -17.645  0.00  0.00    -0.445 OA
ATOM      3  O   UNL     1      32.297 -22.589 -17.630  0.00  0.00    -0.287 OA
ATOM      4  O   UNL     1      36.617 -20.564 -18.703  0.00  0.00    -0.250 OA
ATOM      5  O   UNL     1      33.059 -24.803 -12.841  0.00  0.00    -0.287 OA
ATOM      6  C   UNL     1      36.183 -22.553 -15.876  0.00  0.00    +0.171 C 
ATOM      7  C   UNL     1      35.027 -22.905 -16.778  0.00  0.00    +0.221 C 
ATOM      8  C   UNL     1      33.828 -23.208 -15.932  0.00  0.00    +0.060 C 
ATOM      9  C   UNL     1      35.444 -24.001 -14.165  0.00  0.00    +0.141 C 
ATOM     10  C   UNL     1      34.033 -23.747 -14.714  0.00  0.00    +0.046 C 
ATOM     11  C   UNL     1      37.191 -22.103 -16.904  0.00  0.00    +0.143 C 
ATOM     12  C   UNL     1      36.272 -21.378 -17.861  0.00  0.00    +0.320 C 
ATOM     13  C   UNL     1      32.470 -22.990 -16.486  0.00  0.00    +0.195 C 
ATOM     14  C   UNL     1      32.877 -24.177 -13.878  0.00  0.00    +0.197 C 
ATOM     15  C   UNL     1      35.737 -23.217 -12.882  0.00  0.00    +0.037 C 
ATOM     16  C   UNL     1      31.322 -23.279 -15.608  0.00  0.00    +0.045 C 
ATOM     17  C   UNL     1      31.519 -23.850 -14.352  0.00  0.00    +0.075 C 
ATOM     18  C   UNL     1      30.418 -24.128 -13.533  0.00  0.00    +0.137 C 
ATOM     19  C   UNL     1      30.026 -22.986 -16.049  0.00  0.00    +0.003 C 
ATOM     20  C   UNL     1      29.127 -23.833 -13.973  0.00  0.00    +0.037 C 
ATOM     21  C   UNL     1      28.931 -23.263 -15.229  0.00  0.00    +0.003 C 
ENDROOT
BRANCH  18  22
ATOM     22  O   UNL     1      30.540 -24.679 -12.292  0.00  0.00    -0.505 OA
ATOM     23  H   UNL     1      30.165 -25.520 -12.114  0.00  0.00    +0.292 HD
ENDBRANCH  18  22
TORSDOF 1
ENDMDL
MODEL 6
REMARK VINA RESULT:     -10.1      1.772      4.536
REMARK  Name = 6323454
REMARK  1 active torsions:
REMARK  status: ('A' for Active; 'I' for Inactive)
REMARK    1  A    between atoms: C_18  and  O_22
REMARK                            x       y       z     vdW  Elec       q    Type
REMARK                         _______ _______ _______ _____ _____    ______ ____
ROOT
ATOM      1  O   UNL     1      33.070 -24.000 -12.517  0.00  0.00    -0.350 OA
ATOM      2  O   UNL     1      30.728 -24.364 -15.130  0.00  0.00    -0.445 OA
ATOM      3  O   UNL     1      31.666 -22.697 -17.162  0.00  0.00    -0.287 OA
ATOM      4  O   UNL     1      29.015 -25.701 -14.357  0.00  0.00    -0.250 OA
ATOM      5  O   UNL     1      36.402 -22.490 -14.722  0.00  0.00    -0.287 OA
ATOM      6  C   UNL     1      32.204 -24.660 -13.416  0.00  0.00    +0.171 C 
ATOM      7  C   UNL     1      31.761 -23.659 -14.452  0.00  0.00    +0.221 C 
ATOM      8  C   UNL     1      32.955 -23.221 -15.244  0.00  0.00    +0.060 C 
ATOM      9  C   UNL     1      34.320 -23.644 -13.166  0.00  0.00    +0.141 C 
ATOM     10  C   UNL     1      34.151 -23.194 -14.624  0.00  0.00    +0.046 C 
ATOM     11  C   UNL     1      30.863 -25.102 -12.886  0.00  0.00    +0.143 C 
ATOM     12  C   UNL     1      30.073 -25.118 -14.176  0.00  0.00    +0.320 C 
ATOM     13  C   UNL     1      32.773 -22.756 -16.641  0.00  0.00    +0.195 C 
ATOM     14  C   UNL     1      35.350 -22.658 -15.327  0.00  0.00    +0.197 C 
ATOM     15  C   UNL     1      35.272 -24.835 -13.015  0.00  0.00    +0.037 C 
ATOM     16  C   UNL     1      33.980 -22.361 -17.389  0.00  0.00    +0.045 C 
ATOM     17  C   UNL     1      35.220 -22.313 -16.755  0.00  0.00    +0.075 C 
ATOM     18  C   UNL     1      36.356 -21.925 -17.476  0.00  0.00    +0.137 C 
ATOM     19  C   UNL     1      33.871 -22.018 -18.742  0.00  0.00    +0.003 C 
ATOM     20  C   UNL     1      36.246 -21.588 -18.826  0.00  0.00    +0.037 C 
ATOM     21  C   UNL     1      35.006 -21.634 -19.457  0.00  0.00    +0.003 C 
ENDROOT
BRANCH  18  22
ATOM     22  O   UNL     1      37.600 -21.864 -16.921  0.00  0.00    -0.505 OA
ATOM     23  H   UNL     1      37.955 -21.038 -16.657  0.00  0.00    +0.292 HD
ENDBRANCH  18  22
TORSDOF 1
ENDMDL
MODEL 7
REMARK VINA RESULT:      -9.8      7.998     12.220
REMARK  Name = 6323454
REMARK  1 active torsions:
REMARK  status: ('A' for Active; 'I' for Inactive)
REMARK    1  A    between atoms: C_18  and  O_22
REMARK                            x       y       z     vdW  Elec       q    Type
REMARK                         _______ _______ _______ _____ _____    ______ ____
ROOT
ATOM      1  O   UNL     1      34.363 -12.343 -22.558  0.00  0.00    -0.350 OA
ATOM      2  O   UNL     1      33.420 -13.738 -25.657  0.00  0.00    -0.445 OA
ATOM      3  O   UNL     1      34.489 -16.316 -25.631  0.00  0.00    -0.287 OA
ATOM      4  O   UNL     1      32.374 -12.087 -26.882  0.00  0.00    -0.250 OA
ATOM      5  O   UNL     1      35.164 -15.917 -20.358  0.00  0.00    -0.287 OA
ATOM      6  C   UNL     1      33.523 -12.670 -23.644  0.00  0.00    +0.171 C 
ATOM      7  C   UNL     1      34.242 -13.683 -24.498  0.00  0.00    +0.221 C 
ATOM      8  C   UNL     1      34.429 -14.940 -23.704  0.00  0.00    +0.060 C 
ATOM      9  C   UNL     1      34.504 -13.473 -21.654  0.00  0.00    +0.141 C 
ATOM     10  C   UNL     1      34.575 -14.829 -22.369  0.00  0.00    +0.046 C 
ATOM     11  C   UNL     1      33.270 -11.593 -24.670  0.00  0.00    +0.143 C 
ATOM     12  C   UNL     1      32.952 -12.456 -25.871  0.00  0.00    +0.320 C 
ATOM     13  C   UNL     1      34.530 -16.240 -24.410  0.00  0.00    +0.195 C 
ATOM     14  C   UNL     1      34.880 -16.032 -21.544  0.00  0.00    +0.197 C 
ATOM     15  C   UNL     1      33.363 -13.394 -20.635  0.00  0.00    +0.037 C 
ATOM     16  C   UNL     1      34.687 -17.452 -23.585  0.00  0.00    +0.045 C 
ATOM     17  C   UNL     1      34.856 -17.350 -22.205  0.00  0.00    +0.075 C 
ATOM     18  C   UNL     1      35.014 -18.510 -21.436  0.00  0.00    +0.137 C 
ATOM     19  C   UNL     1      34.678 -18.710 -24.199  0.00  0.00    +0.003 C 
ATOM     20  C   UNL     1      35.002 -19.763 -22.050  0.00  0.00    +0.037 C 
ATOM     21  C   UNL     1      34.835 -19.863 -23.429  0.00  0.00    +0.003 C 
ENDROOT
BRANCH  18  22
ATOM     22  O   UNL     1      35.176 -18.483 -20.082  0.00  0.00    -0.505 OA
ATOM     23  H   UNL     1      34.829 -19.176 -19.555  0.00  0.00    +0.292 HD
ENDBRANCH  18  22
TORSDOF 1
ENDMDL
MODEL 8
REMARK VINA RESULT:      -9.4      7.106     10.516
REMARK  Name = 6323454
REMARK  1 active torsions:
REMARK  status: ('A' for Active; 'I' for Inactive)
REMARK    1  A    between atoms: C_18  and  O_22
REMARK                            x       y       z     vdW  Elec       q    Type
REMARK                         _______ _______ _______ _____ _____    ______ ____
ROOT
ATOM      1  O   UNL     1      34.759 -19.446 -23.885  0.00  0.00    -0.350 OA
ATOM      2  O   UNL     1      35.107 -18.238 -20.589  0.00  0.00    -0.445 OA
ATOM      3  O   UNL     1      35.422 -15.480 -20.873  0.00  0.00    -0.287 OA
ATOM      4  O   UNL     1      35.170 -20.059 -19.176  0.00  0.00    -0.250 OA
ATOM      5  O   UNL     1      33.593 -15.847 -25.867  0.00  0.00    -0.287 OA
ATOM      6  C   UNL     1      34.484 -19.304 -22.507  0.00  0.00    +0.171 C 
ATOM      7  C   UNL     1      35.272 -18.123 -21.997  0.00  0.00    +0.221 C 
ATOM      8  C   UNL     1      34.771 -16.881 -22.668  0.00  0.00    +0.060 C 
ATOM      9  C   UNL     1      34.197 -18.341 -24.643  0.00  0.00    +0.141 C 
ATOM     10  C   UNL     1      34.289 -16.989 -23.922  0.00  0.00    +0.046 C 
ATOM     11  C   UNL     1      34.997 -20.381 -21.585  0.00  0.00    +0.143 C 
ATOM     12  C   UNL     1      35.099 -19.589 -20.301  0.00  0.00    +0.320 C 
ATOM     13  C   UNL     1      34.897 -15.576 -21.975  0.00  0.00    +0.195 C 
ATOM     14  C   UNL     1      33.886 -15.771 -24.680  0.00  0.00    +0.197 C 
ATOM     15  C   UNL     1      32.760 -18.722 -25.016  0.00  0.00    +0.037 C 
ATOM     16  C   UNL     1      34.366 -14.386 -22.663  0.00  0.00    +0.045 C 
ATOM     17  C   UNL     1      33.880 -14.481 -23.966  0.00  0.00    +0.075 C 
ATOM     18  C   UNL     1      33.389 -13.339 -24.611  0.00  0.00    +0.137 C 
ATOM     19  C   UNL     1      34.365 -13.151 -22.004  0.00  0.00    +0.003 C 
ATOM     20  C   UNL     1      33.386 -12.109 -23.950  0.00  0.00    +0.037 C 
ATOM     21  C   UNL     1      33.874 -12.016 -22.649  0.00  0.00    +0.003 C 
ENDROOT
BRANCH  18  22
ATOM     22  O   UNL     1      32.892 -13.362 -25.881  0.00  0.00    -0.505 OA
ATOM     23  H   UNL     1      32.421 -12.623 -26.213  0.00  0.00    +0.292 HD
ENDBRANCH  18  22
TORSDOF 1
ENDMDL
MODEL 9
REMARK VINA RESULT:      -9.4      2.389      5.429
REMARK  Name = 6323454
REMARK  1 active torsions:
REMARK  status: ('A' for Active; 'I' for Inactive)
REMARK    1  A    between atoms: C_18  and  O_22
REMARK                            x       y       z     vdW  Elec       q    Type
REMARK                         _______ _______ _______ _____ _____    ______ ____
ROOT
ATOM      1  O   UNL     1      30.810 -23.821 -13.389  0.00  0.00    -0.350 OA
ATOM      2  O   UNL     1      29.786 -23.466 -16.746  0.00  0.00    -0.445 OA
ATOM      3  O   UNL     1      31.836 -22.017 -17.965  0.00  0.00    -0.287 OA
ATOM      4  O   UNL     1      27.663 -24.347 -16.929  0.00  0.00    -0.250 OA
ATOM      5  O   UNL     1      35.004 -23.132 -13.824  0.00  0.00    -0.287 OA
ATOM      6  C   UNL     1      30.289 -24.200 -14.645  0.00  0.00    +0.171 C 
ATOM      7  C   UNL     1      30.558 -23.078 -15.616  0.00  0.00    +0.221 C 
ATOM      8  C   UNL     1      32.039 -22.931 -15.789  0.00  0.00    +0.060 C 
ATOM      9  C   UNL     1      32.263 -23.774 -13.422  0.00  0.00    +0.141 C 
ATOM     10  C   UNL     1      32.831 -23.238 -14.743  0.00  0.00    +0.046 C 
ATOM     11  C   UNL     1      28.790 -24.303 -14.770  0.00  0.00    +0.143 C 
ATOM     12  C   UNL     1      28.641 -24.064 -16.255  0.00  0.00    +0.320 C 
ATOM     13  C   UNL     1      32.574 -22.380 -17.057  0.00  0.00    +0.195 C 
ATOM     14  C   UNL     1      34.300 -23.000 -14.819  0.00  0.00    +0.197 C 
ATOM     15  C   UNL     1      32.777 -25.174 -13.074  0.00  0.00    +0.037 C 
ATOM     16  C   UNL     1      34.038 -22.278 -17.191  0.00  0.00    +0.045 C 
ATOM     17  C   UNL     1      34.869 -22.577 -16.112  0.00  0.00    +0.075 C 
ATOM     18  C   UNL     1      36.258 -22.466 -16.251  0.00  0.00    +0.137 C 
ATOM     19  C   UNL     1      34.592 -21.866 -18.409  0.00  0.00    +0.003 C 
ATOM     20  C   UNL     1      36.808 -22.058 -17.467  0.00  0.00    +0.037 C 
ATOM     21  C   UNL     1      35.977 -21.758 -18.543  0.00  0.00    +0.003 C 
ENDROOT
BRANCH  18  22
ATOM     22  O   UNL     1      37.127 -22.749 -15.240  0.00  0.00    -0.505 OA
ATOM     23  H   UNL     1      37.604 -23.556 -15.245  0.00  0.00    +0.292 HD
ENDBRANCH  18  22
TORSDOF 1
ENDMDL
