MODEL 1
REMARK VINA RESULT:     -11.8      0.000      0.000
REMARK  Name = 16741245
REMARK  7 active torsions:
REMARK  status: ('A' for Active; 'I' for Inactive)
REMARK    1  A    between atoms: C_2  and  S_20
REMARK    2  A    between atoms: C_3  and  N_9
REMARK    3  A    between atoms: C_10  and  C_12
REMARK    4  A    between atoms: C_12  and  C_17
REMARK    5  A    between atoms: C_12  and  O_18
REMARK    6  A    between atoms: S_20  and  C_23
REMARK    7  A    between atoms: C_26  and  C_31
REMARK                            x       y       z     vdW  Elec       q    Type
REMARK                         _______ _______ _______ _____ _____    ______ ____
ROOT
ATOM      1 CL   UNL     1      33.699 -14.354 -24.329  0.00  0.00    -0.081 Cl
ATOM      2  C   UNL     1      35.447 -16.847 -21.745  0.00  0.00    +0.111 C 
ATOM      3  C   UNL     1      34.106 -14.422 -21.630  0.00  0.00    +0.061 C 
ATOM      4  C   UNL     1      34.960 -16.262 -22.915  0.00  0.00    +0.031 C 
ATOM      5  C   UNL     1      35.258 -16.211 -20.518  0.00  0.00    +0.020 C 
ATOM      6  C   UNL     1      34.286 -15.042 -22.857  0.00  0.00    +0.072 C 
ATOM      7  C   UNL     1      34.585 -14.991 -20.460  0.00  0.00    +0.017 C 
ENDROOT
BRANCH   3   9
ATOM      8  O   UNL     1      31.588 -13.704 -20.184  0.00  0.00    -0.272 OA
ATOM      9  N   UNL     1      33.426 -13.184 -21.537  0.00  0.00    -0.281 N 
ATOM     10  C   UNL     1      32.251 -12.909 -20.847  0.00  0.00    +0.259 C 
ATOM     11  H   UNL     1      33.833 -12.429 -22.019  0.00  0.00    +0.155 HD
BRANCH  10  12
ATOM     12  C   UNL     1      31.813 -11.439 -20.979  0.00  0.00    +0.245 C 
ATOM     13  C   UNL     1      32.575 -10.728 -22.098  0.00  0.00    +0.048 C 
BRANCH  12  17
ATOM     14  F   UNL     1      32.569 -11.431 -18.718  0.00  0.00    -0.167 F 
ATOM     15  F   UNL     1      30.721 -10.371 -19.164  0.00  0.00    -0.167 F 
ATOM     16  F   UNL     1      32.632  -9.542 -19.808  0.00  0.00    -0.167 F 
ATOM     17  C   UNL     1      31.940 -10.694 -19.658  0.00  0.00    +0.427 C 
ENDBRANCH  12  17
BRANCH  12  18
ATOM     18  O   UNL     1      30.427 -11.441 -21.321  0.00  0.00    -0.372 OA
ATOM     19  H   UNL     1      30.013 -12.251 -20.985  0.00  0.00    +0.211 HD
ENDBRANCH  12  18
ENDBRANCH  10  12
ENDBRANCH   3   9
BRANCH   2  20
ATOM     20  S   UNL     1      36.290 -18.374 -21.817  0.00  0.00    +0.027 S 
ATOM     21  O   UNL     1      37.633 -18.203 -21.279  0.00  0.00    -0.164 OA
ATOM     22  O   UNL     1      36.113 -18.876 -23.172  0.00  0.00    -0.164 OA
BRANCH  20  23
ATOM     23  C   UNL     1      35.493 -19.508 -20.712  0.00  0.00    +0.110 C 
ATOM     24  C   UNL     1      36.270 -20.280 -19.870  0.00  0.00    +0.019 C 
ATOM     25  C   UNL     1      34.113 -19.594 -20.718  0.00  0.00    +0.019 C 
ATOM     26  C   UNL     1      34.252 -21.278 -18.991  0.00  0.00    +0.054 C 
ATOM     27  C   UNL     1      35.643 -21.174 -19.002  0.00  0.00    +0.006 C 
ATOM     28  C   UNL     1      33.488 -20.487 -19.849  0.00  0.00    +0.006 C 
BRANCH  26  31
ATOM     29  O   UNL     1      32.431 -22.521 -18.347  0.00  0.00    -0.270 OA
ATOM     30  N   UNL     1      34.311 -22.685 -16.969  0.00  0.00    -0.273 N 
ATOM     31  C   UNL     1      33.600 -22.209 -18.084  0.00  0.00    +0.249 C 
ATOM     32  C   UNL     1      35.691 -22.288 -16.698  0.00  0.00    +0.115 C 
ATOM     33  C   UNL     1      33.721 -23.606 -16.008  0.00  0.00    +0.115 C 
ENDBRANCH  26  31
ENDBRANCH  20  23
ENDBRANCH   2  20
TORSDOF 7
ENDMDL
MODEL 2
REMARK VINA RESULT:     -11.6      2.664      4.201
REMARK  Name = 16741245
REMARK  7 active torsions:
REMARK  status: ('A' for Active; 'I' for Inactive)
REMARK    1  A    between atoms: C_2  and  S_20
REMARK    2  A    between atoms: C_3  and  N_9
REMARK    3  A    between atoms: C_10  and  C_12
REMARK    4  A    between atoms: C_12  and  C_17
REMARK    5  A    between atoms: C_12  and  O_18
REMARK    6  A    between atoms: S_20  and  C_23
REMARK    7  A    between atoms: C_26  and  C_31
REMARK                            x       y       z     vdW  Elec       q    Type
REMARK                         _______ _______ _______ _____ _____    ______ ____
ROOT
ATOM      1 CL   UNL     1      32.681 -12.461 -20.462  0.00  0.00    -0.081 Cl
ATOM      2  C   UNL     1      33.641 -13.953 -24.039  0.00  0.00    +0.111 C 
ATOM      3  C   UNL     1      33.337 -11.440 -22.907  0.00  0.00    +0.061 C 
ATOM      4  C   UNL     1      33.281 -13.831 -22.697  0.00  0.00    +0.031 C 
ATOM      5  C   UNL     1      33.848 -12.810 -24.811  0.00  0.00    +0.020 C 
ATOM      6  C   UNL     1      33.127 -12.567 -22.128  0.00  0.00    +0.072 C 
ATOM      7  C   UNL     1      33.694 -11.546 -24.243  0.00  0.00    +0.017 C 
ENDROOT
BRANCH   3   9
ATOM      8  O   UNL     1      30.925 -10.086 -21.768  0.00  0.00    -0.272 OA
ATOM      9  N   UNL     1      33.189 -10.142 -22.360  0.00  0.00    -0.281 N 
ATOM     10  C   UNL     1      32.036  -9.564 -21.843  0.00  0.00    +0.259 C 
ATOM     11  H   UNL     1      33.999  -9.584 -22.345  0.00  0.00    +0.155 HD
BRANCH  10  12
ATOM     12  C   UNL     1      32.265  -8.128 -21.337  0.00  0.00    +0.245 C 
ATOM     13  C   UNL     1      33.440  -7.464 -22.055  0.00  0.00    +0.048 C 
BRANCH  12  17
ATOM     14  F   UNL     1      32.705  -9.307 -19.312  0.00  0.00    -0.167 F 
ATOM     15  F   UNL     1      31.318  -7.632 -19.220  0.00  0.00    -0.167 F 
ATOM     16  F   UNL     1      33.452  -7.263 -19.471  0.00  0.00    -0.167 F 
ATOM     17  C   UNL     1      32.440  -8.086 -19.826  0.00  0.00    +0.427 C 
ENDBRANCH  12  17
BRANCH  12  18
ATOM     18  O   UNL     1      31.086  -7.382 -21.638  0.00  0.00    -0.372 OA
ATOM     19  H   UNL     1      30.489  -7.399 -20.873  0.00  0.00    +0.211 HD
ENDBRANCH  12  18
ENDBRANCH  10  12
ENDBRANCH   3   9
BRANCH   2  20
ATOM     20  S   UNL     1      33.833 -15.535 -24.752  0.00  0.00    +0.027 S 
ATOM     21  O   UNL     1      34.810 -15.457 -25.830  0.00  0.00    -0.164 OA
ATOM     22  O   UNL     1      32.490 -16.027 -25.027  0.00  0.00    -0.164 OA
BRANCH  20  23
ATOM     23  C   UNL     1      34.566 -16.609 -23.546  0.00  0.00    +0.110 C 
ATOM     24  C   UNL     1      35.123 -16.057 -22.408  0.00  0.00    +0.019 C 
ATOM     25  C   UNL     1      34.565 -17.972 -23.774  0.00  0.00    +0.019 C 
ATOM     26  C   UNL     1      35.711 -18.281 -21.669  0.00  0.00    +0.054 C 
ATOM     27  C   UNL     1      35.701 -16.902 -21.461  0.00  0.00    +0.006 C 
ATOM     28  C   UNL     1      35.143 -18.816 -22.825  0.00  0.00    +0.006 C 
BRANCH  26  31
ATOM     29  O   UNL     1      37.534 -19.055 -20.503  0.00  0.00    -0.270 OA
ATOM     30  N   UNL     1      35.495 -20.081 -20.000  0.00  0.00    -0.273 N 
ATOM     31  C   UNL     1      36.313 -19.161 -20.680  0.00  0.00    +0.249 C 
ATOM     32  C   UNL     1      34.057 -20.172 -20.242  0.00  0.00    +0.115 C 
ATOM     33  C   UNL     1      36.026 -21.006 -19.009  0.00  0.00    +0.115 C 
ENDBRANCH  26  31
ENDBRANCH  20  23
ENDBRANCH   2  20
TORSDOF 7
ENDMDL
MODEL 3
REMARK VINA RESULT:     -11.5      2.668      4.153
REMARK  Name = 16741245
REMARK  7 active torsions:
REMARK  status: ('A' for Active; 'I' for Inactive)
REMARK    1  A    between atoms: C_2  and  S_20
REMARK    2  A    between atoms: C_3  and  N_9
REMARK    3  A    between atoms: C_10  and  C_12
REMARK    4  A    between atoms: C_12  and  C_17
REMARK    5  A    between atoms: C_12  and  O_18
REMARK    6  A    between atoms: S_20  and  C_23
REMARK    7  A    between atoms: C_26  and  C_31
REMARK                            x       y       z     vdW  Elec       q    Type
REMARK                         _______ _______ _______ _____ _____    ______ ____
ROOT
ATOM      1 CL   UNL     1      34.791 -10.201 -25.017  0.00  0.00    -0.081 Cl
ATOM      2  C   UNL     1      33.696 -13.921 -24.066  0.00  0.00    +0.111 C 
ATOM      3  C   UNL     1      33.432 -11.389 -22.968  0.00  0.00    +0.061 C 
ATOM      4  C   UNL     1      34.238 -12.817 -24.723  0.00  0.00    +0.031 C 
ATOM      5  C   UNL     1      33.021 -13.751 -22.857  0.00  0.00    +0.020 C 
ATOM      6  C   UNL     1      34.105 -11.543 -24.171  0.00  0.00    +0.072 C 
ATOM      7  C   UNL     1      32.889 -12.478 -22.305  0.00  0.00    +0.017 C 
ENDROOT
BRANCH   3   9
ATOM      8  O   UNL     1      31.034 -10.108 -21.721  0.00  0.00    -0.272 OA
ATOM      9  N   UNL     1      33.280 -10.109 -22.382  0.00  0.00    -0.281 N 
ATOM     10  C   UNL     1      32.134  -9.565 -21.815  0.00  0.00    +0.259 C 
ATOM     11  H   UNL     1      34.081  -9.538 -22.375  0.00  0.00    +0.155 HD
BRANCH  10  12
ATOM     12  C   UNL     1      32.355  -8.140 -21.277  0.00  0.00    +0.245 C 
ATOM     13  C   UNL     1      33.553  -7.469 -21.948  0.00  0.00    +0.048 C 
BRANCH  12  17
ATOM     14  F   UNL     1      32.762  -9.350 -19.264  0.00  0.00    -0.167 F 
ATOM     15  F   UNL     1      31.337  -7.707 -19.179  0.00  0.00    -0.167 F 
ATOM     16  F   UNL     1      33.469  -7.289 -19.360  0.00  0.00    -0.167 F 
ATOM     17  C   UNL     1      32.485  -8.126 -19.760  0.00  0.00    +0.427 C 
ENDBRANCH  12  17
BRANCH  12  18
ATOM     18  O   UNL     1      31.188  -7.381 -21.598  0.00  0.00    -0.372 OA
ATOM     19  H   UNL     1      30.416  -7.780 -21.167  0.00  0.00    +0.211 HD
ENDBRANCH  12  18
ENDBRANCH  10  12
ENDBRANCH   3   9
BRANCH   2  20
ATOM     20  S   UNL     1      33.861 -15.516 -24.757  0.00  0.00    +0.027 S 
ATOM     21  O   UNL     1      34.827 -15.467 -25.846  0.00  0.00    -0.164 OA
ATOM     22  O   UNL     1      32.509 -15.995 -25.011  0.00  0.00    -0.164 OA
BRANCH  20  23
ATOM     23  C   UNL     1      34.592 -16.581 -23.543  0.00  0.00    +0.110 C 
ATOM     24  C   UNL     1      34.618 -17.943 -23.776  0.00  0.00    +0.019 C 
ATOM     25  C   UNL     1      35.118 -16.026 -22.392  0.00  0.00    +0.019 C 
ATOM     26  C   UNL     1      35.728 -18.243 -21.651  0.00  0.00    +0.054 C 
ATOM     27  C   UNL     1      35.191 -18.782 -22.820  0.00  0.00    +0.006 C 
ATOM     28  C   UNL     1      35.692 -16.865 -21.438  0.00  0.00    +0.006 C 
BRANCH  26  31
ATOM     29  O   UNL     1      37.544 -18.994 -20.460  0.00  0.00    -0.270 OA
ATOM     30  N   UNL     1      35.513 -20.050 -19.990  0.00  0.00    -0.273 N 
ATOM     31  C   UNL     1      36.328 -19.117 -20.655  0.00  0.00    +0.249 C 
ATOM     32  C   UNL     1      34.080 -20.161 -20.254  0.00  0.00    +0.115 C 
ATOM     33  C   UNL     1      36.042 -20.970 -18.993  0.00  0.00    +0.115 C 
ENDBRANCH  26  31
ENDBRANCH  20  23
ENDBRANCH   2  20
TORSDOF 7
ENDMDL
MODEL 4
REMARK VINA RESULT:     -11.5      3.048      4.367
REMARK  Name = 16741245
REMARK  7 active torsions:
REMARK  status: ('A' for Active; 'I' for Inactive)
REMARK    1  A    between atoms: C_2  and  S_20
REMARK    2  A    between atoms: C_3  and  N_9
REMARK    3  A    between atoms: C_10  and  C_12
REMARK    4  A    between atoms: C_12  and  C_17
REMARK    5  A    between atoms: C_12  and  O_18
REMARK    6  A    between atoms: S_20  and  C_23
REMARK    7  A    between atoms: C_26  and  C_31
REMARK                            x       y       z     vdW  Elec       q    Type
REMARK                         _______ _______ _______ _____ _____    ______ ____
ROOT
ATOM      1 CL   UNL     1      32.661 -13.032 -20.413  0.00  0.00    -0.081 Cl
ATOM      2  C   UNL     1      33.720 -14.332 -24.037  0.00  0.00    +0.111 C 
ATOM      3  C   UNL     1      33.061 -11.905 -22.868  0.00  0.00    +0.061 C 
ATOM      4  C   UNL     1      33.392 -14.276 -22.682  0.00  0.00    +0.031 C 
ATOM      5  C   UNL     1      33.716 -13.166 -24.803  0.00  0.00    +0.020 C 
ATOM      6  C   UNL     1      33.061 -13.056 -22.094  0.00  0.00    +0.072 C 
ATOM      7  C   UNL     1      33.384 -11.946 -24.215  0.00  0.00    +0.017 C 
ENDROOT
BRANCH   3   9
ATOM      8  O   UNL     1      34.193  -9.187 -23.395  0.00  0.00    -0.272 OA
ATOM      9  N   UNL     1      32.730 -10.651 -22.301  0.00  0.00    -0.281 N 
ATOM     10  C   UNL     1      33.294  -9.413 -22.587  0.00  0.00    +0.259 C 
ATOM     11  H   UNL     1      32.015 -10.656 -21.624  0.00  0.00    +0.155 HD
BRANCH  10  12
ATOM     12  C   UNL     1      32.671  -8.270 -21.765  0.00  0.00    +0.245 C 
ATOM     13  C   UNL     1      31.895  -8.807 -20.562  0.00  0.00    +0.048 C 
BRANCH  12  17
ATOM     14  F   UNL     1      31.271  -8.025 -23.679  0.00  0.00    -0.167 F 
ATOM     15  F   UNL     1      32.527  -6.335 -23.128  0.00  0.00    -0.167 F 
ATOM     16  F   UNL     1      30.785  -6.835 -21.916  0.00  0.00    -0.167 F 
ATOM     17  C   UNL     1      31.805  -7.365 -22.629  0.00  0.00    +0.427 C 
ENDBRANCH  12  17
BRANCH  12  18
ATOM     18  O   UNL     1      33.745  -7.469 -21.274  0.00  0.00    -0.372 OA
ATOM     19  H   UNL     1      34.588  -7.825 -21.599  0.00  0.00    +0.211 HD
ENDBRANCH  12  18
ENDBRANCH  10  12
ENDBRANCH   3   9
BRANCH   2  20
ATOM     20  S   UNL     1      34.135 -15.859 -24.773  0.00  0.00    +0.027 S 
ATOM     21  O   UNL     1      35.324 -15.684 -25.597  0.00  0.00    -0.164 OA
ATOM     22  O   UNL     1      32.911 -16.372 -25.372  0.00  0.00    -0.164 OA
BRANCH  20  23
ATOM     23  C   UNL     1      34.625 -16.985 -23.494  0.00  0.00    +0.110 C 
ATOM     24  C   UNL     1      34.361 -18.332 -23.650  0.00  0.00    +0.019 C 
ATOM     25  C   UNL     1      35.258 -16.489 -22.370  0.00  0.00    +0.019 C 
ATOM     26  C   UNL     1      35.385 -18.739 -21.500  0.00  0.00    +0.054 C 
ATOM     27  C   UNL     1      34.744 -19.217 -22.643  0.00  0.00    +0.006 C 
ATOM     28  C   UNL     1      35.642 -17.375 -21.364  0.00  0.00    +0.006 C 
BRANCH  26  31
ATOM     29  O   UNL     1      36.995 -19.724 -20.189  0.00  0.00    -0.270 OA
ATOM     30  N   UNL     1      34.801 -20.435 -19.810  0.00  0.00    -0.273 N 
ATOM     31  C   UNL     1      35.786 -19.663 -20.451  0.00  0.00    +0.249 C 
ATOM     32  C   UNL     1      33.384 -20.330 -20.153  0.00  0.00    +0.115 C 
ATOM     33  C   UNL     1      35.126 -21.393 -18.763  0.00  0.00    +0.115 C 
ENDBRANCH  26  31
ENDBRANCH  20  23
ENDBRANCH   2  20
TORSDOF 7
ENDMDL
MODEL 5
REMARK VINA RESULT:     -11.1      2.973      4.425
REMARK  Name = 16741245
REMARK  7 active torsions:
REMARK  status: ('A' for Active; 'I' for Inactive)
REMARK    1  A    between atoms: C_2  and  S_20
REMARK    2  A    between atoms: C_3  and  N_9
REMARK    3  A    between atoms: C_10  and  C_12
REMARK    4  A    between atoms: C_12  and  C_17
REMARK    5  A    between atoms: C_12  and  O_18
REMARK    6  A    between atoms: S_20  and  C_23
REMARK    7  A    between atoms: C_26  and  C_31
REMARK                            x       y       z     vdW  Elec       q    Type
REMARK                         _______ _______ _______ _____ _____    ______ ____
ROOT
ATOM      1 CL   UNL     1      34.832 -10.146 -24.789  0.00  0.00    -0.081 Cl
ATOM      2  C   UNL     1      33.665 -13.891 -24.045  0.00  0.00    +0.111 C 
ATOM      3  C   UNL     1      33.307 -11.392 -22.898  0.00  0.00    +0.061 C 
ATOM      4  C   UNL     1      34.259 -12.768 -24.620  0.00  0.00    +0.031 C 
ATOM      5  C   UNL     1      32.890 -13.756 -22.892  0.00  0.00    +0.020 C 
ATOM      6  C   UNL     1      34.079 -11.511 -24.043  0.00  0.00    +0.072 C 
ATOM      7  C   UNL     1      32.711 -12.500 -22.315  0.00  0.00    +0.017 C 
ENDROOT
BRANCH   3   9
ATOM      8  O   UNL     1      30.938 -10.317 -21.422  0.00  0.00    -0.272 OA
ATOM      9  N   UNL     1      33.105 -10.130 -22.288  0.00  0.00    -0.281 N 
ATOM     10  C   UNL     1      31.975  -9.684 -21.613  0.00  0.00    +0.259 C 
ATOM     11  H   UNL     1      33.852  -9.494 -22.351  0.00  0.00    +0.155 HD
BRANCH  10  12
ATOM     12  C   UNL     1      32.126  -8.246 -21.085  0.00  0.00    +0.245 C 
ATOM     13  C   UNL     1      31.611  -8.121 -19.650  0.00  0.00    +0.048 C 
BRANCH  12  17
ATOM     14  F   UNL     1      32.262  -6.875 -23.030  0.00  0.00    -0.167 F 
ATOM     15  F   UNL     1      31.133  -6.106 -21.335  0.00  0.00    -0.167 F 
ATOM     16  F   UNL     1      30.318  -7.733 -22.537  0.00  0.00    -0.167 F 
ATOM     17  C   UNL     1      31.458  -7.235 -22.007  0.00  0.00    +0.427 C 
ENDBRANCH  12  17
BRANCH  12  18
ATOM     18  O   UNL     1      33.521  -7.943 -21.080  0.00  0.00    -0.372 OA
ATOM     19  H   UNL     1      33.788  -7.668 -20.189  0.00  0.00    +0.211 HD
ENDBRANCH  12  18
ENDBRANCH  10  12
ENDBRANCH   3   9
BRANCH   2  20
ATOM     20  S   UNL     1      33.889 -15.465 -24.766  0.00  0.00    +0.027 S 
ATOM     21  O   UNL     1      34.894 -15.369 -25.817  0.00  0.00    -0.164 OA
ATOM     22  O   UNL     1      32.558 -15.964 -25.083  0.00  0.00    -0.164 OA
BRANCH  20  23
ATOM     23  C   UNL     1      34.597 -16.544 -23.551  0.00  0.00    +0.110 C 
ATOM     24  C   UNL     1      35.207 -15.995 -22.440  0.00  0.00    +0.019 C 
ATOM     25  C   UNL     1      34.524 -17.911 -23.744  0.00  0.00    +0.019 C 
ATOM     26  C   UNL     1      35.703 -18.226 -21.659  0.00  0.00    +0.054 C 
ATOM     27  C   UNL     1      35.765 -16.844 -21.485  0.00  0.00    +0.006 C 
ATOM     28  C   UNL     1      35.081 -18.760 -22.788  0.00  0.00    +0.006 C 
BRANCH  26  31
ATOM     29  O   UNL     1      37.492 -18.977 -20.429  0.00  0.00    -0.270 OA
ATOM     30  N   UNL     1      35.461 -20.067 -20.038  0.00  0.00    -0.273 N 
ATOM     31  C   UNL     1      36.284 -19.112 -20.662  0.00  0.00    +0.249 C 
ATOM     32  C   UNL     1      34.038 -20.190 -20.347  0.00  0.00    +0.115 C 
ATOM     33  C   UNL     1      35.973 -20.999 -19.043  0.00  0.00    +0.115 C 
ENDBRANCH  26  31
ENDBRANCH  20  23
ENDBRANCH   2  20
TORSDOF 7
ENDMDL
MODEL 6
REMARK VINA RESULT:     -10.4      4.074      6.154
REMARK  Name = 16741245
REMARK  7 active torsions:
REMARK  status: ('A' for Active; 'I' for Inactive)
REMARK    1  A    between atoms: C_2  and  S_20
REMARK    2  A    between atoms: C_3  and  N_9
REMARK    3  A    between atoms: C_10  and  C_12
REMARK    4  A    between atoms: C_12  and  C_17
REMARK    5  A    between atoms: C_12  and  O_18
REMARK    6  A    between atoms: S_20  and  C_23
REMARK    7  A    between atoms: C_26  and  C_31
REMARK                            x       y       z     vdW  Elec       q    Type
REMARK                         _______ _______ _______ _____ _____    ______ ____
ROOT
ATOM      1 CL   UNL     1      37.189 -19.353 -20.348  0.00  0.00    -0.081 Cl
ATOM      2  C   UNL     1      33.933 -21.353 -19.190  0.00  0.00    +0.111 C 
ATOM      3  C   UNL     1      34.489 -19.018 -20.579  0.00  0.00    +0.061 C 
ATOM      4  C   UNL     1      35.256 -20.968 -19.405  0.00  0.00    +0.031 C 
ATOM      5  C   UNL     1      32.889 -20.563 -19.675  0.00  0.00    +0.020 C 
ATOM      6  C   UNL     1      35.536 -19.793 -20.103  0.00  0.00    +0.072 C 
ATOM      7  C   UNL     1      33.169 -19.389 -20.372  0.00  0.00    +0.017 C 
ENDROOT
BRANCH   3   9
ATOM      8  O   UNL     1      34.279 -18.431 -23.504  0.00  0.00    -0.272 OA
ATOM      9  N   UNL     1      34.739 -17.821 -21.292  0.00  0.00    -0.281 N 
ATOM     10  C   UNL     1      34.625 -17.606 -22.660  0.00  0.00    +0.259 C 
ATOM     11  H   UNL     1      35.029 -17.049 -20.754  0.00  0.00    +0.155 HD
BRANCH  10  12
ATOM     12  C   UNL     1      34.985 -16.167 -23.069  0.00  0.00    +0.245 C 
ATOM     13  C   UNL     1      34.589 -15.163 -21.986  0.00  0.00    +0.048 C 
BRANCH  12  17
ATOM     14  F   UNL     1      34.131 -14.475 -24.517  0.00  0.00    -0.167 F 
ATOM     15  F   UNL     1      33.209 -16.445 -24.618  0.00  0.00    -0.167 F 
ATOM     16  F   UNL     1      35.207 -16.137 -25.434  0.00  0.00    -0.167 F 
ATOM     17  C   UNL     1      34.382 -15.798 -24.418  0.00  0.00    +0.427 C 
ENDBRANCH  12  17
BRANCH  12  18
ATOM     18  O   UNL     1      36.403 -16.113 -23.223  0.00  0.00    -0.372 OA
ATOM     19  H   UNL     1      36.815 -15.956 -22.358  0.00  0.00    +0.211 HD
ENDBRANCH  12  18
ENDBRANCH  10  12
ENDBRANCH   3   9
BRANCH   2  20
ATOM     20  S   UNL     1      33.582 -22.823 -18.317  0.00  0.00    +0.027 S 
ATOM     21  O   UNL     1      33.961 -23.967 -19.136  0.00  0.00    -0.164 OA
ATOM     22  O   UNL     1      32.211 -22.699 -17.839  0.00  0.00    -0.164 OA
BRANCH  20  23
ATOM     23  C   UNL     1      34.643 -22.902 -16.899  0.00  0.00    +0.110 C 
ATOM     24  C   UNL     1      35.913 -22.363 -16.983  0.00  0.00    +0.019 C 
ATOM     25  C   UNL     1      34.177 -23.501 -15.744  0.00  0.00    +0.019 C 
ATOM     26  C   UNL     1      36.300 -23.027 -14.692  0.00  0.00    +0.054 C 
ATOM     27  C   UNL     1      36.749 -22.427 -15.868  0.00  0.00    +0.006 C 
ATOM     28  C   UNL     1      35.014 -23.563 -14.630  0.00  0.00    +0.006 C 
BRANCH  26  31
ATOM     29  O   UNL     1      37.318 -22.048 -12.880  0.00  0.00    -0.270 OA
ATOM     30  N   UNL     1      37.802 -24.309 -13.218  0.00  0.00    -0.273 N 
ATOM     31  C   UNL     1      37.171 -23.091 -13.529  0.00  0.00    +0.249 C 
ATOM     32  C   UNL     1      37.600 -25.517 -14.015  0.00  0.00    +0.115 C 
ATOM     33  C   UNL     1      38.701 -24.448 -12.081  0.00  0.00    +0.115 C 
ENDBRANCH  26  31
ENDBRANCH  20  23
ENDBRANCH   2  20
TORSDOF 7
ENDMDL
MODEL 7
REMARK VINA RESULT:     -10.4      5.395     11.460
REMARK  Name = 16741245
REMARK  7 active torsions:
REMARK  status: ('A' for Active; 'I' for Inactive)
REMARK    1  A    between atoms: C_2  and  S_20
REMARK    2  A    between atoms: C_3  and  N_9
REMARK    3  A    between atoms: C_10  and  C_12
REMARK    4  A    between atoms: C_12  and  C_17
REMARK    5  A    between atoms: C_12  and  O_18
REMARK    6  A    between atoms: S_20  and  C_23
REMARK    7  A    between atoms: C_26  and  C_31
REMARK                            x       y       z     vdW  Elec       q    Type
REMARK                         _______ _______ _______ _____ _____    ______ ____
ROOT
ATOM      1 CL   UNL     1      33.804 -11.613 -24.398  0.00  0.00    -0.081 Cl
ATOM      2  C   UNL     1      32.276 -10.994 -20.762  0.00  0.00    +0.111 C 
ATOM      3  C   UNL     1      33.024 -13.177 -22.299  0.00  0.00    +0.061 C 
ATOM      4  C   UNL     1      32.792 -10.800 -22.043  0.00  0.00    +0.031 C 
ATOM      5  C   UNL     1      32.136 -12.286 -20.254  0.00  0.00    +0.020 C 
ATOM      6  C   UNL     1      33.168 -11.898 -22.816  0.00  0.00    +0.072 C 
ATOM      7  C   UNL     1      32.512 -13.383 -21.028  0.00  0.00    +0.017 C 
ENDROOT
BRANCH   3   9
ATOM      8  O   UNL     1      35.317 -15.066 -21.952  0.00  0.00    -0.272 OA
ATOM      9  N   UNL     1      33.397 -14.312 -23.059  0.00  0.00    -0.281 N 
ATOM     10  C   UNL     1      34.480 -15.156 -22.849  0.00  0.00    +0.259 C 
ATOM     11  H   UNL     1      32.821 -14.527 -23.827  0.00  0.00    +0.155 HD
BRANCH  10  12
ATOM     12  C   UNL     1      34.562 -16.290 -23.888  0.00  0.00    +0.245 C 
ATOM     13  C   UNL     1      33.297 -16.353 -24.744  0.00  0.00    +0.048 C 
BRANCH  12  17
ATOM     14  F   UNL     1      34.201 -17.784 -22.065  0.00  0.00    -0.167 F 
ATOM     15  F   UNL     1      36.182 -17.757 -22.968  0.00  0.00    -0.167 F 
ATOM     16  F   UNL     1      34.512 -18.659 -24.040  0.00  0.00    -0.167 F 
ATOM     17  C   UNL     1      34.861 -17.631 -23.234  0.00  0.00    +0.427 C 
ENDBRANCH  12  17
BRANCH  12  18
ATOM     18  O   UNL     1      35.663 -15.995 -24.748  0.00  0.00    -0.372 OA
ATOM     19  H   UNL     1      35.757 -15.033 -24.833  0.00  0.00    +0.211 HD
ENDBRANCH  12  18
ENDBRANCH  10  12
ENDBRANCH   3   9
BRANCH   2  20
ATOM     20  S   UNL     1      31.805  -9.620 -19.793  0.00  0.00    +0.027 S 
ATOM     21  O   UNL     1      32.880  -9.303 -18.861  0.00  0.00    -0.164 OA
ATOM     22  O   UNL     1      30.472  -9.914 -19.285  0.00  0.00    -0.164 OA
BRANCH  20  23
ATOM     23  C   UNL     1      31.681  -8.203 -20.850  0.00  0.00    +0.110 C 
ATOM     24  C   UNL     1      32.245  -7.010 -20.441  0.00  0.00    +0.019 C 
ATOM     25  C   UNL     1      31.021  -8.323 -22.059  0.00  0.00    +0.019 C 
ATOM     26  C   UNL     1      31.484  -5.992 -22.496  0.00  0.00    +0.054 C 
ATOM     27  C   UNL     1      32.145  -5.894 -21.271  0.00  0.00    +0.006 C 
ATOM     28  C   UNL     1      30.923  -7.207 -22.889  0.00  0.00    +0.006 C 
BRANCH  26  31
ATOM     29  O   UNL     1      30.341  -4.164 -23.289  0.00  0.00    -0.270 OA
ATOM     30  N   UNL     1      32.446  -4.534 -24.234  0.00  0.00    -0.273 N 
ATOM     31  C   UNL     1      31.382  -4.829 -23.363  0.00  0.00    +0.249 C 
ATOM     32  C   UNL     1      33.658  -5.349 -24.288  0.00  0.00    +0.115 C 
ATOM     33  C   UNL     1      32.411  -3.397 -25.143  0.00  0.00    +0.115 C 
ENDBRANCH  26  31
ENDBRANCH  20  23
ENDBRANCH   2  20
TORSDOF 7
ENDMDL
MODEL 8
REMARK VINA RESULT:     -10.3      5.385     11.512
REMARK  Name = 16741245
REMARK  7 active torsions:
REMARK  status: ('A' for Active; 'I' for Inactive)
REMARK    1  A    between atoms: C_2  and  S_20
REMARK    2  A    between atoms: C_3  and  N_9
REMARK    3  A    between atoms: C_10  and  C_12
REMARK    4  A    between atoms: C_12  and  C_17
REMARK    5  A    between atoms: C_12  and  O_18
REMARK    6  A    between atoms: S_20  and  C_23
REMARK    7  A    between atoms: C_26  and  C_31
REMARK                            x       y       z     vdW  Elec       q    Type
REMARK                         _______ _______ _______ _____ _____    ______ ____
ROOT
ATOM      1 CL   UNL     1      33.759 -11.651 -24.386  0.00  0.00    -0.081 Cl
ATOM      2  C   UNL     1      32.285 -11.050 -20.724  0.00  0.00    +0.111 C 
ATOM      3  C   UNL     1      33.029 -13.224 -22.277  0.00  0.00    +0.061 C 
ATOM      4  C   UNL     1      32.779 -10.850 -22.013  0.00  0.00    +0.031 C 
ATOM      5  C   UNL     1      32.167 -12.344 -20.216  0.00  0.00    +0.020 C 
ATOM      6  C   UNL     1      33.153 -11.944 -22.794  0.00  0.00    +0.072 C 
ATOM      7  C   UNL     1      32.540 -13.437 -20.997  0.00  0.00    +0.017 C 
ENDROOT
BRANCH   3   9
ATOM      8  O   UNL     1      35.366 -15.068 -21.994  0.00  0.00    -0.272 OA
ATOM      9  N   UNL     1      33.400 -14.355 -23.044  0.00  0.00    -0.281 N 
ATOM     10  C   UNL     1      34.505 -15.178 -22.865  0.00  0.00    +0.259 C 
ATOM     11  H   UNL     1      32.804 -14.584 -23.794  0.00  0.00    +0.155 HD
BRANCH  10  12
ATOM     12  C   UNL     1      34.576 -16.313 -23.903  0.00  0.00    +0.245 C 
ATOM     13  C   UNL     1      33.313 -16.363 -24.762  0.00  0.00    +0.048 C 
BRANCH  12  17
ATOM     14  F   UNL     1      34.447 -18.691 -24.011  0.00  0.00    -0.167 F 
ATOM     15  F   UNL     1      34.220 -17.760 -22.057  0.00  0.00    -0.167 F 
ATOM     16  F   UNL     1      36.180 -17.821 -23.011  0.00  0.00    -0.167 F 
ATOM     17  C   UNL     1      34.858 -17.657 -23.246  0.00  0.00    +0.427 C 
ENDBRANCH  12  17
BRANCH  12  18
ATOM     18  O   UNL     1      35.683 -16.032 -24.760  0.00  0.00    -0.372 OA
ATOM     19  H   UNL     1      36.174 -16.851 -24.932  0.00  0.00    +0.211 HD
ENDBRANCH  12  18
ENDBRANCH  10  12
ENDBRANCH   3   9
BRANCH   2  20
ATOM     20  S   UNL     1      31.818  -9.682 -19.745  0.00  0.00    +0.027 S 
ATOM     21  O   UNL     1      32.764  -9.536 -18.647  0.00  0.00    -0.164 OA
ATOM     22  O   UNL     1      30.399  -9.848 -19.460  0.00  0.00    -0.164 OA
BRANCH  20  23
ATOM     23  C   UNL     1      32.007  -8.209 -20.713  0.00  0.00    +0.110 C 
ATOM     24  C   UNL     1      32.971  -7.288 -20.350  0.00  0.00    +0.019 C 
ATOM     25  C   UNL     1      31.184  -8.014 -21.806  0.00  0.00    +0.019 C 
ATOM     26  C   UNL     1      32.299  -5.910 -22.218  0.00  0.00    +0.054 C 
ATOM     27  C   UNL     1      33.118  -6.128 -21.110  0.00  0.00    +0.006 C 
ATOM     28  C   UNL     1      31.332  -6.854 -22.566  0.00  0.00    +0.006 C 
BRANCH  26  31
ATOM     29  O   UNL     1      33.247  -4.750 -23.959  0.00  0.00    -0.270 OA
ATOM     30  N   UNL     1      31.718  -3.556 -22.656  0.00  0.00    -0.273 N 
ATOM     31  C   UNL     1      32.454  -4.701 -23.011  0.00  0.00    +0.249 C 
ATOM     32  C   UNL     1      30.792  -3.544 -21.526  0.00  0.00    +0.115 C 
ATOM     33  C   UNL     1      31.832  -2.304 -23.391  0.00  0.00    +0.115 C 
ENDBRANCH  26  31
ENDBRANCH  20  23
ENDBRANCH   2  20
TORSDOF 7
ENDMDL
MODEL 9
REMARK VINA RESULT:     -10.2      5.627      9.812
REMARK  Name = 16741245
REMARK  7 active torsions:
REMARK  status: ('A' for Active; 'I' for Inactive)
REMARK    1  A    between atoms: C_2  and  S_20
REMARK    2  A    between atoms: C_3  and  N_9
REMARK    3  A    between atoms: C_10  and  C_12
REMARK    4  A    between atoms: C_12  and  C_17
REMARK    5  A    between atoms: C_12  and  O_18
REMARK    6  A    between atoms: S_20  and  C_23
REMARK    7  A    between atoms: C_26  and  C_31
REMARK                            x       y       z     vdW  Elec       q    Type
REMARK                         _______ _______ _______ _____ _____    ______ ____
ROOT
ATOM      1 CL   UNL     1      34.459 -23.981 -14.841  0.00  0.00    -0.081 Cl
ATOM      2  C   UNL     1      35.193 -21.784 -18.093  0.00  0.00    +0.111 C 
ATOM      3  C   UNL     1      32.982 -22.953 -16.895  0.00  0.00    +0.061 C 
ATOM      4  C   UNL     1      35.342 -22.506 -16.909  0.00  0.00    +0.031 C 
ATOM      5  C   UNL     1      33.931 -21.649 -18.673  0.00  0.00    +0.020 C 
ATOM      6  C   UNL     1      34.230 -23.095 -16.307  0.00  0.00    +0.072 C 
ATOM      7  C   UNL     1      32.820 -22.238 -18.071  0.00  0.00    +0.017 C 
ENDROOT
BRANCH   3   9
ATOM      8  O   UNL     1      31.541 -22.266 -14.366  0.00  0.00    -0.272 OA
ATOM      9  N   UNL     1      31.834 -23.538 -16.309  0.00  0.00    -0.281 N 
ATOM     10  C   UNL     1      31.206 -23.175 -15.123  0.00  0.00    +0.259 C 
ATOM     11  H   UNL     1      31.434 -24.292 -16.798  0.00  0.00    +0.155 HD
BRANCH  10  12
ATOM     12  C   UNL     1      29.978 -24.048 -14.808  0.00  0.00    +0.245 C 
ATOM     13  C   UNL     1      30.282 -25.532 -15.012  0.00  0.00    +0.048 C 
BRANCH  12  17
ATOM     14  F   UNL     1      29.034 -22.576 -16.428  0.00  0.00    -0.167 F 
ATOM     15  F   UNL     1      27.756 -23.221 -14.788  0.00  0.00    -0.167 F 
ATOM     16  F   UNL     1      28.285 -24.625 -16.369  0.00  0.00    -0.167 F 
ATOM     17  C   UNL     1      28.759 -23.613 -15.607  0.00  0.00    +0.427 C 
ENDBRANCH  12  17
BRANCH  12  18
ATOM     18  O   UNL     1      29.662 -23.849 -13.430  0.00  0.00    -0.372 OA
ATOM     19  H   UNL     1      30.482 -23.775 -12.918  0.00  0.00    +0.211 HD
ENDBRANCH  12  18
ENDBRANCH  10  12
ENDBRANCH   3   9
BRANCH   2  20
ATOM     20  S   UNL     1      36.584 -21.046 -18.847  0.00  0.00    +0.027 S 
ATOM     21  O   UNL     1      37.361 -22.075 -19.524  0.00  0.00    -0.164 OA
ATOM     22  O   UNL     1      37.213 -20.219 -17.826  0.00  0.00    -0.164 OA
BRANCH  20  23
ATOM     23  C   UNL     1      36.019 -19.972 -20.140  0.00  0.00    +0.110 C 
ATOM     24  C   UNL     1      34.718 -20.093 -20.590  0.00  0.00    +0.019 C 
ATOM     25  C   UNL     1      36.892 -19.042 -20.669  0.00  0.00    +0.019 C 
ATOM     26  C   UNL     1      35.138 -18.303 -22.157  0.00  0.00    +0.054 C 
ATOM     27  C   UNL     1      34.273 -19.250 -21.608  0.00  0.00    +0.006 C 
ATOM     28  C   UNL     1      36.447 -18.198 -21.687  0.00  0.00    +0.006 C 
BRANCH  26  31
ATOM     29  O   UNL     1      34.375 -17.953 -24.296  0.00  0.00    -0.270 OA
ATOM     30  N   UNL     1      34.605 -16.039 -22.973  0.00  0.00    -0.273 N 
ATOM     31  C   UNL     1      34.674 -17.423 -23.218  0.00  0.00    +0.249 C 
ATOM     32  C   UNL     1      34.969 -15.457 -21.683  0.00  0.00    +0.115 C 
ATOM     33  C   UNL     1      34.166 -15.093 -23.990  0.00  0.00    +0.115 C 
ENDBRANCH  26  31
ENDBRANCH  20  23
ENDBRANCH   2  20
TORSDOF 7
ENDMDL
