MODEL 1
REMARK VINA RESULT:     -13.1      0.000      0.000
REMARK  Name = 23656870
REMARK  4 active torsions:
REMARK  status: ('A' for Active; 'I' for Inactive)
REMARK    1  A    between atoms: N_2  and  C_25
REMARK    2  A    between atoms: N_3  and  C_14
REMARK    3  A    between atoms: C_10  and  C_32
REMARK    4  A    between atoms: C_16  and  N_21
REMARK                            x       y       z     vdW  Elec       q    Type
REMARK                         _______ _______ _______ _____ _____    ______ ____
ROOT
ATOM      1  N   UNL     1      31.842 -23.436 -14.877  0.00  0.00    -0.123 N 
ATOM      2  N   UNL     1      34.092 -23.885 -14.321  0.00  0.00    -0.274 N 
ATOM      3  N   UNL     1      32.824 -22.190 -18.553  0.00  0.00    -0.238 N 
ATOM      4  N   UNL     1      33.463 -23.037 -16.443  0.00  0.00    -0.295 NA
ATOM      5  N   UNL     1      31.176 -22.595 -16.971  0.00  0.00    -0.314 NA
ATOM      6  N   UNL     1      31.398 -23.832 -13.670  0.00  0.00    -0.170 NA
ATOM      7  C   UNL     1      33.179 -23.447 -15.241  0.00  0.00    +0.279 C 
ATOM      8  C   UNL     1      30.858 -23.018 -15.727  0.00  0.00    +0.219 C 
ATOM      9  C   UNL     1      32.449 -22.612 -17.299  0.00  0.00    +0.207 C 
ATOM     10  C   UNL     1      29.683 -23.151 -15.022  0.00  0.00    +0.203 C 
ATOM     11  C   UNL     1      30.077 -23.655 -13.766  0.00  0.00    +0.116 C 
ATOM     12  H   UNL     1      33.726 -24.165 -13.451  0.00  0.00    +0.156 HD
ATOM     13  H   UNL     1      32.164 -22.329 -19.270  0.00  0.00    +0.166 HD
ENDROOT
BRANCH   3  14
ATOM     14  C   UNL     1      34.023 -21.592 -18.934  0.00  0.00    +0.060 C 
ATOM     15  C   UNL     1      34.028 -20.606 -19.921  0.00  0.00    +0.030 C 
ATOM     16  C   UNL     1      35.227 -20.006 -20.301  0.00  0.00    +0.052 C 
ATOM     17  C   UNL     1      35.219 -21.978 -18.328  0.00  0.00    +0.015 C 
ATOM     18  C   UNL     1      36.423 -20.391 -19.696  0.00  0.00    +0.015 C 
ATOM     19  C   UNL     1      36.419 -21.377 -18.709  0.00  0.00    +0.003 C 
BRANCH  16  21
ATOM     20  O   UNL     1      35.472 -17.013 -20.078  0.00  0.00    -0.275 OA
ATOM     21  N   UNL     1      35.233 -19.021 -21.289  0.00  0.00    -0.284 N 
ATOM     22  C   UNL     1      35.349 -17.633 -21.128  0.00  0.00    +0.227 C 
ATOM     23  C   UNL     1      35.311 -16.911 -22.452  0.00  0.00    +0.095 C 
ATOM     24  H   UNL     1      35.144 -19.340 -22.218  0.00  0.00    +0.155 HD
ENDBRANCH  16  21
ENDBRANCH   3  14
BRANCH   2  25
ATOM     25  C   UNL     1      35.479 -23.986 -14.460  0.00  0.00    +0.051 C 
ATOM     26  C   UNL     1      36.229 -22.866 -14.816  0.00  0.00    +0.015 C 
ATOM     27  C   UNL     1      36.115 -25.209 -14.240  0.00  0.00    +0.015 C 
ATOM     28  C   UNL     1      37.613 -22.966 -14.954  0.00  0.00    +0.001 C 
ATOM     29  C   UNL     1      37.499 -25.309 -14.377  0.00  0.00    +0.001 C 
ATOM     30  C   UNL     1      38.249 -24.188 -14.734  0.00  0.00    +0.000 C 
ENDBRANCH   2  25
BRANCH  10  32
ATOM     31  N   UNL     1      27.308 -22.588 -15.859  0.00  0.00    -0.195 NA
ATOM     32  C   UNL     1      28.376 -22.841 -15.483  0.00  0.00    +0.087 C 
ENDBRANCH  10  32
TORSDOF 4
ENDMDL
MODEL 2
REMARK VINA RESULT:     -12.4      2.292      5.733
REMARK  Name = 23656870
REMARK  4 active torsions:
REMARK  status: ('A' for Active; 'I' for Inactive)
REMARK    1  A    between atoms: N_2  and  C_25
REMARK    2  A    between atoms: N_3  and  C_14
REMARK    3  A    between atoms: C_10  and  C_32
REMARK    4  A    between atoms: C_16  and  N_21
REMARK                            x       y       z     vdW  Elec       q    Type
REMARK                         _______ _______ _______ _____ _____    ______ ____
ROOT
ATOM      1  N   UNL     1      36.328 -24.969 -13.478  0.00  0.00    -0.123 N 
ATOM      2  N   UNL     1      33.986 -24.745 -13.288  0.00  0.00    -0.274 N 
ATOM      3  N   UNL     1      36.509 -22.309 -16.464  0.00  0.00    -0.238 N 
ATOM      4  N   UNL     1      35.244 -23.521 -14.880  0.00  0.00    -0.295 NA
ATOM      5  N   UNL     1      37.614 -23.773 -15.044  0.00  0.00    -0.314 NA
ATOM      6  N   UNL     1      36.386 -25.874 -12.484  0.00  0.00    -0.170 NA
ATOM      7  C   UNL     1      35.150 -24.381 -13.909  0.00  0.00    +0.279 C 
ATOM      8  C   UNL     1      37.538 -24.669 -14.034  0.00  0.00    +0.219 C 
ATOM      9  C   UNL     1      36.486 -23.226 -15.440  0.00  0.00    +0.207 C 
ATOM     10  C   UNL     1      38.456 -25.437 -13.353  0.00  0.00    +0.203 C 
ATOM     11  C   UNL     1      37.690 -26.156 -12.413  0.00  0.00    +0.116 C 
ATOM     12  H   UNL     1      34.071 -25.409 -12.567  0.00  0.00    +0.156 HD
ATOM     13  H   UNL     1      37.331 -21.774 -16.545  0.00  0.00    +0.166 HD
ENDROOT
BRANCH   3  14
ATOM     14  C   UNL     1      35.513 -22.042 -17.400  0.00  0.00    +0.060 C 
ATOM     15  C   UNL     1      35.804 -21.281 -18.532  0.00  0.00    +0.030 C 
ATOM     16  C   UNL     1      34.807 -21.016 -19.470  0.00  0.00    +0.052 C 
ATOM     17  C   UNL     1      34.223 -22.538 -17.207  0.00  0.00    +0.015 C 
ATOM     18  C   UNL     1      33.518 -21.510 -19.277  0.00  0.00    +0.015 C 
ATOM     19  C   UNL     1      33.225 -22.272 -18.145  0.00  0.00    +0.003 C 
BRANCH  16  21
ATOM     20  O   UNL     1      36.643 -18.654 -19.816  0.00  0.00    -0.275 OA
ATOM     21  N   UNL     1      35.098 -20.253 -20.601  0.00  0.00    -0.284 N 
ATOM     22  C   UNL     1      35.965 -19.156 -20.707  0.00  0.00    +0.227 C 
ATOM     23  C   UNL     1      36.003 -18.605 -22.110  0.00  0.00    +0.095 C 
ATOM     24  H   UNL     1      34.637 -20.517 -21.431  0.00  0.00    +0.155 HD
ENDBRANCH  16  21
ENDBRANCH   3  14
BRANCH   2  25
ATOM     25  C   UNL     1      32.689 -24.291 -13.547  0.00  0.00    +0.051 C 
ATOM     26  C   UNL     1      32.484 -22.992 -14.011  0.00  0.00    +0.015 C 
ATOM     27  C   UNL     1      31.600 -25.138 -13.342  0.00  0.00    +0.015 C 
ATOM     28  C   UNL     1      31.191 -22.539 -14.270  0.00  0.00    +0.001 C 
ATOM     29  C   UNL     1      30.306 -24.685 -13.601  0.00  0.00    +0.001 C 
ATOM     30  C   UNL     1      30.101 -23.386 -14.064  0.00  0.00    +0.000 C 
ENDBRANCH   2  25
BRANCH  10  32
ATOM     31  N   UNL     1      41.006 -25.509 -13.747  0.00  0.00    -0.195 NA
ATOM     32  C   UNL     1      39.859 -25.477 -13.569  0.00  0.00    +0.087 C 
ENDBRANCH  10  32
TORSDOF 4
ENDMDL
