MODEL 1
REMARK VINA RESULT:     -13.5      0.000      0.000
REMARK  Name = 9800765
REMARK  5 active torsions:
REMARK  status: ('A' for Active; 'I' for Inactive)
REMARK    1  A    between atoms: C_3  and  C_17
REMARK    2  A    between atoms: C_5  and  N_8
REMARK    3  A    between atoms: N_8  and  C_14
REMARK    4  A    between atoms: C_17  and  C_20
REMARK    5  A    between atoms: C_23  and  C_26
REMARK                            x       y       z     vdW  Elec       q    Type
REMARK                         _______ _______ _______ _____ _____    ______ ____
ROOT
ATOM      1  O   UNL     1      36.435 -22.769 -15.293  0.00  0.00    -0.337 OA
ATOM      2  N   UNL     1      35.740 -22.771 -16.496  0.00  0.00    -0.079 NA
ATOM      3  C   UNL     1      34.472 -23.024 -16.162  0.00  0.00    +0.106 C 
ATOM      4  C   UNL     1      34.308 -23.188 -14.776  0.00  0.00    +0.076 C 
ATOM      5  C   UNL     1      35.569 -23.017 -14.285  0.00  0.00    +0.252 C 
ENDROOT
BRANCH   3   6
ATOM      6  C   UNL     1      33.438 -23.099 -17.207  0.00  0.00    +0.066 C 
ATOM      7  C   UNL     1      31.991 -23.037 -16.660  0.00  0.00    +0.011 C 
BRANCH   6   9
ATOM      8  F   UNL     1      36.678 -20.664 -19.890  0.00  0.00    -0.204 F 
ATOM      9  C   UNL     1      33.773 -22.038 -18.260  0.00  0.00    -0.015 C 
ATOM     10  C   UNL     1      35.091 -21.837 -18.594  0.00  0.00    +0.026 C 
ATOM     11  C   UNL     1      32.742 -21.328 -18.829  0.00  0.00    -0.004 C 
ATOM     12  C   UNL     1      34.374 -20.134 -20.149  0.00  0.00    +0.027 C 
ATOM     13  C   UNL     1      35.396 -20.872 -19.553  0.00  0.00    +0.140 C 
ATOM     14  C   UNL     1      33.047 -20.362 -19.787  0.00  0.00    +0.002 C 
BRANCH  12  15
ATOM     15  C   UNL     1      34.685 -19.132 -21.146  0.00  0.00    +0.002 C 
ATOM     16  C   UNL     1      35.296 -17.937 -20.764  0.00  0.00    +0.000 C 
ATOM     17  C   UNL     1      34.376 -19.361 -22.486  0.00  0.00    +0.000 C 
ATOM     18  C   UNL     1      35.597 -16.971 -21.724  0.00  0.00    +0.000 C 
ATOM     19  C   UNL     1      34.678 -18.394 -23.446  0.00  0.00    +0.000 C 
ATOM     20  C   UNL     1      35.288 -17.198 -23.065  0.00  0.00    +0.000 C 
ENDBRANCH  12  15
ENDBRANCH   6   9
ENDBRANCH   3   6
BRANCH   5  21
ATOM     21  N   UNL     1      36.007 -23.068 -12.996  0.00  0.00    -0.147 NA
BRANCH  21  29
ATOM     22  O   UNL     1      39.051 -26.639 -14.091  0.00  0.00    -0.350 OA
ATOM     23  N   UNL     1      37.151 -25.059 -12.772  0.00  0.00    -0.277 N 
ATOM     24  N   UNL     1      35.289 -24.834 -11.509  0.00  0.00    -0.373 N 
ATOM     25  C   UNL     1      37.039 -26.515 -12.742  0.00  0.00    +0.125 C 
ATOM     26  C   UNL     1      38.502 -24.548 -12.990  0.00  0.00    +0.125 C 
ATOM     27  C   UNL     1      37.701 -27.097 -13.985  0.00  0.00    +0.164 C 
ATOM     28  C   UNL     1      39.100 -25.216 -14.223  0.00  0.00    +0.164 C 
ATOM     29  C   UNL     1      36.120 -24.249 -12.442  0.00  0.00    +0.182 C 
ATOM     30  H   UNL     1      35.487 -25.738 -11.171  0.00  0.00    +0.158 HD
ATOM     31  H   UNL     1      34.496 -24.350 -11.183  0.00  0.00    +0.158 HD
ENDBRANCH  21  29
ENDBRANCH   5  21
TORSDOF 5
ENDMDL
MODEL 2
REMARK VINA RESULT:     -13.3      0.908      1.560
REMARK  Name = 9800765
REMARK  5 active torsions:
REMARK  status: ('A' for Active; 'I' for Inactive)
REMARK    1  A    between atoms: C_3  and  C_17
REMARK    2  A    between atoms: C_5  and  N_8
REMARK    3  A    between atoms: N_8  and  C_14
REMARK    4  A    between atoms: C_17  and  C_20
REMARK    5  A    between atoms: C_23  and  C_26
REMARK                            x       y       z     vdW  Elec       q    Type
REMARK                         _______ _______ _______ _____ _____    ______ ____
ROOT
ATOM      1  O   UNL     1      36.759 -22.390 -15.280  0.00  0.00    -0.337 OA
ATOM      2  N   UNL     1      36.054 -22.437 -16.476  0.00  0.00    -0.079 NA
ATOM      3  C   UNL     1      34.855 -22.927 -16.151  0.00  0.00    +0.106 C 
ATOM      4  C   UNL     1      34.746 -23.204 -14.777  0.00  0.00    +0.076 C 
ATOM      5  C   UNL     1      35.967 -22.848 -14.285  0.00  0.00    +0.252 C 
ENDROOT
BRANCH   3   6
ATOM      6  C   UNL     1      33.832 -23.115 -17.192  0.00  0.00    +0.066 C 
ATOM      7  C   UNL     1      32.385 -23.169 -16.643  0.00  0.00    +0.011 C 
BRANCH   6   9
ATOM      8  F   UNL     1      32.153 -19.796 -20.321  0.00  0.00    -0.204 F 
ATOM      9  C   UNL     1      34.072 -22.052 -18.268  0.00  0.00    -0.015 C 
ATOM     10  C   UNL     1      32.985 -21.405 -18.806  0.00  0.00    +0.026 C 
ATOM     11  C   UNL     1      35.365 -21.786 -18.653  0.00  0.00    -0.004 C 
ATOM     12  C   UNL     1      34.502 -20.143 -20.199  0.00  0.00    +0.027 C 
ATOM     13  C   UNL     1      33.203 -20.436 -19.786  0.00  0.00    +0.140 C 
ATOM     14  C   UNL     1      35.583 -20.818 -19.633  0.00  0.00    +0.002 C 
BRANCH  12  15
ATOM     15  C   UNL     1      34.734 -19.138 -21.214  0.00  0.00    +0.002 C 
ATOM     16  C   UNL     1      34.353 -19.381 -22.534  0.00  0.00    +0.000 C 
ATOM     17  C   UNL     1      35.336 -17.928 -20.873  0.00  0.00    +0.000 C 
ATOM     18  C   UNL     1      34.575 -18.413 -23.513  0.00  0.00    +0.000 C 
ATOM     19  C   UNL     1      35.558 -16.959 -21.852  0.00  0.00    +0.000 C 
ATOM     20  C   UNL     1      35.178 -17.201 -23.173  0.00  0.00    +0.000 C 
ENDBRANCH  12  15
ENDBRANCH   6   9
ENDBRANCH   3   6
BRANCH   5  21
ATOM     21  N   UNL     1      36.430 -22.902 -13.004  0.00  0.00    -0.147 NA
BRANCH  21  29
ATOM     22  O   UNL     1      38.992 -26.839 -14.077  0.00  0.00    -0.350 OA
ATOM     23  N   UNL     1      37.345 -25.005 -12.748  0.00  0.00    -0.277 N 
ATOM     24  N   UNL     1      35.575 -24.522 -11.425  0.00  0.00    -0.373 N 
ATOM     25  C   UNL     1      37.066 -26.436 -12.659  0.00  0.00    +0.125 C 
ATOM     26  C   UNL     1      38.735 -24.663 -13.037  0.00  0.00    +0.125 C 
ATOM     27  C   UNL     1      37.604 -27.132 -13.903  0.00  0.00    +0.164 C 
ATOM     28  C   UNL     1      39.199 -25.437 -14.264  0.00  0.00    +0.164 C 
ATOM     29  C   UNL     1      36.429 -24.069 -12.411  0.00  0.00    +0.182 C 
ATOM     30  H   UNL     1      35.682 -25.430 -11.060  0.00  0.00    +0.158 HD
ATOM     31  H   UNL     1      34.859 -23.937 -11.087  0.00  0.00    +0.158 HD
ENDBRANCH  21  29
ENDBRANCH   5  21
TORSDOF 5
ENDMDL
MODEL 3
REMARK VINA RESULT:     -12.8      1.613      2.249
REMARK  Name = 9800765
REMARK  5 active torsions:
REMARK  status: ('A' for Active; 'I' for Inactive)
REMARK    1  A    between atoms: C_3  and  C_17
REMARK    2  A    between atoms: C_5  and  N_8
REMARK    3  A    between atoms: N_8  and  C_14
REMARK    4  A    between atoms: C_17  and  C_20
REMARK    5  A    between atoms: C_23  and  C_26
REMARK                            x       y       z     vdW  Elec       q    Type
REMARK                         _______ _______ _______ _____ _____    ______ ____
ROOT
ATOM      1  O   UNL     1      37.293 -21.371 -16.415  0.00  0.00    -0.337 OA
ATOM      2  N   UNL     1      36.455 -21.270 -17.519  0.00  0.00    -0.079 NA
ATOM      3  C   UNL     1      35.500 -22.181 -17.312  0.00  0.00    +0.106 C 
ATOM      4  C   UNL     1      35.682 -22.880 -16.106  0.00  0.00    +0.076 C 
ATOM      5  C   UNL     1      36.818 -22.330 -15.589  0.00  0.00    +0.252 C 
ENDROOT
BRANCH   3   6
ATOM      6  C   UNL     1      34.423 -22.353 -18.300  0.00  0.00    +0.066 C 
ATOM      7  C   UNL     1      33.021 -22.542 -17.669  0.00  0.00    +0.011 C 
BRANCH   6   9
ATOM      8  F   UNL     1      37.083 -19.244 -20.924  0.00  0.00    -0.204 F 
ATOM      9  C   UNL     1      34.527 -21.195 -19.298  0.00  0.00    -0.015 C 
ATOM     10  C   UNL     1      35.776 -20.747 -19.655  0.00  0.00    +0.026 C 
ATOM     11  C   UNL     1      33.367 -20.650 -19.795  0.00  0.00    -0.004 C 
ATOM     12  C   UNL     1      34.714 -19.118 -21.088  0.00  0.00    +0.027 C 
ATOM     13  C   UNL     1      35.871 -19.693 -20.564  0.00  0.00    +0.140 C 
ATOM     14  C   UNL     1      33.462 -19.596 -20.703  0.00  0.00    +0.002 C 
BRANCH  12  15
ATOM     15  C   UNL     1      34.808 -18.025 -22.032  0.00  0.00    +0.002 C 
ATOM     16  C   UNL     1      35.217 -16.763 -21.598  0.00  0.00    +0.000 C 
ATOM     17  C   UNL     1      34.490 -18.233 -23.374  0.00  0.00    +0.000 C 
ATOM     18  C   UNL     1      35.308 -15.710 -22.508  0.00  0.00    +0.000 C 
ATOM     19  C   UNL     1      34.582 -17.178 -24.283  0.00  0.00    +0.000 C 
ATOM     20  C   UNL     1      34.990 -15.917 -23.850  0.00  0.00    +0.000 C 
ENDBRANCH  12  15
ENDBRANCH   6   9
ENDBRANCH   3   6
BRANCH   5  21
ATOM     21  N   UNL     1      37.466 -22.623 -14.427  0.00  0.00    -0.147 NA
BRANCH  21  29
ATOM     22  O   UNL     1      36.252 -25.647 -10.878  0.00  0.00    -0.350 OA
ATOM     23  N   UNL     1      37.260 -24.613 -13.278  0.00  0.00    -0.277 N 
ATOM     24  N   UNL     1      38.808 -24.572 -14.926  0.00  0.00    -0.373 N 
ATOM     25  C   UNL     1      37.974 -25.682 -12.585  0.00  0.00    +0.125 C 
ATOM     26  C   UNL     1      35.829 -24.543 -12.995  0.00  0.00    +0.125 C 
ATOM     27  C   UNL     1      37.664 -25.612 -11.094  0.00  0.00    +0.164 C 
ATOM     28  C   UNL     1      35.613 -24.522 -11.487  0.00  0.00    +0.164 C 
ATOM     29  C   UNL     1      37.841 -23.864 -14.241  0.00  0.00    +0.182 C 
ATOM     30  H   UNL     1      38.996 -25.508 -14.684  0.00  0.00    +0.158 HD
ATOM     31  H   UNL     1      39.310 -24.142 -15.655  0.00  0.00    +0.158 HD
ENDBRANCH  21  29
ENDBRANCH   5  21
TORSDOF 5
ENDMDL
MODEL 4
REMARK VINA RESULT:     -12.4      1.229      1.526
REMARK  Name = 9800765
REMARK  5 active torsions:
REMARK  status: ('A' for Active; 'I' for Inactive)
REMARK    1  A    between atoms: C_3  and  C_17
REMARK    2  A    between atoms: C_5  and  N_8
REMARK    3  A    between atoms: N_8  and  C_14
REMARK    4  A    between atoms: C_17  and  C_20
REMARK    5  A    between atoms: C_23  and  C_26
REMARK                            x       y       z     vdW  Elec       q    Type
REMARK                         _______ _______ _______ _____ _____    ______ ____
ROOT
ATOM      1  O   UNL     1      35.418 -24.473 -14.865  0.00  0.00    -0.337 OA
ATOM      2  N   UNL     1      34.597 -24.513 -15.984  0.00  0.00    -0.079 NA
ATOM      3  C   UNL     1      33.742 -23.499 -15.822  0.00  0.00    +0.106 C 
ATOM      4  C   UNL     1      33.975 -22.792 -14.630  0.00  0.00    +0.076 C 
ATOM      5  C   UNL     1      35.034 -23.446 -14.075  0.00  0.00    +0.252 C 
ENDROOT
BRANCH   3   6
ATOM      6  C   UNL     1      32.711 -23.238 -16.839  0.00  0.00    +0.066 C 
ATOM      7  C   UNL     1      31.362 -22.758 -16.252  0.00  0.00    +0.011 C 
BRANCH   6   9
ATOM      8  F   UNL     1      32.250 -19.800 -20.244  0.00  0.00    -0.204 F 
ATOM      9  C   UNL     1      33.326 -22.303 -17.886  0.00  0.00    -0.015 C 
ATOM     10  C   UNL     1      32.492 -21.471 -18.593  0.00  0.00    +0.026 C 
ATOM     11  C   UNL     1      34.687 -22.335 -18.077  0.00  0.00    -0.004 C 
ATOM     12  C   UNL     1      34.428 -20.626 -19.764  0.00  0.00    +0.027 C 
ATOM     13  C   UNL     1      33.051 -20.619 -19.545  0.00  0.00    +0.140 C 
ATOM     14  C   UNL     1      35.246 -21.484 -19.030  0.00  0.00    +0.002 C 
BRANCH  12  15
ATOM     15  C   UNL     1      35.013 -19.744 -20.750  0.00  0.00    +0.002 C 
ATOM     16  C   UNL     1      36.251 -19.149 -20.505  0.00  0.00    +0.000 C 
ATOM     17  C   UNL     1      34.341 -19.488 -21.945  0.00  0.00    +0.000 C 
ATOM     18  C   UNL     1      36.817 -18.299 -21.456  0.00  0.00    +0.000 C 
ATOM     19  C   UNL     1      34.907 -18.638 -22.896  0.00  0.00    +0.000 C 
ATOM     20  C   UNL     1      36.144 -18.043 -22.651  0.00  0.00    +0.000 C 
ENDBRANCH  12  15
ENDBRANCH   6   9
ENDBRANCH   3   6
BRANCH   5  21
ATOM     21  N   UNL     1      35.687 -23.193 -12.906  0.00  0.00    -0.147 NA
BRANCH  21  29
ATOM     22  O   UNL     1      39.066 -26.444 -14.016  0.00  0.00    -0.350 OA
ATOM     23  N   UNL     1      37.180 -24.927 -12.606  0.00  0.00    -0.277 N 
ATOM     24  N   UNL     1      35.554 -24.733 -11.047  0.00  0.00    -0.373 N 
ATOM     25  C   UNL     1      37.328 -26.353 -12.327  0.00  0.00    +0.125 C 
ATOM     26  C   UNL     1      38.363 -24.282 -13.169  0.00  0.00    +0.125 C 
ATOM     27  C   UNL     1      37.854 -27.058 -13.571  0.00  0.00    +0.164 C 
ATOM     28  C   UNL     1      38.844 -25.078 -14.376  0.00  0.00    +0.164 C 
ATOM     29  C   UNL     1      36.097 -24.222 -12.208  0.00  0.00    +0.182 C 
ATOM     30  H   UNL     1      35.961 -25.521 -10.618  0.00  0.00    +0.158 HD
ATOM     31  H   UNL     1      34.758 -24.312 -10.648  0.00  0.00    +0.158 HD
ENDBRANCH  21  29
ENDBRANCH   5  21
TORSDOF 5
ENDMDL
MODEL 5
REMARK VINA RESULT:     -12.2      4.570      7.786
REMARK  Name = 9800765
REMARK  5 active torsions:
REMARK  status: ('A' for Active; 'I' for Inactive)
REMARK    1  A    between atoms: C_3  and  C_17
REMARK    2  A    between atoms: C_5  and  N_8
REMARK    3  A    between atoms: N_8  and  C_14
REMARK    4  A    between atoms: C_17  and  C_20
REMARK    5  A    between atoms: C_23  and  C_26
REMARK                            x       y       z     vdW  Elec       q    Type
REMARK                         _______ _______ _______ _____ _____    ______ ____
ROOT
ATOM      1  O   UNL     1      35.686 -18.328 -20.381  0.00  0.00    -0.337 OA
ATOM      2  N   UNL     1      35.817 -17.506 -21.492  0.00  0.00    -0.079 NA
ATOM      3  C   UNL     1      34.981 -18.016 -22.401  0.00  0.00    +0.106 C 
ATOM      4  C   UNL     1      34.303 -19.150 -21.923  0.00  0.00    +0.076 C 
ATOM      5  C   UNL     1      34.784 -19.297 -20.656  0.00  0.00    +0.252 C 
ENDROOT
BRANCH   3   6
ATOM      6  C   UNL     1      34.860 -17.384 -23.724  0.00  0.00    +0.066 C 
ATOM      7  C   UNL     1      33.935 -18.151 -24.700  0.00  0.00    +0.011 C 
BRANCH   6   9
ATOM      8  F   UNL     1      32.629 -13.312 -25.164  0.00  0.00    -0.204 F 
ATOM      9  C   UNL     1      34.479 -15.917 -23.498  0.00  0.00    -0.015 C 
ATOM     10  C   UNL     1      33.718 -15.282 -24.450  0.00  0.00    +0.026 C 
ATOM     11  C   UNL     1      34.914 -15.294 -22.351  0.00  0.00    -0.004 C 
ATOM     12  C   UNL     1      33.796 -13.286 -23.092  0.00  0.00    +0.027 C 
ATOM     13  C   UNL     1      33.371 -13.947 -24.244  0.00  0.00    +0.140 C 
ATOM     14  C   UNL     1      34.567 -13.960 -22.146  0.00  0.00    +0.002 C 
BRANCH  12  15
ATOM     15  C   UNL     1      33.437 -11.901 -22.873  0.00  0.00    +0.002 C 
ATOM     16  C   UNL     1      32.476 -11.574 -21.917  0.00  0.00    +0.000 C 
ATOM     17  C   UNL     1      34.052 -10.895 -23.617  0.00  0.00    +0.000 C 
ATOM     18  C   UNL     1      32.130 -10.239 -21.704  0.00  0.00    +0.000 C 
ATOM     19  C   UNL     1      33.706  -9.560 -23.404  0.00  0.00    +0.000 C 
ATOM     20  C   UNL     1      32.745  -9.232 -22.448  0.00  0.00    +0.000 C 
ENDBRANCH  12  15
ENDBRANCH   6   9
ENDBRANCH   3   6
BRANCH   5  21
ATOM     21  N   UNL     1      34.476 -20.238 -19.719  0.00  0.00    -0.147 NA
BRANCH  21  29
ATOM     22  O   UNL     1      34.344 -23.528 -16.201  0.00  0.00    -0.350 OA
ATOM     23  N   UNL     1      35.226 -21.892 -18.297  0.00  0.00    -0.277 N 
ATOM     24  N   UNL     1      36.822 -20.648 -19.306  0.00  0.00    -0.373 N 
ATOM     25  C   UNL     1      36.125 -22.212 -17.190  0.00  0.00    +0.125 C 
ATOM     26  C   UNL     1      34.160 -22.864 -18.527  0.00  0.00    +0.125 C 
ATOM     27  C   UNL     1      35.302 -22.500 -15.940  0.00  0.00    +0.164 C 
ATOM     28  C   UNL     1      33.424 -23.123 -17.218  0.00  0.00    +0.164 C 
ATOM     29  C   UNL     1      35.470 -20.874 -19.153  0.00  0.00    +0.182 C 
ATOM     30  H   UNL     1      37.473 -21.203 -18.817  0.00  0.00    +0.158 HD
ATOM     31  H   UNL     1      37.138 -19.932 -19.904  0.00  0.00    +0.158 HD
ENDBRANCH  21  29
ENDBRANCH   5  21
TORSDOF 5
ENDMDL
MODEL 6
REMARK VINA RESULT:     -11.9      7.137     12.143
REMARK  Name = 9800765
REMARK  5 active torsions:
REMARK  status: ('A' for Active; 'I' for Inactive)
REMARK    1  A    between atoms: C_3  and  C_17
REMARK    2  A    between atoms: C_5  and  N_8
REMARK    3  A    between atoms: N_8  and  C_14
REMARK    4  A    between atoms: C_17  and  C_20
REMARK    5  A    between atoms: C_23  and  C_26
REMARK                            x       y       z     vdW  Elec       q    Type
REMARK                         _______ _______ _______ _____ _____    ______ ____
ROOT
ATOM      1  O   UNL     1      34.514 -13.021 -22.271  0.00  0.00    -0.337 OA
ATOM      2  N   UNL     1      35.005 -14.238 -22.728  0.00  0.00    -0.079 NA
ATOM      3  C   UNL     1      34.106 -14.660 -23.622  0.00  0.00    +0.106 C 
ATOM      4  C   UNL     1      33.037 -13.759 -23.768  0.00  0.00    +0.076 C 
ATOM      5  C   UNL     1      33.347 -12.755 -22.900  0.00  0.00    +0.252 C 
ENDROOT
BRANCH   3   6
ATOM      6  C   UNL     1      34.309 -15.940 -24.319  0.00  0.00    +0.066 C 
ATOM      7  C   UNL     1      35.415 -15.892 -25.402  0.00  0.00    +0.011 C 
BRANCH   6   9
ATOM      8  F   UNL     1      35.733 -17.297 -19.875  0.00  0.00    -0.204 F 
ATOM      9  C   UNL     1      34.503 -17.019 -23.250  0.00  0.00    -0.015 C 
ATOM     10  C   UNL     1      35.037 -16.654 -22.038  0.00  0.00    +0.026 C 
ATOM     11  C   UNL     1      34.135 -18.311 -23.546  0.00  0.00    -0.004 C 
ATOM     12  C   UNL     1      34.851 -18.956 -21.331  0.00  0.00    +0.027 C 
ATOM     13  C   UNL     1      35.213 -17.637 -21.063  0.00  0.00    +0.140 C 
ATOM     14  C   UNL     1      34.312 -19.294 -22.573  0.00  0.00    +0.002 C 
BRANCH  12  15
ATOM     15  C   UNL     1      35.031 -19.980 -20.324  0.00  0.00    +0.002 C 
ATOM     16  C   UNL     1      33.920 -20.639 -19.795  0.00  0.00    +0.000 C 
ATOM     17  C   UNL     1      36.312 -20.307 -19.882  0.00  0.00    +0.000 C 
ATOM     18  C   UNL     1      34.093 -21.626 -18.825  0.00  0.00    +0.000 C 
ATOM     19  C   UNL     1      36.484 -21.294 -18.911  0.00  0.00    +0.000 C 
ATOM     20  C   UNL     1      35.375 -21.954 -18.382  0.00  0.00    +0.000 C 
ENDBRANCH  12  15
ENDBRANCH   6   9
ENDBRANCH   3   6
BRANCH   5  21
ATOM     21  N   UNL     1      32.661 -11.610 -22.624  0.00  0.00    -0.147 NA
BRANCH  21  29
ATOM     22  O   UNL     1      31.721  -7.732 -19.923  0.00  0.00    -0.350 OA
ATOM     23  N   UNL     1      31.716 -10.340 -20.945  0.00  0.00    -0.277 N 
ATOM     24  N   UNL     1      31.634 -12.582 -20.662  0.00  0.00    -0.373 N 
ATOM     25  C   UNL     1      31.635 -10.119 -19.503  0.00  0.00    +0.125 C 
ATOM     26  C   UNL     1      31.238  -9.232 -21.767  0.00  0.00    +0.125 C 
ATOM     27  C   UNL     1      32.300  -8.792 -19.158  0.00  0.00    +0.164 C 
ATOM     28  C   UNL     1      31.920  -7.944 -21.323  0.00  0.00    +0.164 C 
ATOM     29  C   UNL     1      32.039 -11.542 -21.474  0.00  0.00    +0.182 C 
ATOM     30  H   UNL     1      31.171 -12.393 -19.813  0.00  0.00    +0.158 HD
ATOM     31  H   UNL     1      31.808 -13.513 -20.931  0.00  0.00    +0.158 HD
ENDBRANCH  21  29
ENDBRANCH   5  21
TORSDOF 5
ENDMDL
MODEL 7
REMARK VINA RESULT:     -11.8      5.776     11.148
REMARK  Name = 9800765
REMARK  5 active torsions:
REMARK  status: ('A' for Active; 'I' for Inactive)
REMARK    1  A    between atoms: C_3  and  C_17
REMARK    2  A    between atoms: C_5  and  N_8
REMARK    3  A    between atoms: N_8  and  C_14
REMARK    4  A    between atoms: C_17  and  C_20
REMARK    5  A    between atoms: C_23  and  C_26
REMARK                            x       y       z     vdW  Elec       q    Type
REMARK                         _______ _______ _______ _____ _____    ______ ____
ROOT
ATOM      1  O   UNL     1      35.278 -15.936 -20.772  0.00  0.00    -0.337 OA
ATOM      2  N   UNL     1      35.143 -17.318 -20.735  0.00  0.00    -0.079 NA
ATOM      3  C   UNL     1      34.703 -17.654 -21.951  0.00  0.00    +0.106 C 
ATOM      4  C   UNL     1      34.545 -16.537 -22.789  0.00  0.00    +0.076 C 
ATOM      5  C   UNL     1      34.920 -15.492 -21.998  0.00  0.00    +0.252 C 
ENDROOT
BRANCH   3   6
ATOM      6  C   UNL     1      34.446 -19.067 -22.274  0.00  0.00    +0.066 C 
ATOM      7  C   UNL     1      35.251 -19.586 -23.491  0.00  0.00    +0.011 C 
BRANCH   6   9
ATOM      8  F   UNL     1      32.617 -21.388 -18.415  0.00  0.00    -0.204 F 
ATOM      9  C   UNL     1      34.637 -19.874 -20.986  0.00  0.00    -0.015 C 
ATOM     10  C   UNL     1      33.522 -20.264 -20.284  0.00  0.00    +0.026 C 
ATOM     11  C   UNL     1      35.917 -20.174 -20.582  0.00  0.00    -0.004 C 
ATOM     12  C   UNL     1      34.980 -21.321 -18.674  0.00  0.00    +0.027 C 
ATOM     13  C   UNL     1      33.695 -20.999 -19.111  0.00  0.00    +0.140 C 
ATOM     14  C   UNL     1      36.091 -20.908 -19.409  0.00  0.00    +0.002 C 
BRANCH  12  15
ATOM     15  C   UNL     1      35.165 -22.084 -17.459  0.00  0.00    +0.002 C 
ATOM     16  C   UNL     1      36.377 -22.013 -16.770  0.00  0.00    +0.000 C 
ATOM     17  C   UNL     1      34.134 -22.889 -16.975  0.00  0.00    +0.000 C 
ATOM     18  C   UNL     1      36.556 -22.747 -15.598  0.00  0.00    +0.000 C 
ATOM     19  C   UNL     1      34.314 -23.623 -15.803  0.00  0.00    +0.000 C 
ATOM     20  C   UNL     1      35.525 -23.553 -15.114  0.00  0.00    +0.000 C 
ENDBRANCH  12  15
ENDBRANCH   6   9
ENDBRANCH   3   6
BRANCH   5  21
ATOM     21  N   UNL     1      34.965 -14.162 -22.290  0.00  0.00    -0.147 NA
BRANCH  21  29
ATOM     22  O   UNL     1      33.316 -10.199 -24.479  0.00  0.00    -0.350 OA
ATOM     23  N   UNL     1      33.507 -12.459 -22.836  0.00  0.00    -0.277 N 
ATOM     24  N   UNL     1      33.088 -13.544 -20.897  0.00  0.00    -0.373 N 
ATOM     25  C   UNL     1      32.820 -11.263 -22.357  0.00  0.00    +0.125 C 
ATOM     26  C   UNL     1      33.551 -12.605 -24.289  0.00  0.00    +0.125 C 
ATOM     27  C   UNL     1      33.391 -10.038 -23.060  0.00  0.00    +0.164 C 
ATOM     28  C   UNL     1      34.090 -11.321 -24.908  0.00  0.00    +0.164 C 
ATOM     29  C   UNL     1      33.909 -13.443 -22.001  0.00  0.00    +0.182 C 
ATOM     30  H   UNL     1      32.320 -12.936 -20.797  0.00  0.00    +0.158 HD
ATOM     31  H   UNL     1      33.271 -14.223 -20.207  0.00  0.00    +0.158 HD
ENDBRANCH  21  29
ENDBRANCH   5  21
TORSDOF 5
ENDMDL
MODEL 8
REMARK VINA RESULT:     -11.8      1.863      2.481
REMARK  Name = 9800765
REMARK  5 active torsions:
REMARK  status: ('A' for Active; 'I' for Inactive)
REMARK    1  A    between atoms: C_3  and  C_17
REMARK    2  A    between atoms: C_5  and  N_8
REMARK    3  A    between atoms: N_8  and  C_14
REMARK    4  A    between atoms: C_17  and  C_20
REMARK    5  A    between atoms: C_23  and  C_26
REMARK                            x       y       z     vdW  Elec       q    Type
REMARK                         _______ _______ _______ _____ _____    ______ ____
ROOT
ATOM      1  O   UNL     1      34.213 -24.016 -13.959  0.00  0.00    -0.337 OA
ATOM      2  N   UNL     1      33.140 -23.390 -14.583  0.00  0.00    -0.079 NA
ATOM      3  C   UNL     1      33.283 -23.670 -15.881  0.00  0.00    +0.106 C 
ATOM      4  C   UNL     1      34.417 -24.461 -16.134  0.00  0.00    +0.076 C 
ATOM      5  C   UNL     1      34.957 -24.645 -14.896  0.00  0.00    +0.252 C 
ENDROOT
BRANCH   3   6
ATOM      6  C   UNL     1      32.305 -23.159 -16.855  0.00  0.00    +0.066 C 
ATOM      7  C   UNL     1      31.068 -22.491 -16.205  0.00  0.00    +0.011 C 
BRANCH   6   9
ATOM      8  F   UNL     1      36.463 -21.679 -18.892  0.00  0.00    -0.204 F 
ATOM      9  C   UNL     1      33.066 -22.274 -17.847  0.00  0.00    -0.015 C 
ATOM     10  C   UNL     1      34.434 -22.387 -17.912  0.00  0.00    +0.026 C 
ATOM     11  C   UNL     1      32.350 -21.401 -18.632  0.00  0.00    -0.004 C 
ATOM     12  C   UNL     1      34.431 -20.685 -19.627  0.00  0.00    +0.027 C 
ATOM     13  C   UNL     1      35.127 -21.581 -18.816  0.00  0.00    +0.140 C 
ATOM     14  C   UNL     1      33.042 -20.595 -19.535  0.00  0.00    +0.002 C 
BRANCH  12  15
ATOM     15  C   UNL     1      35.145 -19.848 -20.567  0.00  0.00    +0.002 C 
ATOM     16  C   UNL     1      36.428 -19.394 -20.260  0.00  0.00    +0.000 C 
ATOM     17  C   UNL     1      34.552 -19.497 -21.780  0.00  0.00    +0.000 C 
ATOM     18  C   UNL     1      37.117 -18.588 -21.166  0.00  0.00    +0.000 C 
ATOM     19  C   UNL     1      35.242 -18.691 -22.685  0.00  0.00    +0.000 C 
ATOM     20  C   UNL     1      36.525 -18.235 -22.378  0.00  0.00    +0.000 C 
ENDBRANCH  12  15
ENDBRANCH   6   9
ENDBRANCH   3   6
BRANCH   5  21
ATOM     21  N   UNL     1      36.075 -25.338 -14.537  0.00  0.00    -0.147 NA
BRANCH  21  29
ATOM     22  O   UNL     1      36.837 -23.771 -10.044  0.00  0.00    -0.350 OA
ATOM     23  N   UNL     1      37.211 -24.449 -12.736  0.00  0.00    -0.277 N 
ATOM     24  N   UNL     1      38.115 -24.062 -14.773  0.00  0.00    -0.373 N 
ATOM     25  C   UNL     1      37.850 -23.256 -12.186  0.00  0.00    +0.125 C 
ATOM     26  C   UNL     1      36.897 -25.487 -11.758  0.00  0.00    +0.125 C 
ATOM     27  C   UNL     1      37.027 -22.738 -11.014  0.00  0.00    +0.164 C 
ATOM     28  C   UNL     1      36.115 -24.871 -10.604  0.00  0.00    +0.164 C 
ATOM     29  C   UNL     1      37.086 -24.652 -14.067  0.00  0.00    +0.182 C 
ATOM     30  H   UNL     1      38.820 -23.568 -14.295  0.00  0.00    +0.158 HD
ATOM     31  H   UNL     1      38.144 -24.134 -15.754  0.00  0.00    +0.158 HD
ENDBRANCH  21  29
ENDBRANCH   5  21
TORSDOF 5
ENDMDL
MODEL 9
REMARK VINA RESULT:     -11.8      3.521      6.580
REMARK  Name = 9800765
REMARK  5 active torsions:
REMARK  status: ('A' for Active; 'I' for Inactive)
REMARK    1  A    between atoms: C_3  and  C_17
REMARK    2  A    between atoms: C_5  and  N_8
REMARK    3  A    between atoms: N_8  and  C_14
REMARK    4  A    between atoms: C_17  and  C_20
REMARK    5  A    between atoms: C_23  and  C_26
REMARK                            x       y       z     vdW  Elec       q    Type
REMARK                         _______ _______ _______ _____ _____    ______ ____
ROOT
ATOM      1  O   UNL     1      36.205 -19.651 -19.570  0.00  0.00    -0.337 OA
ATOM      2  N   UNL     1      36.581 -18.949 -20.709  0.00  0.00    -0.079 NA
ATOM      3  C   UNL     1      35.594 -19.158 -21.585  0.00  0.00    +0.106 C 
ATOM      4  C   UNL     1      34.580 -19.977 -21.060  0.00  0.00    +0.076 C 
ATOM      5  C   UNL     1      35.016 -20.253 -19.799  0.00  0.00    +0.252 C 
ENDROOT
BRANCH   3   6
ATOM      6  C   UNL     1      35.661 -18.552 -22.924  0.00  0.00    +0.066 C 
ATOM      7  C   UNL     1      35.000 -19.408 -24.032  0.00  0.00    +0.011 C 
BRANCH   6   9
ATOM      8  F   UNL     1      34.871 -14.514 -20.335  0.00  0.00    -0.204 F 
ATOM      9  C   UNL     1      35.119 -17.123 -22.808  0.00  0.00    -0.015 C 
ATOM     10  C   UNL     1      35.247 -16.468 -21.607  0.00  0.00    +0.026 C 
ATOM     11  C   UNL     1      34.524 -16.554 -23.910  0.00  0.00    -0.004 C 
ATOM     12  C   UNL     1      34.145 -14.561 -22.599  0.00  0.00    +0.027 C 
ATOM     13  C   UNL     1      34.754 -15.168 -21.501  0.00  0.00    +0.140 C 
ATOM     14  C   UNL     1      34.030 -15.255 -23.803  0.00  0.00    +0.002 C 
BRANCH  12  15
ATOM     15  C   UNL     1      33.633 -13.212 -22.494  0.00  0.00    +0.002 C 
ATOM     16  C   UNL     1      32.655 -12.910 -21.546  0.00  0.00    +0.000 C 
ATOM     17  C   UNL     1      34.117 -12.214 -23.340  0.00  0.00    +0.000 C 
ATOM     18  C   UNL     1      32.161 -11.610 -21.444  0.00  0.00    +0.000 C 
ATOM     19  C   UNL     1      33.623 -10.913 -23.237  0.00  0.00    +0.000 C 
ATOM     20  C   UNL     1      32.644 -10.611 -22.290  0.00  0.00    +0.000 C 
ENDBRANCH  12  15
ENDBRANCH   6   9
ENDBRANCH   3   6
BRANCH   5  21
ATOM     21  N   UNL     1      34.429 -21.009 -18.829  0.00  0.00    -0.147 NA
BRANCH  21  29
ATOM     22  O   UNL     1      33.284 -23.691 -14.992  0.00  0.00    -0.350 OA
ATOM     23  N   UNL     1      34.685 -22.557 -17.136  0.00  0.00    -0.277 N 
ATOM     24  N   UNL     1      36.591 -21.782 -18.073  0.00  0.00    -0.373 N 
ATOM     25  C   UNL     1      35.383 -22.878 -15.894  0.00  0.00    +0.125 C 
ATOM     26  C   UNL     1      33.476 -23.338 -17.385  0.00  0.00    +0.125 C 
ATOM     27  C   UNL     1      34.395 -22.830 -14.734  0.00  0.00    +0.164 C 
ATOM     28  C   UNL     1      32.572 -23.271 -16.160  0.00  0.00    +0.164 C 
ATOM     29  C   UNL     1      35.213 -21.732 -18.068  0.00  0.00    +0.182 C 
ATOM     30  H   UNL     1      37.065 -22.373 -17.443  0.00  0.00    +0.158 HD
ATOM     31  H   UNL     1      37.103 -21.228 -18.706  0.00  0.00    +0.158 HD
ENDBRANCH  21  29
ENDBRANCH   5  21
TORSDOF 5
ENDMDL
