MODEL 1
REMARK VINA RESULT:     -11.8      0.000      0.000
REMARK  Name = 2754
REMARK  7 active torsions:
REMARK  status: ('A' for Active; 'I' for Inactive)
REMARK    1  A    between atoms: C_1  and  C_2
REMARK    2  A    between atoms: C_1  and  C_15
REMARK    3  A    between atoms: C_2  and  C_3
REMARK    4  A    between atoms: C_3  and  C_8
REMARK    5  A    between atoms: N_4  and  C_9
REMARK    6  A    between atoms: C_15  and  O_16
REMARK    7  A    between atoms: O_16  and  C_23
REMARK                            x       y       z     vdW  Elec       q    Type
REMARK                         _______ _______ _______ _____ _____    ______ ____
ROOT
ATOM      1  C   UNL     1      33.786 -22.420 -18.851  0.00  0.00    +0.048 C 
ENDROOT
BRANCH   1   2
ATOM      2  C   UNL     1      33.356 -20.968 -19.053  0.00  0.00    +0.012 C 
BRANCH   2   3
ATOM      3  C   UNL     1      33.833 -20.430 -20.404  0.00  0.00    +0.068 C 
BRANCH   3   8
ATOM      4  N   UNL     1      35.595 -18.790 -21.063  0.00  0.00    -0.219 N 
ATOM      5  N   UNL     1      36.858 -18.475 -20.744  0.00  0.00    -0.043 NA
ATOM      6  N   UNL     1      36.158 -20.192 -19.507  0.00  0.00    -0.113 NA
ATOM      7  N   UNL     1      37.197 -19.335 -19.791  0.00  0.00    -0.023 NA
ATOM      8  C   UNL     1      35.210 -19.822 -20.302  0.00  0.00    +0.161 A 
BRANCH   4   9
ATOM      9  C   UNL     1      34.866 -18.044 -22.096  0.00  0.00    +0.108 C 
ATOM     10  C   UNL     1      34.723 -18.843 -23.402  0.00  0.00    +0.024 C 
ATOM     11  C   UNL     1      35.472 -16.652 -22.348  0.00  0.00    +0.024 C 
ATOM     12  C   UNL     1      33.935 -18.060 -24.450  0.00  0.00    +0.002 C 
ATOM     13  C   UNL     1      34.679 -15.884 -23.402  0.00  0.00    +0.002 C 
ATOM     14  C   UNL     1      34.542 -16.681 -24.697  0.00  0.00    +0.000 C 
ENDBRANCH   4   9
ENDBRANCH   3   8
ENDBRANCH   2   3
ENDBRANCH   1   2
BRANCH   1  15
ATOM     15  C   UNL     1      33.624 -22.857 -17.402  0.00  0.00    +0.205 C 
BRANCH  15  16
ATOM     16  O   UNL     1      34.906 -22.870 -16.778  0.00  0.00    -0.475 OA
BRANCH  16  23
ATOM     17  O   UNL     1      36.138 -24.216  -9.358  0.00  0.00    -0.275 OA
ATOM     18  N   UNL     1      35.053 -24.180 -11.382  0.00  0.00    -0.284 N 
ATOM     19  C   UNL     1      36.156 -23.294 -13.360  0.00  0.00    -0.005 C 
ATOM     20  C   UNL     1      37.424 -23.156 -12.569  0.00  0.00    +0.037 C 
ATOM     21  C   UNL     1      35.021 -23.840 -12.747  0.00  0.00    +0.046 C 
ATOM     22  C   UNL     1      37.123 -22.896 -11.101  0.00  0.00    +0.090 C 
ATOM     23  C   UNL     1      34.950 -23.203 -15.459  0.00  0.00    +0.138 C 
ATOM     24  C   UNL     1      36.115 -22.983 -14.723  0.00  0.00    +0.034 C 
ATOM     25  C   UNL     1      36.090 -23.849 -10.531  0.00  0.00    +0.226 C 
ATOM     26  C   UNL     1      33.861 -24.080 -13.486  0.00  0.00    +0.017 C 
ATOM     27  C   UNL     1      33.826 -23.753 -14.842  0.00  0.00    +0.038 C 
ATOM     28  H   UNL     1      34.293 -24.685 -11.012  0.00  0.00    +0.155 HD
ENDBRANCH  16  23
ENDBRANCH  15  16
ENDBRANCH   1  15
TORSDOF 7
ENDMDL
MODEL 2
REMARK VINA RESULT:     -11.6      3.424     10.115
REMARK  Name = 2754
REMARK  7 active torsions:
REMARK  status: ('A' for Active; 'I' for Inactive)
REMARK    1  A    between atoms: C_1  and  C_2
REMARK    2  A    between atoms: C_1  and  C_15
REMARK    3  A    between atoms: C_2  and  C_3
REMARK    4  A    between atoms: C_3  and  C_8
REMARK    5  A    between atoms: N_4  and  C_9
REMARK    6  A    between atoms: C_15  and  O_16
REMARK    7  A    between atoms: O_16  and  C_23
REMARK                            x       y       z     vdW  Elec       q    Type
REMARK                         _______ _______ _______ _____ _____    ______ ____
ROOT
ATOM      1  C   UNL     1      36.141 -21.776 -17.918  0.00  0.00    +0.048 C 
ENDROOT
BRANCH   1   2
ATOM      2  C   UNL     1      37.189 -21.605 -16.819  0.00  0.00    +0.012 C 
BRANCH   2   3
ATOM      3  C   UNL     1      36.579 -21.826 -15.432  0.00  0.00    +0.068 C 
BRANCH   3   8
ATOM      4  N   UNL     1      35.108 -23.805 -15.046  0.00  0.00    -0.219 N 
ATOM      5  N   UNL     1      35.217 -25.120 -14.811  0.00  0.00    -0.043 NA
ATOM      6  N   UNL     1      37.239 -24.204 -15.012  0.00  0.00    -0.113 NA
ATOM      7  N   UNL     1      36.522 -25.359 -14.792  0.00  0.00    -0.023 NA
ATOM      8  C   UNL     1      36.338 -23.291 -15.161  0.00  0.00    +0.161 A 
BRANCH   4   9
ATOM      9  C   UNL     1      33.793 -23.159 -15.141  0.00  0.00    +0.108 C 
ATOM     10  C   UNL     1      32.875 -23.529 -13.963  0.00  0.00    +0.024 C 
ATOM     11  C   UNL     1      33.110 -23.420 -16.495  0.00  0.00    +0.024 C 
ATOM     12  C   UNL     1      31.525 -22.821 -14.067  0.00  0.00    +0.002 C 
ATOM     13  C   UNL     1      31.759 -22.713 -16.581  0.00  0.00    +0.002 C 
ATOM     14  C   UNL     1      30.851 -23.086 -15.411  0.00  0.00    +0.000 C 
ENDBRANCH   4   9
ENDBRANCH   3   8
ENDBRANCH   2   3
ENDBRANCH   1   2
BRANCH   1  15
ATOM     15  C   UNL     1      36.452 -20.907 -19.128  0.00  0.00    +0.205 C 
BRANCH  15  16
ATOM     16  O   UNL     1      35.230 -20.578 -19.786  0.00  0.00    -0.475 OA
BRANCH  16  23
ATOM     17  O   UNL     1      34.691 -15.669 -25.616  0.00  0.00    -0.275 OA
ATOM     18  N   UNL     1      35.393 -16.562 -23.621  0.00  0.00    -0.284 N 
ATOM     19  C   UNL     1      34.575 -18.730 -22.881  0.00  0.00    -0.005 C 
ATOM     20  C   UNL     1      33.879 -18.898 -24.201  0.00  0.00    +0.037 C 
ATOM     21  C   UNL     1      35.342 -17.580 -22.651  0.00  0.00    +0.046 C 
ATOM     22  C   UNL     1      33.467 -17.550 -24.773  0.00  0.00    +0.090 C 
ATOM     23  C   UNL     1      35.279 -19.602 -20.734  0.00  0.00    +0.138 C 
ATOM     24  C   UNL     1      34.553 -19.743 -21.917  0.00  0.00    +0.034 C 
ATOM     25  C   UNL     1      34.585 -16.526 -24.740  0.00  0.00    +0.226 C 
ATOM     26  C   UNL     1      36.085 -17.447 -21.476  0.00  0.00    +0.017 C 
ATOM     27  C   UNL     1      36.046 -18.458 -20.515  0.00  0.00    +0.038 C 
ATOM     28  H   UNL     1      36.043 -15.833 -23.494  0.00  0.00    +0.155 HD
ENDBRANCH  16  23
ENDBRANCH  15  16
ENDBRANCH   1  15
TORSDOF 7
ENDMDL
MODEL 3
REMARK VINA RESULT:     -11.4      4.111      7.700
REMARK  Name = 2754
REMARK  7 active torsions:
REMARK  status: ('A' for Active; 'I' for Inactive)
REMARK    1  A    between atoms: C_1  and  C_2
REMARK    2  A    between atoms: C_1  and  C_15
REMARK    3  A    between atoms: C_2  and  C_3
REMARK    4  A    between atoms: C_3  and  C_8
REMARK    5  A    between atoms: N_4  and  C_9
REMARK    6  A    between atoms: C_15  and  O_16
REMARK    7  A    between atoms: O_16  and  C_23
REMARK                            x       y       z     vdW  Elec       q    Type
REMARK                         _______ _______ _______ _____ _____    ______ ____
ROOT
ATOM      1  C   UNL     1      33.813 -17.252 -25.144  0.00  0.00    +0.048 C 
ENDROOT
BRANCH   1   2
ATOM      2  C   UNL     1      34.264 -15.840 -24.773  0.00  0.00    +0.012 C 
BRANCH   2   3
ATOM      3  C   UNL     1      33.069 -14.892 -24.641  0.00  0.00    +0.068 C 
BRANCH   3   8
ATOM      4  N   UNL     1      33.748 -12.654 -23.772  0.00  0.00    -0.219 N 
ATOM      5  N   UNL     1      34.089 -11.445 -24.239  0.00  0.00    -0.043 NA
ATOM      6  N   UNL     1      33.635 -12.823 -25.931  0.00  0.00    -0.113 NA
ATOM      7  N   UNL     1      34.019 -11.554 -25.560  0.00  0.00    -0.023 NA
ATOM      8  C   UNL     1      33.484 -13.452 -24.814  0.00  0.00    +0.161 A 
BRANCH   4   9
ATOM      9  C   UNL     1      33.712 -12.926 -22.330  0.00  0.00    +0.108 C 
ATOM     10  C   UNL     1      34.534 -14.169 -21.950  0.00  0.00    +0.024 C 
ATOM     11  C   UNL     1      32.274 -13.011 -21.788  0.00  0.00    +0.024 C 
ATOM     12  C   UNL     1      34.506 -14.415 -20.442  0.00  0.00    +0.002 C 
ATOM     13  C   UNL     1      32.262 -13.263 -20.282  0.00  0.00    +0.002 C 
ATOM     14  C   UNL     1      33.078 -14.500 -19.911  0.00  0.00    +0.000 C 
ENDBRANCH   4   9
ENDBRANCH   3   8
ENDBRANCH   2   3
ENDBRANCH   1   2
BRANCH   1  15
ATOM     15  C   UNL     1      34.035 -18.230 -24.000  0.00  0.00    +0.205 C 
BRANCH  15  16
ATOM     16  O   UNL     1      34.897 -17.626 -23.037  0.00  0.00    -0.475 OA
BRANCH  16  23
ATOM     17  O   UNL     1      36.002 -22.396 -17.171  0.00  0.00    -0.275 OA
ATOM     18  N   UNL     1      36.462 -20.794 -18.750  0.00  0.00    -0.284 N 
ATOM     19  C   UNL     1      34.729 -20.028 -20.275  0.00  0.00    -0.005 C 
ATOM     20  C   UNL     1      33.725 -20.848 -19.518  0.00  0.00    +0.037 C 
ATOM     21  C   UNL     1      36.060 -19.999 -19.839  0.00  0.00    +0.046 C 
ATOM     22  C   UNL     1      34.379 -22.078 -18.907  0.00  0.00    +0.090 C 
ATOM     23  C   UNL     1      35.275 -18.393 -21.977  0.00  0.00    +0.138 C 
ATOM     24  C   UNL     1      34.341 -19.214 -21.344  0.00  0.00    +0.034 C 
ATOM     25  C   UNL     1      35.664 -21.760 -18.168  0.00  0.00    +0.226 C 
ATOM     26  C   UNL     1      36.991 -19.162 -20.458  0.00  0.00    +0.017 C 
ATOM     27  C   UNL     1      36.596 -18.365 -21.533  0.00  0.00    +0.038 C 
ATOM     28  H   UNL     1      37.364 -20.653 -18.381  0.00  0.00    +0.155 HD
ENDBRANCH  16  23
ENDBRANCH  15  16
ENDBRANCH   1  15
TORSDOF 7
ENDMDL
MODEL 4
REMARK VINA RESULT:     -11.4      2.484      9.534
REMARK  Name = 2754
REMARK  7 active torsions:
REMARK  status: ('A' for Active; 'I' for Inactive)
REMARK    1  A    between atoms: C_1  and  C_2
REMARK    2  A    between atoms: C_1  and  C_15
REMARK    3  A    between atoms: C_2  and  C_3
REMARK    4  A    between atoms: C_3  and  C_8
REMARK    5  A    between atoms: N_4  and  C_9
REMARK    6  A    between atoms: C_15  and  O_16
REMARK    7  A    between atoms: O_16  and  C_23
REMARK                            x       y       z     vdW  Elec       q    Type
REMARK                         _______ _______ _______ _____ _____    ______ ____
ROOT
ATOM      1  C   UNL     1      36.500 -22.376 -15.329  0.00  0.00    +0.048 C 
ENDROOT
BRANCH   1   2
ATOM      2  C   UNL     1      37.203 -23.680 -14.954  0.00  0.00    +0.012 C 
BRANCH   2   3
ATOM      3  C   UNL     1      36.203 -24.727 -14.458  0.00  0.00    +0.068 C 
BRANCH   3   8
ATOM      4  N   UNL     1      34.307 -24.202 -12.923  0.00  0.00    -0.219 N 
ATOM      5  N   UNL     1      34.102 -23.866 -11.642  0.00  0.00    -0.043 NA
ATOM      6  N   UNL     1      36.282 -24.122 -12.031  0.00  0.00    -0.113 NA
ATOM      7  N   UNL     1      35.313 -23.819 -11.100  0.00  0.00    -0.023 NA
ATOM      8  C   UNL     1      35.623 -24.347 -13.118  0.00  0.00    +0.161 A 
BRANCH   4   9
ATOM      9  C   UNL     1      33.183 -24.356 -13.855  0.00  0.00    +0.108 C 
ATOM     10  C   UNL     1      32.917 -23.075 -14.665  0.00  0.00    +0.024 C 
ATOM     11  C   UNL     1      31.908 -24.856 -13.154  0.00  0.00    +0.024 C 
ATOM     12  C   UNL     1      31.765 -23.268 -15.649  0.00  0.00    +0.002 C 
ATOM     13  C   UNL     1      30.762 -25.037 -14.148  0.00  0.00    +0.002 C 
ATOM     14  C   UNL     1      30.502 -23.763 -14.947  0.00  0.00    +0.000 C 
ENDBRANCH   4   9
ENDBRANCH   3   8
ENDBRANCH   2   3
ENDBRANCH   1   2
BRANCH   1  15
ATOM     15  C   UNL     1      36.813 -21.961 -16.759  0.00  0.00    +0.205 C 
BRANCH  15  16
ATOM     16  O   UNL     1      35.748 -22.388 -17.606  0.00  0.00    -0.475 OA
BRANCH  16  23
ATOM     17  O   UNL     1      34.644 -17.378 -23.269  0.00  0.00    -0.275 OA
ATOM     18  N   UNL     1      34.151 -18.931 -21.651  0.00  0.00    -0.284 N 
ATOM     19  C   UNL     1      35.905 -19.835 -20.230  0.00  0.00    -0.005 C 
ATOM     20  C   UNL     1      36.874 -18.863 -20.838  0.00  0.00    +0.037 C 
ATOM     21  C   UNL     1      34.563 -19.809 -20.632  0.00  0.00    +0.046 C 
ATOM     22  C   UNL     1      36.490 -18.540 -22.274  0.00  0.00    +0.090 C 
ATOM     23  C   UNL     1      35.356 -21.529 -18.588  0.00  0.00    +0.138 C 
ATOM     24  C   UNL     1      36.294 -20.696 -19.199  0.00  0.00    +0.034 C 
ATOM     25  C   UNL     1      35.022 -18.195 -22.430  0.00  0.00    +0.226 C 
ATOM     26  C   UNL     1      33.620 -20.627 -20.007  0.00  0.00    +0.017 C 
ATOM     27  C   UNL     1      34.021 -21.493 -18.990  0.00  0.00    +0.038 C 
ATOM     28  H   UNL     1      33.185 -18.836 -21.819  0.00  0.00    +0.155 HD
ENDBRANCH  16  23
ENDBRANCH  15  16
ENDBRANCH   1  15
TORSDOF 7
ENDMDL
MODEL 5
REMARK VINA RESULT:     -11.3      3.764     10.727
REMARK  Name = 2754
REMARK  7 active torsions:
REMARK  status: ('A' for Active; 'I' for Inactive)
REMARK    1  A    between atoms: C_1  and  C_2
REMARK    2  A    between atoms: C_1  and  C_15
REMARK    3  A    between atoms: C_2  and  C_3
REMARK    4  A    between atoms: C_3  and  C_8
REMARK    5  A    between atoms: N_4  and  C_9
REMARK    6  A    between atoms: C_15  and  O_16
REMARK    7  A    between atoms: O_16  and  C_23
REMARK                            x       y       z     vdW  Elec       q    Type
REMARK                         _______ _______ _______ _____ _____    ______ ____
ROOT
ATOM      1  C   UNL     1      36.571 -19.968 -19.887  0.00  0.00    +0.048 C 
ENDROOT
BRANCH   1   2
ATOM      2  C   UNL     1      35.194 -20.629 -19.851  0.00  0.00    +0.012 C 
BRANCH   2   3
ATOM      3  C   UNL     1      35.237 -21.961 -19.097  0.00  0.00    +0.068 C 
BRANCH   3   8
ATOM      4  N   UNL     1      33.984 -22.736 -17.083  0.00  0.00    -0.219 N 
ATOM      5  N   UNL     1      32.722 -22.806 -16.638  0.00  0.00    -0.043 NA
ATOM      6  N   UNL     1      32.771 -21.901 -18.675  0.00  0.00    -0.113 NA
ATOM      7  N   UNL     1      31.984 -22.294 -17.615  0.00  0.00    -0.023 NA
ATOM      8  C   UNL     1      33.974 -22.189 -18.305  0.00  0.00    +0.161 A 
BRANCH   4   9
ATOM      9  C   UNL     1      35.104 -23.215 -16.263  0.00  0.00    +0.108 C 
ATOM     10  C   UNL     1      34.646 -23.709 -14.880  0.00  0.00    +0.024 C 
ATOM     11  C   UNL     1      36.230 -22.173 -16.147  0.00  0.00    +0.024 C 
ATOM     12  C   UNL     1      35.823 -24.230 -14.057  0.00  0.00    +0.002 C 
ATOM     13  C   UNL     1      37.396 -22.705 -15.317  0.00  0.00    +0.002 C 
ATOM     14  C   UNL     1      36.935 -23.192 -13.944  0.00  0.00    +0.000 C 
ENDBRANCH   4   9
ENDBRANCH   3   8
ENDBRANCH   2   3
ENDBRANCH   1   2
BRANCH   1  15
ATOM     15  C   UNL     1      36.580 -18.740 -20.785  0.00  0.00    +0.205 C 
BRANCH  15  16
ATOM     16  O   UNL     1      35.814 -17.709 -20.165  0.00  0.00    -0.475 OA
BRANCH  16  23
ATOM     17  O   UNL     1      33.149 -12.950 -25.516  0.00  0.00    -0.275 OA
ATOM     18  N   UNL     1      33.793 -13.708 -23.446  0.00  0.00    -0.284 N 
ATOM     19  C   UNL     1      34.738 -15.933 -23.184  0.00  0.00    -0.005 C 
ATOM     20  C   UNL     1      34.738 -16.090 -24.677  0.00  0.00    +0.037 C 
ATOM     21  C   UNL     1      34.300 -14.728 -22.620  0.00  0.00    +0.046 C 
ATOM     22  C   UNL     1      33.604 -15.294 -25.306  0.00  0.00    +0.090 C 
ATOM     23  C   UNL     1      35.332 -16.725 -20.973  0.00  0.00    +0.138 C 
ATOM     24  C   UNL     1      35.261 -16.928 -22.352  0.00  0.00    +0.034 C 
ATOM     25  C   UNL     1      33.523 -13.871 -24.791  0.00  0.00    +0.226 C 
ATOM     26  C   UNL     1      34.389 -14.515 -21.243  0.00  0.00    +0.017 C 
ATOM     27  C   UNL     1      34.900 -15.520 -20.420  0.00  0.00    +0.038 C 
ATOM     28  H   UNL     1      33.620 -12.827 -23.042  0.00  0.00    +0.155 HD
ENDBRANCH  16  23
ENDBRANCH  15  16
ENDBRANCH   1  15
TORSDOF 7
ENDMDL
MODEL 6
REMARK VINA RESULT:     -11.2      2.654     10.011
REMARK  Name = 2754
REMARK  7 active torsions:
REMARK  status: ('A' for Active; 'I' for Inactive)
REMARK    1  A    between atoms: C_1  and  C_2
REMARK    2  A    between atoms: C_1  and  C_15
REMARK    3  A    between atoms: C_2  and  C_3
REMARK    4  A    between atoms: C_3  and  C_8
REMARK    5  A    between atoms: N_4  and  C_9
REMARK    6  A    between atoms: C_15  and  O_16
REMARK    7  A    between atoms: O_16  and  C_23
REMARK                            x       y       z     vdW  Elec       q    Type
REMARK                         _______ _______ _______ _____ _____    ______ ____
ROOT
ATOM      1  C   UNL     1      33.537 -23.196 -15.934  0.00  0.00    +0.048 C 
ENDROOT
BRANCH   1   2
ATOM      2  C   UNL     1      34.916 -23.623 -15.432  0.00  0.00    +0.012 C 
BRANCH   2   3
ATOM      3  C   UNL     1      34.804 -24.711 -14.360  0.00  0.00    +0.068 C 
BRANCH   3   8
ATOM      4  N   UNL     1      36.904 -25.779 -13.537  0.00  0.00    -0.219 N 
ATOM      5  N   UNL     1      37.757 -26.748 -13.897  0.00  0.00    -0.043 NA
ATOM      6  N   UNL     1      36.119 -26.570 -15.398  0.00  0.00    -0.113 NA
ATOM      7  N   UNL     1      37.273 -27.229 -15.035  0.00  0.00    -0.023 NA
ATOM      8  C   UNL     1      35.936 -25.702 -14.460  0.00  0.00    +0.161 A 
BRANCH   4   9
ATOM      9  C   UNL     1      37.111 -25.005 -12.307  0.00  0.00    +0.108 C 
ATOM     10  C   UNL     1      35.846 -24.947 -11.434  0.00  0.00    +0.024 C 
ATOM     11  C   UNL     1      37.667 -23.598 -12.590  0.00  0.00    +0.024 C 
ATOM     12  C   UNL     1      36.094 -24.163 -10.147  0.00  0.00    +0.002 C 
ATOM     13  C   UNL     1      37.904 -22.824 -11.295  0.00  0.00    +0.002 C 
ATOM     14  C   UNL     1      36.644 -22.769 -10.433  0.00  0.00    +0.000 C 
ENDBRANCH   4   9
ENDBRANCH   3   8
ENDBRANCH   2   3
ENDBRANCH   1   2
BRANCH   1  15
ATOM     15  C   UNL     1      33.462 -23.217 -17.453  0.00  0.00    +0.205 C 
BRANCH  15  16
ATOM     16  O   UNL     1      34.705 -22.759 -17.983  0.00  0.00    -0.475 OA
BRANCH  16  23
ATOM     17  O   UNL     1      35.592 -16.799 -22.682  0.00  0.00    -0.275 OA
ATOM     18  N   UNL     1      34.532 -18.404 -21.427  0.00  0.00    -0.284 N 
ATOM     19  C   UNL     1      35.815 -19.955 -20.064  0.00  0.00    -0.005 C 
ATOM     20  C   UNL     1      37.063 -19.190 -20.400  0.00  0.00    +0.037 C 
ATOM     21  C   UNL     1      34.583 -19.510 -20.560  0.00  0.00    +0.046 C 
ATOM     22  C   UNL     1      36.954 -18.552 -21.777  0.00  0.00    +0.090 C 
ATOM     23  C   UNL     1      34.664 -21.682 -18.816  0.00  0.00    +0.138 C 
ATOM     24  C   UNL     1      35.848 -21.041 -19.184  0.00  0.00    +0.034 C 
ATOM     25  C   UNL     1      35.648 -17.811 -21.983  0.00  0.00    +0.226 C 
ATOM     26  C   UNL     1      33.396 -20.138 -20.176  0.00  0.00    +0.017 C 
ATOM     27  C   UNL     1      33.440 -21.230 -19.309  0.00  0.00    +0.038 C 
ATOM     28  H   UNL     1      33.648 -18.031 -21.651  0.00  0.00    +0.155 HD
ENDBRANCH  16  23
ENDBRANCH  15  16
ENDBRANCH   1  15
TORSDOF 7
ENDMDL
MODEL 7
REMARK VINA RESULT:     -11.1      6.798     12.299
REMARK  Name = 2754
REMARK  7 active torsions:
REMARK  status: ('A' for Active; 'I' for Inactive)
REMARK    1  A    between atoms: C_1  and  C_2
REMARK    2  A    between atoms: C_1  and  C_15
REMARK    3  A    between atoms: C_2  and  C_3
REMARK    4  A    between atoms: C_3  and  C_8
REMARK    5  A    between atoms: N_4  and  C_9
REMARK    6  A    between atoms: C_15  and  O_16
REMARK    7  A    between atoms: O_16  and  C_23
REMARK                            x       y       z     vdW  Elec       q    Type
REMARK                         _______ _______ _______ _____ _____    ______ ____
ROOT
ATOM      1  C   UNL     1      34.187 -13.893 -20.920  0.00  0.00    +0.048 C 
ENDROOT
BRANCH   1   2
ATOM      2  C   UNL     1      34.016 -14.328 -22.375  0.00  0.00    +0.012 C 
BRANCH   2   3
ATOM      3  C   UNL     1      35.155 -15.250 -22.816  0.00  0.00    +0.068 C 
BRANCH   3   8
ATOM      4  N   UNL     1      34.608 -17.655 -23.197  0.00  0.00    -0.219 N 
ATOM      5  N   UNL     1      34.109 -18.441 -24.161  0.00  0.00    -0.043 NA
ATOM      6  N   UNL     1      34.199 -16.327 -24.862  0.00  0.00    -0.113 NA
ATOM      7  N   UNL     1      33.860 -17.624 -25.177  0.00  0.00    -0.023 NA
ATOM      8  C   UNL     1      34.646 -16.396 -23.653  0.00  0.00    +0.161 A 
BRANCH   4   9
ATOM      9  C   UNL     1      35.007 -18.209 -21.898  0.00  0.00    +0.108 C 
ATOM     10  C   UNL     1      36.524 -18.454 -21.808  0.00  0.00    +0.024 C 
ATOM     11  C   UNL     1      34.208 -19.472 -21.532  0.00  0.00    +0.024 C 
ATOM     12  C   UNL     1      36.919 -19.001 -20.438  0.00  0.00    +0.002 C 
ATOM     13  C   UNL     1      34.619 -20.012 -20.164  0.00  0.00    +0.002 C 
ATOM     14  C   UNL     1      36.124 -20.255 -20.081  0.00  0.00    +0.000 C 
ENDBRANCH   4   9
ENDBRANCH   3   8
ENDBRANCH   2   3
ENDBRANCH   1   2
BRANCH   1  15
ATOM     15  C   UNL     1      32.848 -13.791 -20.203  0.00  0.00    +0.205 C 
BRANCH  15  16
ATOM     16  O   UNL     1      31.949 -13.033 -21.010  0.00  0.00    -0.475 OA
BRANCH  16  23
ATOM     17  O   UNL     1      31.675  -5.397 -21.027  0.00  0.00    -0.275 OA
ATOM     18  N   UNL     1      31.808  -7.538 -20.208  0.00  0.00    -0.284 N 
ATOM     19  C   UNL     1      31.866  -9.439 -21.722  0.00  0.00    -0.005 C 
ATOM     20  C   UNL     1      31.949  -8.490 -22.882  0.00  0.00    +0.037 C 
ATOM     21  C   UNL     1      31.838  -8.929 -20.418  0.00  0.00    +0.046 C 
ATOM     22  C   UNL     1      31.239  -7.183 -22.566  0.00  0.00    +0.090 C 
ATOM     23  C   UNL     1      31.929 -11.685 -20.816  0.00  0.00    +0.138 C 
ATOM     24  C   UNL     1      31.919 -10.824 -21.914  0.00  0.00    +0.034 C 
ATOM     25  C   UNL     1      31.625  -6.611 -21.216  0.00  0.00    +0.226 C 
ATOM     26  C   UNL     1      31.869  -9.789 -19.318  0.00  0.00    +0.017 C 
ATOM     27  C   UNL     1      31.907 -11.169 -19.521  0.00  0.00    +0.038 C 
ATOM     28  H   UNL     1      31.926  -7.206 -19.288  0.00  0.00    +0.155 HD
ENDBRANCH  16  23
ENDBRANCH  15  16
ENDBRANCH   1  15
TORSDOF 7
ENDMDL
MODEL 8
REMARK VINA RESULT:     -11.1      3.430     10.288
REMARK  Name = 2754
REMARK  7 active torsions:
REMARK  status: ('A' for Active; 'I' for Inactive)
REMARK    1  A    between atoms: C_1  and  C_2
REMARK    2  A    between atoms: C_1  and  C_15
REMARK    3  A    between atoms: C_2  and  C_3
REMARK    4  A    between atoms: C_3  and  C_8
REMARK    5  A    between atoms: N_4  and  C_9
REMARK    6  A    between atoms: C_15  and  O_16
REMARK    7  A    between atoms: O_16  and  C_23
REMARK                            x       y       z     vdW  Elec       q    Type
REMARK                         _______ _______ _______ _____ _____    ______ ____
ROOT
ATOM      1  C   UNL     1      35.626 -21.357 -18.440  0.00  0.00    +0.048 C 
ENDROOT
BRANCH   1   2
ATOM      2  C   UNL     1      34.178 -21.686 -18.797  0.00  0.00    +0.012 C 
BRANCH   2   3
ATOM      3  C   UNL     1      33.793 -23.088 -18.317  0.00  0.00    +0.068 C 
BRANCH   3   8
ATOM      4  N   UNL     1      33.454 -23.292 -15.853  0.00  0.00    -0.219 N 
ATOM      5  N   UNL     1      32.473 -23.160 -14.950  0.00  0.00    -0.043 NA
ATOM      6  N   UNL     1      31.696 -22.738 -16.996  0.00  0.00    -0.113 NA
ATOM      7  N   UNL     1      31.400 -22.821 -15.653  0.00  0.00    -0.023 NA
ATOM      8  C   UNL     1      32.951 -23.032 -17.066  0.00  0.00    +0.161 A 
BRANCH   4   9
ATOM      9  C   UNL     1      34.814 -23.665 -15.445  0.00  0.00    +0.108 C 
ATOM     10  C   UNL     1      34.820 -24.740 -14.346  0.00  0.00    +0.024 C 
ATOM     11  C   UNL     1      35.659 -22.443 -15.046  0.00  0.00    +0.024 C 
ATOM     12  C   UNL     1      36.245 -25.134 -13.960  0.00  0.00    +0.002 C 
ATOM     13  C   UNL     1      37.078 -22.852 -14.656  0.00  0.00    +0.002 C 
ATOM     14  C   UNL     1      37.077 -23.918 -13.563  0.00  0.00    +0.000 C 
ENDBRANCH   4   9
ENDBRANCH   3   8
ENDBRANCH   2   3
ENDBRANCH   1   2
BRANCH   1  15
ATOM     15  C   UNL     1      36.392 -20.819 -19.640  0.00  0.00    +0.205 C 
BRANCH  15  16
ATOM     16  O   UNL     1      36.204 -19.407 -19.712  0.00  0.00    -0.475 OA
BRANCH  16  23
ATOM     17  O   UNL     1      33.645 -15.638 -25.847  0.00  0.00    -0.275 OA
ATOM     18  N   UNL     1      34.090 -17.398 -24.440  0.00  0.00    -0.284 N 
ATOM     19  C   UNL     1      35.150 -17.020 -22.285  0.00  0.00    -0.005 C 
ATOM     20  C   UNL     1      35.044 -15.540 -22.512  0.00  0.00    +0.037 C 
ATOM     21  C   UNL     1      34.632 -17.901 -23.243  0.00  0.00    +0.046 C 
ATOM     22  C   UNL     1      35.108 -15.213 -23.996  0.00  0.00    +0.090 C 
ATOM     23  C   UNL     1      35.673 -18.911 -20.864  0.00  0.00    +0.138 C 
ATOM     24  C   UNL     1      35.665 -17.534 -21.090  0.00  0.00    +0.034 C 
ATOM     25  C   UNL     1      34.187 -16.077 -24.833  0.00  0.00    +0.226 C 
ATOM     26  C   UNL     1      34.622 -19.277 -23.010  0.00  0.00    +0.017 C 
ATOM     27  C   UNL     1      35.150 -19.781 -21.820  0.00  0.00    +0.038 C 
ATOM     28  H   UNL     1      33.613 -18.024 -25.032  0.00  0.00    +0.155 HD
ENDBRANCH  16  23
ENDBRANCH  15  16
ENDBRANCH   1  15
TORSDOF 7
ENDMDL
MODEL 9
REMARK VINA RESULT:     -10.9      2.517      9.776
REMARK  Name = 2754
REMARK  7 active torsions:
REMARK  status: ('A' for Active; 'I' for Inactive)
REMARK    1  A    between atoms: C_1  and  C_2
REMARK    2  A    between atoms: C_1  and  C_15
REMARK    3  A    between atoms: C_2  and  C_3
REMARK    4  A    between atoms: C_3  and  C_8
REMARK    5  A    between atoms: N_4  and  C_9
REMARK    6  A    between atoms: C_15  and  O_16
REMARK    7  A    between atoms: O_16  and  C_23
REMARK                            x       y       z     vdW  Elec       q    Type
REMARK                         _______ _______ _______ _____ _____    ______ ____
ROOT
ATOM      1  C   UNL     1      33.164 -23.111 -16.143  0.00  0.00    +0.048 C 
ENDROOT
BRANCH   1   2
ATOM      2  C   UNL     1      34.394 -23.179 -15.240  0.00  0.00    +0.012 C 
BRANCH   2   3
ATOM      3  C   UNL     1      34.465 -24.516 -14.498  0.00  0.00    +0.068 C 
BRANCH   3   8
ATOM      4  N   UNL     1      36.181 -24.565 -12.687  0.00  0.00    -0.219 N 
ATOM      5  N   UNL     1      36.278 -24.315 -11.374  0.00  0.00    -0.043 NA
ATOM      6  N   UNL     1      34.195 -23.946 -12.076  0.00  0.00    -0.113 NA
ATOM      7  N   UNL     1      35.061 -23.936 -11.005  0.00  0.00    -0.023 NA
ATOM      8  C   UNL     1      34.920 -24.333 -13.071  0.00  0.00    +0.161 A 
BRANCH   4   9
ATOM      9  C   UNL     1      37.346 -25.013 -13.461  0.00  0.00    +0.108 C 
ATOM     10  C   UNL     1      38.415 -25.676 -12.576  0.00  0.00    +0.024 C 
ATOM     11  C   UNL     1      37.943 -23.886 -14.321  0.00  0.00    +0.024 C 
ATOM     12  C   UNL     1      39.601 -26.162 -13.406  0.00  0.00    +0.002 C 
ATOM     13  C   UNL     1      39.133 -24.384 -15.140  0.00  0.00    +0.002 C 
ATOM     14  C   UNL     1      40.191 -25.039 -14.256  0.00  0.00    +0.000 C 
ENDBRANCH   4   9
ENDBRANCH   3   8
ENDBRANCH   2   3
ENDBRANCH   1   2
BRANCH   1  15
ATOM     15  C   UNL     1      33.518 -23.397 -17.595  0.00  0.00    +0.205 C 
BRANCH  15  16
ATOM     16  O   UNL     1      34.749 -22.749 -17.907  0.00  0.00    -0.475 OA
BRANCH  16  23
ATOM     17  O   UNL     1      35.557 -16.887 -22.742  0.00  0.00    -0.275 OA
ATOM     18  N   UNL     1      34.518 -18.486 -21.461  0.00  0.00    -0.284 N 
ATOM     19  C   UNL     1      35.820 -19.971 -20.042  0.00  0.00    -0.005 C 
ATOM     20  C   UNL     1      37.054 -19.184 -20.381  0.00  0.00    +0.037 C 
ATOM     21  C   UNL     1      34.584 -19.569 -20.566  0.00  0.00    +0.046 C 
ATOM     22  C   UNL     1      36.948 -18.583 -21.775  0.00  0.00    +0.090 C 
ATOM     23  C   UNL     1      34.693 -21.694 -18.767  0.00  0.00    +0.138 C 
ATOM     24  C   UNL     1      35.866 -21.034 -19.135  0.00  0.00    +0.034 C 
ATOM     25  C   UNL     1      35.628 -17.879 -22.017  0.00  0.00    +0.226 C 
ATOM     26  C   UNL     1      33.408 -20.216 -20.183  0.00  0.00    +0.017 C 
ATOM     27  C   UNL     1      33.467 -21.285 -19.288  0.00  0.00    +0.038 C 
ATOM     28  H   UNL     1      33.629 -18.140 -21.706  0.00  0.00    +0.155 HD
ENDBRANCH  16  23
ENDBRANCH  15  16
ENDBRANCH   1  15
TORSDOF 7
ENDMDL
