MODEL 1
REMARK VINA RESULT:     -11.9      0.000      0.000
REMARK  Name = 10200651
REMARK  5 active torsions:
REMARK  status: ('A' for Active; 'I' for Inactive)
REMARK    1  A    between atoms: C_1  and  C_7
REMARK    2  A    between atoms: C_4  and  C_22
REMARK    3  A    between atoms: C_10  and  C_17
REMARK    4  A    between atoms: N_21  and  C_24
REMARK    5  A    between atoms: C_27  and  C_31
REMARK                            x       y       z     vdW  Elec       q    Type
REMARK                         _______ _______ _______ _____ _____    ______ ____
ROOT
ATOM      1  C   UNL     1      34.839 -19.208 -21.301  0.00  0.00    -0.000 C 
ATOM      2  C   UNL     1      36.092 -19.536 -20.783  0.00  0.00    +0.000 C 
ATOM      3  C   UNL     1      33.691 -19.805 -20.784  0.00  0.00    +0.000 C 
ATOM      4  C   UNL     1      35.044 -21.040 -19.252  0.00  0.00    +0.054 C 
ATOM      5  C   UNL     1      36.195 -20.463 -19.746  0.00  0.00    +0.005 C 
ATOM      6  C   UNL     1      33.794 -20.732 -19.747  0.00  0.00    +0.005 C 
ENDROOT
BRANCH   1   7
ATOM      7  C   UNL     1      34.732 -18.246 -22.378  0.00  0.00    -0.004 C 
ATOM      8  C   UNL     1      34.684 -18.657 -23.711  0.00  0.00    -0.022 C 
ATOM      9  C   UNL     1      34.676 -16.885 -22.068  0.00  0.00    +0.004 C 
ATOM     10  C   UNL     1      34.574 -15.939 -23.088  0.00  0.00    +0.055 C 
ATOM     11  C   UNL     1      34.582 -17.710 -24.731  0.00  0.00    -0.004 C 
ATOM     12  C   UNL     1      34.526 -16.352 -24.420  0.00  0.00    +0.004 C 
ATOM     13  C   UNL     1      34.742 -20.103 -24.083  0.00  0.00    +0.031 C 
BRANCH  10  17
ATOM     14  O   UNL     1      34.088 -13.720 -23.764  0.00  0.00    -0.420 OA
ATOM     15  N   UNL     1      34.818 -13.910 -21.658  0.00  0.00    -0.107 NA
ATOM     16  N   UNL     1      34.578 -12.571 -21.908  0.00  0.00    -0.111 NA
ATOM     17  C   UNL     1      34.517 -14.534 -22.766  0.00  0.00    +0.250 A 
ATOM     18  C   UNL     1      34.155 -12.508 -23.149  0.00  0.00    +0.227 A 
ATOM     19  C   UNL     1      33.754 -11.340 -23.942  0.00  0.00    +0.097 C 
ENDBRANCH  10  17
ENDBRANCH   1   7
BRANCH   4  22
ATOM     20  O   UNL     1      34.510 -23.067 -18.244  0.00  0.00    -0.270 OA
ATOM     21  N   UNL     1      36.018 -21.669 -17.103  0.00  0.00    -0.280 N 
ATOM     22  C   UNL     1      35.154 -22.028 -18.147  0.00  0.00    +0.249 C 
ATOM     23  H   UNL     1      36.457 -20.791 -17.189  0.00  0.00    +0.155 HD
BRANCH  21  24
ATOM     24  C   UNL     1      36.335 -22.403 -15.959  0.00  0.00    +0.051 C 
ATOM     25  C   UNL     1      35.330 -22.772 -15.067  0.00  0.00    +0.025 C 
ATOM     26  C   UNL     1      37.658 -22.766 -15.709  0.00  0.00    +0.015 C 
ATOM     27  C   UNL     1      35.647 -23.506 -13.923  0.00  0.00    +0.070 C 
ATOM     28  C   UNL     1      37.976 -23.499 -14.566  0.00  0.00    +0.002 C 
ATOM     29  C   UNL     1      36.970 -23.868 -13.673  0.00  0.00    +0.010 C 
BRANCH  27  31
ATOM     30  N   UNL     1      33.780 -24.193 -12.264  0.00  0.00    -0.191 NA
ATOM     31  C   UNL     1      34.617 -23.885 -13.008  0.00  0.00    +0.100 C 
ENDBRANCH  27  31
ENDBRANCH  21  24
ENDBRANCH   4  22
TORSDOF 5
ENDMDL
MODEL 2
REMARK VINA RESULT:     -11.7      1.204      1.657
REMARK  Name = 10200651
REMARK  5 active torsions:
REMARK  status: ('A' for Active; 'I' for Inactive)
REMARK    1  A    between atoms: C_1  and  C_7
REMARK    2  A    between atoms: C_4  and  C_22
REMARK    3  A    between atoms: C_10  and  C_17
REMARK    4  A    between atoms: N_21  and  C_24
REMARK    5  A    between atoms: C_27  and  C_31
REMARK                            x       y       z     vdW  Elec       q    Type
REMARK                         _______ _______ _______ _____ _____    ______ ____
ROOT
ATOM      1  C   UNL     1      34.666 -19.493 -21.088  0.00  0.00    -0.000 C 
ATOM      2  C   UNL     1      35.870 -19.963 -20.563  0.00  0.00    +0.000 C 
ATOM      3  C   UNL     1      33.454 -19.975 -20.595  0.00  0.00    +0.000 C 
ATOM      4  C   UNL     1      34.649 -21.375 -19.074  0.00  0.00    +0.054 C 
ATOM      5  C   UNL     1      35.862 -20.915 -19.544  0.00  0.00    +0.005 C 
ATOM      6  C   UNL     1      33.446 -20.927 -19.575  0.00  0.00    +0.005 C 
ENDROOT
BRANCH   1   7
ATOM      7  C   UNL     1      34.675 -18.505 -22.145  0.00  0.00    -0.004 C 
ATOM      8  C   UNL     1      34.752 -18.884 -23.487  0.00  0.00    -0.022 C 
ATOM      9  C   UNL     1      34.605 -17.152 -21.809  0.00  0.00    +0.004 C 
ATOM     10  C   UNL     1      34.614 -16.180 -22.811  0.00  0.00    +0.055 C 
ATOM     11  C   UNL     1      34.761 -17.913 -24.488  0.00  0.00    -0.004 C 
ATOM     12  C   UNL     1      34.690 -16.562 -24.151  0.00  0.00    +0.004 C 
ATOM     13  C   UNL     1      34.828 -20.322 -23.887  0.00  0.00    +0.031 C 
BRANCH  10  17
ATOM     14  O   UNL     1      34.291 -13.932 -23.490  0.00  0.00    -0.420 OA
ATOM     15  N   UNL     1      34.685 -14.194 -21.304  0.00  0.00    -0.107 NA
ATOM     16  N   UNL     1      34.519 -12.844 -21.549  0.00  0.00    -0.111 NA
ATOM     17  C   UNL     1      34.543 -14.783 -22.462  0.00  0.00    +0.250 A 
ATOM     18  C   UNL     1      34.292 -12.738 -22.837  0.00  0.00    +0.227 A 
ATOM     19  C   UNL     1      34.046 -11.540 -23.649  0.00  0.00    +0.097 C 
ENDBRANCH  10  17
ENDBRANCH   1   7
BRANCH   4  22
ATOM     20  O   UNL     1      34.052 -23.446 -18.198  0.00  0.00    -0.270 OA
ATOM     21  N   UNL     1      35.338 -22.035 -16.826  0.00  0.00    -0.280 N 
ATOM     22  C   UNL     1      34.641 -22.391 -17.988  0.00  0.00    +0.249 C 
ATOM     23  H   UNL     1      35.754 -21.141 -16.829  0.00  0.00    +0.155 HD
BRANCH  21  24
ATOM     24  C   UNL     1      35.520 -22.790 -15.667  0.00  0.00    +0.051 C 
ATOM     25  C   UNL     1      36.795 -23.228 -15.312  0.00  0.00    +0.025 C 
ATOM     26  C   UNL     1      34.425 -23.106 -14.863  0.00  0.00    +0.015 C 
ATOM     27  C   UNL     1      36.976 -23.983 -14.153  0.00  0.00    +0.070 C 
ATOM     28  C   UNL     1      34.604 -23.861 -13.704  0.00  0.00    +0.002 C 
ATOM     29  C   UNL     1      35.880 -24.300 -13.350  0.00  0.00    +0.010 C 
BRANCH  27  31
ATOM     30  N   UNL     1      39.344 -24.798 -13.493  0.00  0.00    -0.191 NA
ATOM     31  C   UNL     1      38.282 -24.433 -13.789  0.00  0.00    +0.100 C 
ENDBRANCH  27  31
ENDBRANCH  21  24
ENDBRANCH   4  22
TORSDOF 5
ENDMDL
MODEL 3
REMARK VINA RESULT:     -11.2      5.048     13.859
REMARK  Name = 10200651
REMARK  5 active torsions:
REMARK  status: ('A' for Active; 'I' for Inactive)
REMARK    1  A    between atoms: C_1  and  C_7
REMARK    2  A    between atoms: C_4  and  C_22
REMARK    3  A    between atoms: C_10  and  C_17
REMARK    4  A    between atoms: N_21  and  C_24
REMARK    5  A    between atoms: C_27  and  C_31
REMARK                            x       y       z     vdW  Elec       q    Type
REMARK                         _______ _______ _______ _____ _____    ______ ____
ROOT
ATOM      1  C   UNL     1      33.690 -11.652 -23.440  0.00  0.00    -0.000 C 
ATOM      2  C   UNL     1      34.570 -10.720 -23.991  0.00  0.00    +0.000 C 
ATOM      3  C   UNL     1      32.666 -11.229 -22.594  0.00  0.00    +0.000 C 
ATOM      4  C   UNL     1      33.403  -8.973 -22.856  0.00  0.00    +0.054 C 
ATOM      5  C   UNL     1      34.425  -9.365 -23.696  0.00  0.00    +0.005 C 
ATOM      6  C   UNL     1      32.520  -9.874 -22.299  0.00  0.00    +0.005 C 
ENDROOT
BRANCH   1   7
ATOM      7  C   UNL     1      33.841 -13.058 -23.746  0.00  0.00    -0.004 C 
ATOM      8  C   UNL     1      33.573 -13.552 -25.024  0.00  0.00    -0.022 C 
ATOM      9  C   UNL     1      34.263 -13.930 -22.740  0.00  0.00    +0.004 C 
ATOM     10  C   UNL     1      34.415 -15.290 -23.010  0.00  0.00    +0.055 C 
ATOM     11  C   UNL     1      33.725 -14.912 -25.294  0.00  0.00    -0.004 C 
ATOM     12  C   UNL     1      34.147 -15.780 -24.288  0.00  0.00    +0.004 C 
ATOM     13  C   UNL     1      33.119 -12.652 -26.127  0.00  0.00    +0.031 C 
BRANCH  10  17
ATOM     14  O   UNL     1      34.931 -17.498 -22.319  0.00  0.00    -0.420 OA
ATOM     15  N   UNL     1      35.181 -15.945 -20.729  0.00  0.00    -0.107 NA
ATOM     16  N   UNL     1      35.515 -17.172 -20.185  0.00  0.00    -0.111 NA
ATOM     17  C   UNL     1      34.850 -16.188 -21.969  0.00  0.00    +0.250 A 
ATOM     18  C   UNL     1      35.353 -18.048 -21.148  0.00  0.00    +0.227 A 
ATOM     19  C   UNL     1      35.560 -19.501 -21.136  0.00  0.00    +0.097 C 
ENDBRANCH  10  17
ENDBRANCH   1   7
BRANCH   4  22
ATOM     20  O   UNL     1      34.155  -6.979 -21.924  0.00  0.00    -0.270 OA
ATOM     21  N   UNL     1      32.071  -6.933 -23.012  0.00  0.00    -0.280 N 
ATOM     22  C   UNL     1      33.249  -7.528 -22.541  0.00  0.00    +0.249 C 
ATOM     23  H   UNL     1      31.448  -7.527 -23.491  0.00  0.00    +0.155 HD
BRANCH  21  24
ATOM     24  C   UNL     1      31.672  -5.601 -22.888  0.00  0.00    +0.051 C 
ATOM     25  C   UNL     1      31.714  -4.755 -23.995  0.00  0.00    +0.025 C 
ATOM     26  C   UNL     1      31.232  -5.117 -21.656  0.00  0.00    +0.015 C 
ATOM     27  C   UNL     1      31.315  -3.423 -23.872  0.00  0.00    +0.070 C 
ATOM     28  C   UNL     1      30.834  -3.786 -21.531  0.00  0.00    +0.002 C 
ATOM     29  C   UNL     1      30.876  -2.940 -22.639  0.00  0.00    +0.010 C 
BRANCH  27  31
ATOM     30  N   UNL     1      31.392  -1.850 -25.928  0.00  0.00    -0.191 NA
ATOM     31  C   UNL     1      31.358  -2.556 -25.005  0.00  0.00    +0.100 C 
ENDBRANCH  27  31
ENDBRANCH  21  24
ENDBRANCH   4  22
TORSDOF 5
ENDMDL
MODEL 4
REMARK VINA RESULT:     -11.1      2.580     10.988
REMARK  Name = 10200651
REMARK  5 active torsions:
REMARK  status: ('A' for Active; 'I' for Inactive)
REMARK    1  A    between atoms: C_1  and  C_7
REMARK    2  A    between atoms: C_4  and  C_22
REMARK    3  A    between atoms: C_10  and  C_17
REMARK    4  A    between atoms: N_21  and  C_24
REMARK    5  A    between atoms: C_27  and  C_31
REMARK                            x       y       z     vdW  Elec       q    Type
REMARK                         _______ _______ _______ _____ _____    ______ ____
ROOT
ATOM      1  C   UNL     1      34.141 -22.656 -16.844  0.00  0.00    -0.000 C 
ATOM      2  C   UNL     1      35.207 -22.103 -17.554  0.00  0.00    +0.000 C 
ATOM      3  C   UNL     1      32.832 -22.450 -17.278  0.00  0.00    +0.000 C 
ATOM      4  C   UNL     1      33.660 -21.154 -19.105  0.00  0.00    +0.054 C 
ATOM      5  C   UNL     1      34.964 -21.343 -18.698  0.00  0.00    +0.005 C 
ATOM      6  C   UNL     1      32.589 -21.690 -18.422  0.00  0.00    +0.005 C 
ENDROOT
BRANCH   1   7
ATOM      7  C   UNL     1      34.394 -23.445 -15.657  0.00  0.00    -0.004 C 
ATOM      8  C   UNL     1      33.461 -23.510 -14.621  0.00  0.00    -0.022 C 
ATOM      9  C   UNL     1      35.595 -24.150 -15.555  0.00  0.00    +0.004 C 
ATOM     10  C   UNL     1      35.862 -24.915 -14.420  0.00  0.00    +0.055 C 
ATOM     11  C   UNL     1      33.728 -24.275 -13.486  0.00  0.00    -0.004 C 
ATOM     12  C   UNL     1      34.928 -24.979 -13.386  0.00  0.00    +0.004 C 
ATOM     13  C   UNL     1      32.164 -22.770 -14.693  0.00  0.00    +0.031 C 
BRANCH  10  17
ATOM     14  O   UNL     1      38.214 -24.885 -14.121  0.00  0.00    -0.420 OA
ATOM     15  N   UNL     1      37.337 -26.927 -14.381  0.00  0.00    -0.107 NA
ATOM     16  N   UNL     1      38.703 -27.066 -14.219  0.00  0.00    -0.111 NA
ATOM     17  C   UNL     1      37.103 -25.642 -14.315  0.00  0.00    +0.250 A 
ATOM     18  C   UNL     1      39.173 -25.849 -14.072  0.00  0.00    +0.227 A 
ATOM     19  C   UNL     1      40.554 -25.398 -13.866  0.00  0.00    +0.097 C 
ENDBRANCH  10  17
ENDBRANCH   1   7
BRANCH   4  22
ATOM     20  O   UNL     1      32.241 -20.250 -20.711  0.00  0.00    -0.270 OA
ATOM     21  N   UNL     1      34.530 -19.744 -20.898  0.00  0.00    -0.280 N 
ATOM     22  C   UNL     1      33.401 -20.344 -20.324  0.00  0.00    +0.249 C 
ATOM     23  H   UNL     1      35.389 -19.928 -20.454  0.00  0.00    +0.155 HD
BRANCH  21  24
ATOM     24  C   UNL     1      34.586 -18.916 -22.020  0.00  0.00    +0.051 C 
ATOM     25  C   UNL     1      34.718 -17.537 -21.864  0.00  0.00    +0.025 C 
ATOM     26  C   UNL     1      34.511 -19.469 -23.299  0.00  0.00    +0.015 C 
ATOM     27  C   UNL     1      34.774 -16.709 -22.986  0.00  0.00    +0.070 C 
ATOM     28  C   UNL     1      34.567 -18.643 -24.421  0.00  0.00    +0.002 C 
ATOM     29  C   UNL     1      34.698 -17.263 -24.264  0.00  0.00    +0.010 C 
BRANCH  27  31
ATOM     30  N   UNL     1      35.017 -14.147 -22.696  0.00  0.00    -0.191 NA
ATOM     31  C   UNL     1      34.908 -15.296 -22.826  0.00  0.00    +0.100 C 
ENDBRANCH  27  31
ENDBRANCH  21  24
ENDBRANCH   4  22
TORSDOF 5
ENDMDL
MODEL 5
REMARK VINA RESULT:     -11.1      2.432     11.019
REMARK  Name = 10200651
REMARK  5 active torsions:
REMARK  status: ('A' for Active; 'I' for Inactive)
REMARK    1  A    between atoms: C_1  and  C_7
REMARK    2  A    between atoms: C_4  and  C_22
REMARK    3  A    between atoms: C_10  and  C_17
REMARK    4  A    between atoms: N_21  and  C_24
REMARK    5  A    between atoms: C_27  and  C_31
REMARK                            x       y       z     vdW  Elec       q    Type
REMARK                         _______ _______ _______ _____ _____    ______ ____
ROOT
ATOM      1  C   UNL     1      35.216 -22.317 -17.121  0.00  0.00    -0.000 C 
ATOM      2  C   UNL     1      36.444 -21.672 -17.273  0.00  0.00    +0.000 C 
ATOM      3  C   UNL     1      34.202 -22.116 -18.057  0.00  0.00    +0.000 C 
ATOM      4  C   UNL     1      35.639 -20.646 -19.274  0.00  0.00    +0.054 C 
ATOM      5  C   UNL     1      36.658 -20.828 -18.362  0.00  0.00    +0.005 C 
ATOM      6  C   UNL     1      34.416 -21.271 -19.146  0.00  0.00    +0.005 C 
ENDROOT
BRANCH   1   7
ATOM      7  C   UNL     1      34.994 -23.193 -15.991  0.00  0.00    -0.004 C 
ATOM      8  C   UNL     1      33.704 -23.476 -15.539  0.00  0.00    -0.022 C 
ATOM      9  C   UNL     1      36.095 -23.762 -15.348  0.00  0.00    +0.004 C 
ATOM     10  C   UNL     1      35.907 -24.609 -14.256  0.00  0.00    +0.055 C 
ATOM     11  C   UNL     1      33.516 -24.323 -14.447  0.00  0.00    -0.004 C 
ATOM     12  C   UNL     1      34.617 -24.890 -13.806  0.00  0.00    +0.004 C 
ATOM     13  C   UNL     1      32.500 -22.887 -16.200  0.00  0.00    +0.031 C 
BRANCH  10  17
ATOM     14  O   UNL     1      38.223 -25.118 -14.266  0.00  0.00    -0.420 OA
ATOM     15  N   UNL     1      37.131 -25.798 -12.436  0.00  0.00    -0.107 NA
ATOM     16  N   UNL     1      38.457 -26.161 -12.301  0.00  0.00    -0.111 NA
ATOM     17  C   UNL     1      37.046 -25.195 -13.592  0.00  0.00    +0.250 A 
ATOM     18  C   UNL     1      39.056 -25.745 -13.392  0.00  0.00    +0.227 A 
ATOM     19  C   UNL     1      40.465 -25.860 -13.788  0.00  0.00    +0.097 C 
ENDBRANCH  10  17
ENDBRANCH   1   7
BRANCH   4  22
ATOM     20  O   UNL     1      37.024 -19.436 -20.697  0.00  0.00    -0.270 OA
ATOM     21  N   UNL     1      34.714 -19.355 -21.128  0.00  0.00    -0.280 N 
ATOM     22  C   UNL     1      35.867 -19.745 -20.433  0.00  0.00    +0.249 C 
ATOM     23  H   UNL     1      33.861 -19.698 -20.774  0.00  0.00    +0.155 HD
BRANCH  21  24
ATOM     24  C   UNL     1      34.626 -18.542 -22.259  0.00  0.00    +0.051 C 
ATOM     25  C   UNL     1      34.746 -17.159 -22.135  0.00  0.00    +0.025 C 
ATOM     26  C   UNL     1      34.417 -19.115 -23.513  0.00  0.00    +0.015 C 
ATOM     27  C   UNL     1      34.657 -16.347 -23.266  0.00  0.00    +0.070 C 
ATOM     28  C   UNL     1      34.328 -18.304 -24.645  0.00  0.00    +0.002 C 
ATOM     29  C   UNL     1      34.448 -16.920 -24.520  0.00  0.00    +0.010 C 
BRANCH  27  31
ATOM     30  N   UNL     1      34.880 -13.776 -23.037  0.00  0.00    -0.191 NA
ATOM     31  C   UNL     1      34.780 -14.929 -23.140  0.00  0.00    +0.100 C 
ENDBRANCH  27  31
ENDBRANCH  21  24
ENDBRANCH   4  22
TORSDOF 5
ENDMDL
MODEL 6
REMARK VINA RESULT:     -11.0      1.895      2.312
REMARK  Name = 10200651
REMARK  5 active torsions:
REMARK  status: ('A' for Active; 'I' for Inactive)
REMARK    1  A    between atoms: C_1  and  C_7
REMARK    2  A    between atoms: C_4  and  C_22
REMARK    3  A    between atoms: C_10  and  C_17
REMARK    4  A    between atoms: N_21  and  C_24
REMARK    5  A    between atoms: C_27  and  C_31
REMARK                            x       y       z     vdW  Elec       q    Type
REMARK                         _______ _______ _______ _____ _____    ______ ____
ROOT
ATOM      1  C   UNL     1      34.598 -19.374 -21.220  0.00  0.00    -0.000 C 
ATOM      2  C   UNL     1      35.799 -19.780 -20.639  0.00  0.00    +0.000 C 
ATOM      3  C   UNL     1      33.386 -19.859 -20.730  0.00  0.00    +0.000 C 
ATOM      4  C   UNL     1      34.577 -21.137 -19.101  0.00  0.00    +0.054 C 
ATOM      5  C   UNL     1      35.789 -20.672 -19.567  0.00  0.00    +0.005 C 
ATOM      6  C   UNL     1      33.376 -20.752 -19.658  0.00  0.00    +0.005 C 
ENDROOT
BRANCH   1   7
ATOM      7  C   UNL     1      34.609 -18.448 -22.332  0.00  0.00    -0.004 C 
ATOM      8  C   UNL     1      34.672 -18.904 -23.650  0.00  0.00    -0.022 C 
ATOM      9  C   UNL     1      34.555 -17.077 -22.074  0.00  0.00    +0.004 C 
ATOM     10  C   UNL     1      34.566 -16.165 -23.129  0.00  0.00    +0.055 C 
ATOM     11  C   UNL     1      34.683 -17.992 -24.706  0.00  0.00    -0.004 C 
ATOM     12  C   UNL     1      34.629 -16.623 -24.446  0.00  0.00    +0.004 C 
ATOM     13  C   UNL     1      34.731 -20.363 -23.968  0.00  0.00    +0.031 C 
BRANCH  10  17
ATOM     14  O   UNL     1      34.130 -13.967 -23.903  0.00  0.00    -0.420 OA
ATOM     15  N   UNL     1      34.774 -14.087 -21.764  0.00  0.00    -0.107 NA
ATOM     16  N   UNL     1      34.559 -12.757 -22.071  0.00  0.00    -0.111 NA
ATOM     17  C   UNL     1      34.511 -14.749 -22.860  0.00  0.00    +0.250 A 
ATOM     18  C   UNL     1      34.186 -12.734 -23.329  0.00  0.00    +0.227 A 
ATOM     19  C   UNL     1      33.829 -11.592 -24.179  0.00  0.00    +0.097 C 
ENDBRANCH  10  17
ENDBRANCH   1   7
BRANCH   4  22
ATOM     20  O   UNL     1      35.615 -22.660 -17.682  0.00  0.00    -0.270 OA
ATOM     21  N   UNL     1      33.339 -22.217 -17.295  0.00  0.00    -0.280 N 
ATOM     22  C   UNL     1      34.566 -22.089 -17.959  0.00  0.00    +0.249 C 
ATOM     23  H   UNL     1      32.595 -21.680 -17.654  0.00  0.00    +0.155 HD
BRANCH  21  24
ATOM     24  C   UNL     1      33.041 -23.008 -16.185  0.00  0.00    +0.051 C 
ATOM     25  C   UNL     1      31.724 -23.390 -15.934  0.00  0.00    +0.025 C 
ATOM     26  C   UNL     1      34.061 -23.418 -15.327  0.00  0.00    +0.015 C 
ATOM     27  C   UNL     1      31.426 -24.182 -14.824  0.00  0.00    +0.070 C 
ATOM     28  C   UNL     1      33.765 -24.209 -14.217  0.00  0.00    +0.002 C 
ATOM     29  C   UNL     1      32.447 -24.590 -13.966  0.00  0.00    +0.010 C 
BRANCH  27  31
ATOM     30  N   UNL     1      28.979 -24.891 -14.356  0.00  0.00    -0.191 NA
ATOM     31  C   UNL     1      30.076 -24.573 -14.566  0.00  0.00    +0.100 C 
ENDBRANCH  27  31
ENDBRANCH  21  24
ENDBRANCH   4  22
TORSDOF 5
ENDMDL
MODEL 7
REMARK VINA RESULT:     -11.0      2.255     10.680
REMARK  Name = 10200651
REMARK  5 active torsions:
REMARK  status: ('A' for Active; 'I' for Inactive)
REMARK    1  A    between atoms: C_1  and  C_7
REMARK    2  A    between atoms: C_4  and  C_22
REMARK    3  A    between atoms: C_10  and  C_17
REMARK    4  A    between atoms: N_21  and  C_24
REMARK    5  A    between atoms: C_27  and  C_31
REMARK                            x       y       z     vdW  Elec       q    Type
REMARK                         _______ _______ _______ _____ _____    ______ ____
ROOT
ATOM      1  C   UNL     1      35.704 -22.178 -16.872  0.00  0.00    -0.000 C 
ATOM      2  C   UNL     1      36.823 -21.354 -16.996  0.00  0.00    +0.000 C 
ATOM      3  C   UNL     1      34.736 -22.196 -17.875  0.00  0.00    +0.000 C 
ATOM      4  C   UNL     1      36.001 -20.586 -19.103  0.00  0.00    +0.054 C 
ATOM      5  C   UNL     1      36.974 -20.549 -18.125  0.00  0.00    +0.005 C 
ATOM      6  C   UNL     1      34.886 -21.391 -19.004  0.00  0.00    +0.005 C 
ENDROOT
BRANCH   1   7
ATOM      7  C   UNL     1      35.548 -23.014 -15.701  0.00  0.00    -0.004 C 
ATOM      8  C   UNL     1      36.658 -23.513 -15.017  0.00  0.00    -0.022 C 
ATOM      9  C   UNL     1      34.261 -23.321 -15.254  0.00  0.00    +0.004 C 
ATOM     10  C   UNL     1      34.084 -24.126 -14.128  0.00  0.00    +0.055 C 
ATOM     11  C   UNL     1      36.481 -24.318 -13.891  0.00  0.00    -0.004 C 
ATOM     12  C   UNL     1      35.195 -24.623 -13.446  0.00  0.00    +0.004 C 
ATOM     13  C   UNL     1      38.050 -23.208 -15.464  0.00  0.00    +0.031 C 
BRANCH  10  17
ATOM     14  O   UNL     1      31.763 -24.282 -14.582  0.00  0.00    -0.420 OA
ATOM     15  N   UNL     1      32.343 -24.861 -12.500  0.00  0.00    -0.107 NA
ATOM     16  N   UNL     1      30.973 -25.000 -12.616  0.00  0.00    -0.111 NA
ATOM     17  C   UNL     1      32.755 -24.442 -13.668  0.00  0.00    +0.250 A 
ATOM     18  C   UNL     1      30.679 -24.651 -13.846  0.00  0.00    +0.227 A 
ATOM     19  C   UNL     1      29.376 -24.605 -14.520  0.00  0.00    +0.097 C 
ENDBRANCH  10  17
ENDBRANCH   1   7
BRANCH   4  22
ATOM     20  O   UNL     1      37.302 -19.453 -20.663  0.00  0.00    -0.270 OA
ATOM     21  N   UNL     1      34.969 -19.331 -20.925  0.00  0.00    -0.280 N 
ATOM     22  C   UNL     1      36.162 -19.727 -20.305  0.00  0.00    +0.249 C 
ATOM     23  H   UNL     1      34.137 -19.643 -20.499  0.00  0.00    +0.155 HD
BRANCH  21  24
ATOM     24  C   UNL     1      34.814 -18.552 -22.073  0.00  0.00    +0.051 C 
ATOM     25  C   UNL     1      34.890 -17.163 -21.988  0.00  0.00    +0.025 C 
ATOM     26  C   UNL     1      34.584 -19.164 -23.304  0.00  0.00    +0.015 C 
ATOM     27  C   UNL     1      34.735 -16.384 -23.136  0.00  0.00    +0.070 C 
ATOM     28  C   UNL     1      34.428 -18.387 -24.452  0.00  0.00    +0.002 C 
ATOM     29  C   UNL     1      34.503 -16.997 -24.367  0.00  0.00    +0.010 C 
BRANCH  27  31
ATOM     30  N   UNL     1      34.875 -13.802 -22.979  0.00  0.00    -0.191 NA
ATOM     31  C   UNL     1      34.812 -14.960 -23.049  0.00  0.00    +0.100 C 
ENDBRANCH  27  31
ENDBRANCH  21  24
ENDBRANCH   4  22
TORSDOF 5
ENDMDL
MODEL 8
REMARK VINA RESULT:     -11.0      4.103     12.497
REMARK  Name = 10200651
REMARK  5 active torsions:
REMARK  status: ('A' for Active; 'I' for Inactive)
REMARK    1  A    between atoms: C_1  and  C_7
REMARK    2  A    between atoms: C_4  and  C_22
REMARK    3  A    between atoms: C_10  and  C_17
REMARK    4  A    between atoms: N_21  and  C_24
REMARK    5  A    between atoms: C_27  and  C_31
REMARK                            x       y       z     vdW  Elec       q    Type
REMARK                         _______ _______ _______ _____ _____    ______ ____
ROOT
ATOM      1  C   UNL     1      33.666 -13.700 -22.901  0.00  0.00    -0.000 C 
ATOM      2  C   UNL     1      32.714 -13.536 -21.895  0.00  0.00    +0.000 C 
ATOM      3  C   UNL     1      34.178 -12.586 -23.566  0.00  0.00    +0.000 C 
ATOM      4  C   UNL     1      32.796 -11.172 -22.227  0.00  0.00    +0.054 C 
ATOM      5  C   UNL     1      32.274 -12.257 -21.554  0.00  0.00    +0.005 C 
ATOM      6  C   UNL     1      33.738 -11.308 -23.225  0.00  0.00    +0.005 C 
ENDROOT
BRANCH   1   7
ATOM      7  C   UNL     1      34.123 -15.027 -23.254  0.00  0.00    -0.004 C 
ATOM      8  C   UNL     1      34.036 -15.494 -24.567  0.00  0.00    -0.022 C 
ATOM      9  C   UNL     1      34.658 -15.847 -22.259  0.00  0.00    +0.004 C 
ATOM     10  C   UNL     1      35.104 -17.131 -22.575  0.00  0.00    +0.055 C 
ATOM     11  C   UNL     1      34.482 -16.778 -24.883  0.00  0.00    -0.004 C 
ATOM     12  C   UNL     1      35.017 -17.596 -23.888  0.00  0.00    +0.004 C 
ATOM     13  C   UNL     1      33.469 -14.647 -25.660  0.00  0.00    +0.031 C 
BRANCH  10  17
ATOM     14  O   UNL     1      34.914 -19.066 -21.219  0.00  0.00    -0.420 OA
ATOM     15  N   UNL     1      36.767 -17.864 -20.866  0.00  0.00    -0.107 NA
ATOM     16  N   UNL     1      36.794 -18.950 -20.012  0.00  0.00    -0.111 NA
ATOM     17  C   UNL     1      35.656 -17.977 -21.546  0.00  0.00    +0.250 A 
ATOM     18  C   UNL     1      35.693 -19.623 -20.252  0.00  0.00    +0.227 A 
ATOM     19  C   UNL     1      35.200 -20.861 -19.637  0.00  0.00    +0.097 C 
ENDBRANCH  10  17
ENDBRANCH   1   7
BRANCH   4  22
ATOM     20  O   UNL     1      31.396  -9.719 -21.070  0.00  0.00    -0.270 OA
ATOM     21  N   UNL     1      33.024  -8.753 -22.464  0.00  0.00    -0.280 N 
ATOM     22  C   UNL     1      32.326  -9.810 -21.864  0.00  0.00    +0.249 C 
ATOM     23  H   UNL     1      33.747  -9.009 -23.081  0.00  0.00    +0.155 HD
BRANCH  21  24
ATOM     24  C   UNL     1      32.823  -7.383 -22.292  0.00  0.00    +0.051 C 
ATOM     25  C   UNL     1      32.616  -6.564 -23.402  0.00  0.00    +0.025 C 
ATOM     26  C   UNL     1      32.828  -6.833 -21.011  0.00  0.00    +0.015 C 
ATOM     27  C   UNL     1      32.415  -5.194 -23.230  0.00  0.00    +0.070 C 
ATOM     28  C   UNL     1      32.627  -5.463 -20.838  0.00  0.00    +0.002 C 
ATOM     29  C   UNL     1      32.421  -4.644 -21.948  0.00  0.00    +0.010 C 
BRANCH  27  31
ATOM     30  N   UNL     1      32.031  -3.671 -25.290  0.00  0.00    -0.191 NA
ATOM     31  C   UNL     1      32.203  -4.354 -24.366  0.00  0.00    +0.100 C 
ENDBRANCH  27  31
ENDBRANCH  21  24
ENDBRANCH   4  22
TORSDOF 5
ENDMDL
MODEL 9
REMARK VINA RESULT:     -10.9      3.287      4.305
REMARK  Name = 10200651
REMARK  5 active torsions:
REMARK  status: ('A' for Active; 'I' for Inactive)
REMARK    1  A    between atoms: C_1  and  C_7
REMARK    2  A    between atoms: C_4  and  C_22
REMARK    3  A    between atoms: C_10  and  C_17
REMARK    4  A    between atoms: N_21  and  C_24
REMARK    5  A    between atoms: C_27  and  C_31
REMARK                            x       y       z     vdW  Elec       q    Type
REMARK                         _______ _______ _______ _____ _____    ______ ____
ROOT
ATOM      1  C   UNL     1      34.616 -20.154 -20.114  0.00  0.00    -0.000 C 
ATOM      2  C   UNL     1      35.362 -21.072 -19.375  0.00  0.00    +0.000 C 
ATOM      3  C   UNL     1      33.228 -20.117 -19.984  0.00  0.00    +0.000 C 
ATOM      4  C   UNL     1      33.346 -21.895 -18.395  0.00  0.00    +0.054 C 
ATOM      5  C   UNL     1      34.720 -21.953 -18.505  0.00  0.00    +0.005 C 
ATOM      6  C   UNL     1      32.586 -20.997 -19.114  0.00  0.00    +0.005 C 
ENDROOT
BRANCH   1   7
ATOM      7  C   UNL     1      35.282 -19.240 -21.017  0.00  0.00    -0.004 C 
ATOM      8  C   UNL     1      36.650 -18.983 -20.904  0.00  0.00    -0.022 C 
ATOM      9  C   UNL     1      34.537 -18.608 -22.014  0.00  0.00    +0.004 C 
ATOM     10  C   UNL     1      35.157 -17.722 -22.896  0.00  0.00    +0.055 C 
ATOM     11  C   UNL     1      37.270 -18.097 -21.786  0.00  0.00    -0.004 C 
ATOM     12  C   UNL     1      36.524 -17.467 -22.782  0.00  0.00    +0.004 C 
ATOM     13  C   UNL     1      37.482 -19.639 -19.850  0.00  0.00    +0.031 C 
BRANCH  10  17
ATOM     14  O   UNL     1      34.302 -15.717 -23.829  0.00  0.00    -0.420 OA
ATOM     15  N   UNL     1      33.744 -17.574 -24.946  0.00  0.00    -0.107 NA
ATOM     16  N   UNL     1      33.179 -16.495 -25.601  0.00  0.00    -0.111 NA
ATOM     17  C   UNL     1      34.386 -17.069 -23.925  0.00  0.00    +0.250 A 
ATOM     18  C   UNL     1      33.530 -15.434 -24.914  0.00  0.00    +0.227 A 
ATOM     19  C   UNL     1      33.214 -14.020 -25.149  0.00  0.00    +0.097 C 
ENDBRANCH  10  17
ENDBRANCH   1   7
BRANCH   4  22
ATOM     20  O   UNL     1      33.256 -23.860 -17.154  0.00  0.00    -0.270 OA
ATOM     21  N   UNL     1      31.395 -22.429 -17.028  0.00  0.00    -0.280 N 
ATOM     22  C   UNL     1      32.662 -22.835 -17.468  0.00  0.00    +0.249 C 
ATOM     23  H   UNL     1      31.068 -21.571 -17.385  0.00  0.00    +0.155 HD
BRANCH  21  24
ATOM     24  C   UNL     1      30.540 -23.089 -16.145  0.00  0.00    +0.051 C 
ATOM     25  C   UNL     1      31.050 -23.677 -14.988  0.00  0.00    +0.025 C 
ATOM     26  C   UNL     1      29.174 -23.160 -16.418  0.00  0.00    +0.015 C 
ATOM     27  C   UNL     1      30.195 -24.338 -14.105  0.00  0.00    +0.070 C 
ATOM     28  C   UNL     1      28.318 -23.820 -15.536  0.00  0.00    +0.002 C 
ATOM     29  C   UNL     1      28.830 -24.409 -14.380  0.00  0.00    +0.010 C 
BRANCH  27  31
ATOM     30  N   UNL     1      31.143 -25.431 -11.957  0.00  0.00    -0.191 NA
ATOM     31  C   UNL     1      30.718 -24.941 -12.920  0.00  0.00    +0.100 C 
ENDBRANCH  27  31
ENDBRANCH  21  24
ENDBRANCH   4  22
TORSDOF 5
ENDMDL
