MODEL 1
REMARK VINA RESULT:     -12.0      0.000      0.000
REMARK  Name = 444746
REMARK  6 active torsions:
REMARK  status: ('A' for Active; 'I' for Inactive)
REMARK    1  A    between atoms: C_1  and  C_9
REMARK    2  A    between atoms: C_1  and  N_13
REMARK    3  A    between atoms: C_1  and  C_27
REMARK    4  A    between atoms: C_4  and  O_10
REMARK    5  A    between atoms: C_14  and  C_18
REMARK    6  A    between atoms: C_27  and  C_29
REMARK                            x       y       z     vdW  Elec       q    Type
REMARK                         _______ _______ _______ _____ _____    ______ ____
ROOT
ATOM      1  C   UNL     1      35.174 -22.598 -15.395  0.00  0.00    +0.153 C 
ENDROOT
BRANCH   1   9
ATOM      2  O   UNL     1      37.377 -23.168 -16.054  0.00  0.00    -0.273 OA
ATOM      3  N   UNL     1      36.845 -23.506 -13.818  0.00  0.00    -0.278 N 
ATOM      4  C   UNL     1      37.180 -25.328 -11.597  0.00  0.00    +0.114 C 
ATOM      5  C   UNL     1      38.130 -25.342 -12.796  0.00  0.00    +0.051 C 
ATOM      6  C   UNL     1      35.801 -24.812 -12.007  0.00  0.00    +0.051 C 
ATOM      7  C   UNL     1      38.188 -23.974 -13.469  0.00  0.00    +0.096 C 
ATOM      8  C   UNL     1      35.899 -23.453 -12.695  0.00  0.00    +0.096 C 
ATOM      9  C   UNL     1      36.565 -23.114 -15.127  0.00  0.00    +0.244 C 
BRANCH   4  10
ATOM     10  O   UNL     1      37.041 -26.644 -11.077  0.00  0.00    -0.384 OA
ATOM     11  H   UNL     1      37.375 -27.285 -11.725  0.00  0.00    +0.210 HD
ENDBRANCH   4  10
ENDBRANCH   1   9
BRANCH   1  13
ATOM     12  O   UNL     1      34.410 -23.280 -18.022  0.00  0.00    -0.269 OA
ATOM     13  N   UNL     1      35.340 -21.774 -16.557  0.00  0.00    -0.294 N 
ATOM     14  C   UNL     1      34.935 -22.181 -17.833  0.00  0.00    +0.260 C 
ATOM     15  H   UNL     1      35.755 -20.887 -16.454  0.00  0.00    +0.150 HD
BRANCH  14  18
ATOM     16 CL   UNL     1      34.970 -17.292 -23.738  0.00  0.00    -0.082 Cl
ATOM     17  N   UNL     1      36.330 -20.615 -19.130  0.00  0.00    -0.309 N 
ATOM     18  C   UNL     1      35.143 -21.213 -18.918  0.00  0.00    +0.102 C 
ATOM     19  C   UNL     1      34.228 -20.794 -19.819  0.00  0.00    +0.020 C 
ATOM     20  C   UNL     1      34.895 -19.861 -20.662  0.00  0.00    +0.016 C 
ATOM     21  C   UNL     1      36.212 -19.767 -20.208  0.00  0.00    +0.048 C 
ATOM     22  C   UNL     1      34.503 -19.085 -21.771  0.00  0.00    +0.013 C 
ATOM     23  C   UNL     1      37.161 -18.933 -20.810  0.00  0.00    +0.015 C 
ATOM     24  C   UNL     1      35.441 -18.244 -22.383  0.00  0.00    +0.058 C 
ATOM     25  C   UNL     1      36.748 -18.172 -21.908  0.00  0.00    +0.013 C 
ATOM     26  H   UNL     1      37.149 -20.761 -18.602  0.00  0.00    +0.152 HD
ENDBRANCH  14  18
ENDBRANCH   1  13
BRANCH   1  27
ATOM     27  C   UNL     1      34.215 -23.761 -15.614  0.00  0.00    +0.055 C 
BRANCH  27  29
ATOM     28  F   UNL     1      28.962 -22.499 -14.062  0.00  0.00    -0.204 F 
ATOM     29  C   UNL     1      32.806 -23.422 -15.197  0.00  0.00    -0.020 C 
ATOM     30  C   UNL     1      32.492 -23.356 -13.849  0.00  0.00    -0.002 C 
ATOM     31  C   UNL     1      31.847 -23.184 -16.171  0.00  0.00    -0.002 C 
ATOM     32  C   UNL     1      31.188 -23.044 -13.464  0.00  0.00    +0.029 C 
ATOM     33  C   UNL     1      30.543 -22.871 -15.786  0.00  0.00    +0.029 C 
ATOM     34  C   UNL     1      30.214 -22.801 -14.432  0.00  0.00    +0.140 C 
ENDBRANCH  27  29
ENDBRANCH   1  27
TORSDOF 6
ENDMDL
MODEL 2
REMARK VINA RESULT:     -11.8      2.869      4.784
REMARK  Name = 444746
REMARK  6 active torsions:
REMARK  status: ('A' for Active; 'I' for Inactive)
REMARK    1  A    between atoms: C_1  and  C_9
REMARK    2  A    between atoms: C_1  and  N_13
REMARK    3  A    between atoms: C_1  and  C_27
REMARK    4  A    between atoms: C_4  and  O_10
REMARK    5  A    between atoms: C_14  and  C_18
REMARK    6  A    between atoms: C_27  and  C_29
REMARK                            x       y       z     vdW  Elec       q    Type
REMARK                         _______ _______ _______ _____ _____    ______ ____
ROOT
ATOM      1  C   UNL     1      33.844 -23.351 -16.249  0.00  0.00    +0.153 C 
ENDROOT
BRANCH   1   9
ATOM      2  O   UNL     1      31.788 -22.366 -16.894  0.00  0.00    -0.273 OA
ATOM      3  N   UNL     1      31.672 -24.051 -15.300  0.00  0.00    -0.278 N 
ATOM      4  C   UNL     1      30.367 -24.843 -12.843  0.00  0.00    +0.114 C 
ATOM      5  C   UNL     1      29.756 -23.792 -13.773  0.00  0.00    +0.051 C 
ATOM      6  C   UNL     1      31.889 -24.871 -12.986  0.00  0.00    +0.051 C 
ATOM      7  C   UNL     1      30.210 -24.002 -15.214  0.00  0.00    +0.096 C 
ATOM      8  C   UNL     1      32.306 -25.060 -14.441  0.00  0.00    +0.096 C 
ATOM      9  C   UNL     1      32.344 -23.206 -16.183  0.00  0.00    +0.244 C 
BRANCH   4  10
ATOM     10  O   UNL     1      30.039 -24.541 -11.493  0.00  0.00    -0.384 OA
ATOM     11  H   UNL     1      29.792 -23.605 -11.422  0.00  0.00    +0.210 HD
ENDBRANCH   4  10
ENDBRANCH   1   9
BRANCH   1  13
ATOM     12  O   UNL     1      33.994 -23.667 -19.046  0.00  0.00    -0.269 OA
ATOM     13  N   UNL     1      34.238 -22.340 -17.186  0.00  0.00    -0.294 N 
ATOM     14  C   UNL     1      34.289 -22.572 -18.565  0.00  0.00    +0.260 C 
ATOM     15  H   UNL     1      34.483 -21.449 -16.847  0.00  0.00    +0.150 HD
BRANCH  14  18
ATOM     16 CL   UNL     1      35.285 -16.555 -23.211  0.00  0.00    -0.082 Cl
ATOM     17  N   UNL     1      35.947 -20.974 -19.448  0.00  0.00    -0.309 N 
ATOM     18  C   UNL     1      34.681 -21.428 -19.399  0.00  0.00    +0.102 C 
ATOM     19  C   UNL     1      33.878 -20.693 -20.200  0.00  0.00    +0.020 C 
ATOM     20  C   UNL     1      34.707 -19.702 -20.797  0.00  0.00    +0.016 C 
ATOM     21  C   UNL     1      36.000 -19.900 -20.309  0.00  0.00    +0.048 C 
ATOM     22  C   UNL     1      34.481 -18.652 -21.709  0.00  0.00    +0.013 C 
ATOM     23  C   UNL     1      37.083 -19.099 -20.688  0.00  0.00    +0.015 C 
ATOM     24  C   UNL     1      35.553 -17.841 -22.097  0.00  0.00    +0.058 C 
ATOM     25  C   UNL     1      36.833 -18.063 -21.593  0.00  0.00    +0.013 C 
ATOM     26  H   UNL     1      36.711 -21.348 -18.951  0.00  0.00    +0.152 HD
ENDBRANCH  14  18
ENDBRANCH   1  13
BRANCH   1  27
ATOM     27  C   UNL     1      34.451 -23.161 -14.865  0.00  0.00    +0.055 C 
BRANCH  27  29
ATOM     28  F   UNL     1      39.206 -26.087 -14.216  0.00  0.00    -0.204 F 
ATOM     29  C   UNL     1      35.727 -23.946 -14.691  0.00  0.00    -0.020 C 
ATOM     30  C   UNL     1      35.668 -25.327 -14.595  0.00  0.00    -0.002 C 
ATOM     31  C   UNL     1      36.938 -23.272 -14.630  0.00  0.00    -0.002 C 
ATOM     32  C   UNL     1      36.848 -26.053 -14.432  0.00  0.00    +0.029 C 
ATOM     33  C   UNL     1      38.118 -23.998 -14.469  0.00  0.00    +0.029 C 
ATOM     34  C   UNL     1      38.073 -25.389 -14.369  0.00  0.00    +0.140 C 
ENDBRANCH  27  29
ENDBRANCH   1  27
TORSDOF 6
ENDMDL
MODEL 3
REMARK VINA RESULT:     -10.4      1.502      2.082
REMARK  Name = 444746
REMARK  6 active torsions:
REMARK  status: ('A' for Active; 'I' for Inactive)
REMARK    1  A    between atoms: C_1  and  C_9
REMARK    2  A    between atoms: C_1  and  N_13
REMARK    3  A    between atoms: C_1  and  C_27
REMARK    4  A    between atoms: C_4  and  O_10
REMARK    5  A    between atoms: C_14  and  C_18
REMARK    6  A    between atoms: C_27  and  C_29
REMARK                            x       y       z     vdW  Elec       q    Type
REMARK                         _______ _______ _______ _____ _____    ______ ____
ROOT
ATOM      1  C   UNL     1      34.033 -23.803 -14.914  0.00  0.00    +0.153 C 
ENDROOT
BRANCH   1   9
ATOM      2  O   UNL     1      35.250 -25.779 -15.394  0.00  0.00    -0.273 OA
ATOM      3  N   UNL     1      36.276 -24.249 -13.979  0.00  0.00    -0.278 N 
ATOM      4  C   UNL     1      37.872 -24.008 -11.579  0.00  0.00    +0.114 C 
ATOM      5  C   UNL     1      37.816 -25.312 -12.377  0.00  0.00    +0.051 C 
ATOM      6  C   UNL     1      36.586 -23.203 -11.769  0.00  0.00    +0.051 C 
ATOM      7  C   UNL     1      37.498 -25.046 -13.844  0.00  0.00    +0.096 C 
ATOM      8  C   UNL     1      36.288 -22.975 -13.247  0.00  0.00    +0.096 C 
ATOM      9  C   UNL     1      35.236 -24.703 -14.790  0.00  0.00    +0.244 C 
BRANCH   4  10
ATOM     10  O   UNL     1      38.032 -24.296 -10.195  0.00  0.00    -0.384 OA
ATOM     11  H   UNL     1      38.351 -25.206 -10.089  0.00  0.00    +0.210 HD
ENDBRANCH   4  10
ENDBRANCH   1   9
BRANCH   1  13
ATOM     12  O   UNL     1      33.635 -24.226 -17.673  0.00  0.00    -0.269 OA
ATOM     13  N   UNL     1      34.400 -22.896 -15.962  0.00  0.00    -0.294 N 
ATOM     14  C   UNL     1      34.170 -23.176 -17.314  0.00  0.00    +0.260 C 
ATOM     15  H   UNL     1      34.830 -22.044 -15.722  0.00  0.00    +0.150 HD
BRANCH  14  18
ATOM     16 CL   UNL     1      37.289 -17.924 -21.948  0.00  0.00    -0.082 Cl
ATOM     17  N   UNL     1      33.684 -21.492 -19.050  0.00  0.00    -0.309 N 
ATOM     18  C   UNL     1      34.572 -22.134 -18.268  0.00  0.00    +0.102 C 
ATOM     19  C   UNL     1      35.825 -21.683 -18.498  0.00  0.00    +0.020 C 
ATOM     20  C   UNL     1      35.712 -20.681 -19.502  0.00  0.00    +0.016 C 
ATOM     21  C   UNL     1      34.358 -20.581 -19.831  0.00  0.00    +0.048 C 
ATOM     22  C   UNL     1      36.634 -19.847 -20.166  0.00  0.00    +0.013 C 
ATOM     23  C   UNL     1      33.878 -19.685 -20.793  0.00  0.00    +0.015 C 
ATOM     24  C   UNL     1      36.169 -18.946 -21.132  0.00  0.00    +0.058 C 
ATOM     25  C   UNL     1      34.812 -18.869 -21.438  0.00  0.00    +0.013 C 
ATOM     26  H   UNL     1      32.712 -21.648 -19.061  0.00  0.00    +0.152 HD
ENDBRANCH  14  18
ENDBRANCH   1  13
BRANCH   1  27
ATOM     27  C   UNL     1      32.792 -24.626 -15.236  0.00  0.00    +0.055 C 
BRANCH  27  29
ATOM     28  F   UNL     1      28.052 -21.723 -14.400  0.00  0.00    -0.204 F 
ATOM     29  C   UNL     1      31.520 -23.847 -15.012  0.00  0.00    -0.020 C 
ATOM     30  C   UNL     1      30.745 -23.482 -16.101  0.00  0.00    -0.002 C 
ATOM     31  C   UNL     1      31.148 -23.509 -13.719  0.00  0.00    -0.002 C 
ATOM     32  C   UNL     1      29.569 -22.760 -15.894  0.00  0.00    +0.029 C 
ATOM     33  C   UNL     1      29.972 -22.788 -13.511  0.00  0.00    +0.029 C 
ATOM     34  C   UNL     1      29.182 -22.414 -14.599  0.00  0.00    +0.140 C 
ENDBRANCH  27  29
ENDBRANCH   1  27
TORSDOF 6
ENDMDL
MODEL 4
REMARK VINA RESULT:     -10.4      3.099      5.317
REMARK  Name = 444746
REMARK  6 active torsions:
REMARK  status: ('A' for Active; 'I' for Inactive)
REMARK    1  A    between atoms: C_1  and  C_9
REMARK    2  A    between atoms: C_1  and  N_13
REMARK    3  A    between atoms: C_1  and  C_27
REMARK    4  A    between atoms: C_4  and  O_10
REMARK    5  A    between atoms: C_14  and  C_18
REMARK    6  A    between atoms: C_27  and  C_29
REMARK                            x       y       z     vdW  Elec       q    Type
REMARK                         _______ _______ _______ _____ _____    ______ ____
ROOT
ATOM      1  C   UNL     1      33.579 -23.414 -14.747  0.00  0.00    +0.153 C 
ENDROOT
BRANCH   1   9
ATOM      2  O   UNL     1      32.277 -21.733 -13.701  0.00  0.00    -0.273 OA
ATOM      3  N   UNL     1      31.108 -23.440 -14.755  0.00  0.00    -0.278 N 
ATOM      4  C   UNL     1      28.811 -25.181 -14.513  0.00  0.00    +0.114 C 
ATOM      5  C   UNL     1      28.912 -23.873 -13.726  0.00  0.00    +0.051 C 
ATOM      6  C   UNL     1      30.202 -25.731 -14.827  0.00  0.00    +0.051 C 
ATOM      7  C   UNL     1      29.797 -22.862 -14.449  0.00  0.00    +0.096 C 
ATOM      8  C   UNL     1      31.066 -24.688 -15.530  0.00  0.00    +0.096 C 
ATOM      9  C   UNL     1      32.268 -22.780 -14.351  0.00  0.00    +0.244 C 
BRANCH   4  10
ATOM     10  O   UNL     1      28.097 -26.147 -13.752  0.00  0.00    -0.384 OA
ATOM     11  H   UNL     1      27.313 -26.434 -14.246  0.00  0.00    +0.210 HD
ENDBRANCH   4  10
ENDBRANCH   1   9
BRANCH   1  13
ATOM     12  O   UNL     1      33.697 -24.146 -17.467  0.00  0.00    -0.269 OA
ATOM     13  N   UNL     1      34.043 -22.583 -15.819  0.00  0.00    -0.294 N 
ATOM     14  C   UNL     1      34.072 -23.017 -17.149  0.00  0.00    +0.260 C 
ATOM     15  H   UNL     1      34.353 -21.671 -15.612  0.00  0.00    +0.150 HD
BRANCH  14  18
ATOM     16 CL   UNL     1      35.503 -17.884 -22.662  0.00  0.00    -0.082 Cl
ATOM     17  N   UNL     1      35.829 -21.640 -18.199  0.00  0.00    -0.309 N 
ATOM     18  C   UNL     1      34.544 -22.039 -18.139  0.00  0.00    +0.102 C 
ATOM     19  C   UNL     1      33.806 -21.422 -19.087  0.00  0.00    +0.020 C 
ATOM     20  C   UNL     1      34.698 -20.570 -19.797  0.00  0.00    +0.016 C 
ATOM     21  C   UNL     1      35.960 -20.725 -19.220  0.00  0.00    +0.048 C 
ATOM     22  C   UNL     1      34.553 -19.678 -20.879  0.00  0.00    +0.013 C 
ATOM     23  C   UNL     1      37.089 -20.031 -19.671  0.00  0.00    +0.015 C 
ATOM     24  C   UNL     1      35.672 -18.976 -21.341  0.00  0.00    +0.058 C 
ATOM     25  C   UNL     1      36.919 -19.152 -20.745  0.00  0.00    +0.013 C 
ATOM     26  H   UNL     1      36.554 -21.950 -17.610  0.00  0.00    +0.152 HD
ENDBRANCH  14  18
ENDBRANCH   1  13
BRANCH   1  27
ATOM     27  C   UNL     1      34.527 -23.447 -13.556  0.00  0.00    +0.055 C 
BRANCH  27  29
ATOM     28  F   UNL     1      39.160 -26.446 -14.620  0.00  0.00    -0.204 F 
ATOM     29  C   UNL     1      35.770 -24.252 -13.842  0.00  0.00    -0.020 C 
ATOM     30  C   UNL     1      35.650 -25.511 -14.408  0.00  0.00    -0.002 C 
ATOM     31  C   UNL     1      37.012 -23.718 -13.532  0.00  0.00    -0.002 C 
ATOM     32  C   UNL     1      36.800 -26.256 -14.670  0.00  0.00    +0.029 C 
ATOM     33  C   UNL     1      38.163 -24.462 -13.796  0.00  0.00    +0.029 C 
ATOM     34  C   UNL     1      38.056 -25.732 -14.365  0.00  0.00    +0.140 C 
ENDBRANCH  27  29
ENDBRANCH   1  27
TORSDOF 6
ENDMDL
MODEL 5
REMARK VINA RESULT:      -9.6     12.584     17.209
REMARK  Name = 444746
REMARK  6 active torsions:
REMARK  status: ('A' for Active; 'I' for Inactive)
REMARK    1  A    between atoms: C_1  and  C_9
REMARK    2  A    between atoms: C_1  and  N_13
REMARK    3  A    between atoms: C_1  and  C_27
REMARK    4  A    between atoms: C_4  and  O_10
REMARK    5  A    between atoms: C_14  and  C_18
REMARK    6  A    between atoms: C_27  and  C_29
REMARK                            x       y       z     vdW  Elec       q    Type
REMARK                         _______ _______ _______ _____ _____    ______ ____
ROOT
ATOM      1  C   UNL     1      32.312  -7.757 -22.251  0.00  0.00    +0.153 C 
ENDROOT
BRANCH   1   9
ATOM      2  O   UNL     1      34.576  -7.087 -22.449  0.00  0.00    -0.273 OA
ATOM      3  N   UNL     1      33.097  -6.213 -24.013  0.00  0.00    -0.278 N 
ATOM      4  C   UNL     1      32.398  -3.812 -25.465  0.00  0.00    +0.114 C 
ATOM      5  C   UNL     1      33.785  -4.000 -24.847  0.00  0.00    +0.051 C 
ATOM      6  C   UNL     1      31.350  -4.614 -24.694  0.00  0.00    +0.051 C 
ATOM      7  C   UNL     1      34.141  -5.479 -24.733  0.00  0.00    +0.096 C 
ATOM      8  C   UNL     1      31.748  -6.082 -24.580  0.00  0.00    +0.096 C 
ATOM      9  C   UNL     1      33.435  -6.994 -22.908  0.00  0.00    +0.244 C 
BRANCH   4  10
ATOM     10  O   UNL     1      32.038  -2.437 -25.432  0.00  0.00    -0.384 OA
ATOM     11  H   UNL     1      32.516  -1.960 -26.130  0.00  0.00    +0.210 HD
ENDBRANCH   4  10
ENDBRANCH   1   9
BRANCH   1  13
ATOM     12  O   UNL     1      30.810 -10.075 -21.686  0.00  0.00    -0.269 OA
ATOM     13  N   UNL     1      32.836  -9.087 -22.132  0.00  0.00    -0.294 N 
ATOM     14  C   UNL     1      32.025 -10.192 -21.849  0.00  0.00    +0.260 C 
ATOM     15  H   UNL     1      33.802  -9.229 -22.253  0.00  0.00    +0.150 HD
BRANCH  14  18
ATOM     16 CL   UNL     1      35.336 -16.969 -20.475  0.00  0.00    -0.082 Cl
ATOM     17  N   UNL     1      33.229 -12.081 -22.882  0.00  0.00    -0.309 N 
ATOM     18  C   UNL     1      32.703 -11.493 -21.790  0.00  0.00    +0.102 C 
ATOM     19  C   UNL     1      32.893 -12.262 -20.695  0.00  0.00    +0.020 C 
ATOM     20  C   UNL     1      33.593 -13.421 -21.135  0.00  0.00    +0.016 C 
ATOM     21  C   UNL     1      33.791 -13.282 -22.511  0.00  0.00    +0.048 C 
ATOM     22  C   UNL     1      34.078 -14.578 -20.494  0.00  0.00    +0.013 C 
ATOM     23  C   UNL     1      34.452 -14.245 -23.280  0.00  0.00    +0.015 C 
ATOM     24  C   UNL     1      34.740 -15.552 -21.251  0.00  0.00    +0.058 C 
ATOM     25  C   UNL     1      34.924 -15.385 -22.622  0.00  0.00    +0.013 C 
ATOM     26  H   UNL     1      33.215 -11.712 -23.794  0.00  0.00    +0.152 HD
ENDBRANCH  14  18
ENDBRANCH   1  13
BRANCH   1  27
ATOM     27  C   UNL     1      31.961  -7.126 -20.910  0.00  0.00    +0.055 C 
BRANCH  27  29
ATOM     28  F   UNL     1      30.294  -1.786 -21.457  0.00  0.00    -0.204 F 
ATOM     29  C   UNL     1      31.513  -5.693 -21.056  0.00  0.00    -0.020 C 
ATOM     30  C   UNL     1      30.179  -5.420 -21.310  0.00  0.00    -0.002 C 
ATOM     31  C   UNL     1      32.446  -4.673 -20.935  0.00  0.00    -0.002 C 
ATOM     32  C   UNL     1      29.765  -4.095 -21.447  0.00  0.00    +0.029 C 
ATOM     33  C   UNL     1      32.032  -3.348 -21.071  0.00  0.00    +0.029 C 
ATOM     34  C   UNL     1      30.691  -3.059 -21.328  0.00  0.00    +0.140 C 
ENDBRANCH  27  29
ENDBRANCH   1  27
TORSDOF 6
ENDMDL
MODEL 6
REMARK VINA RESULT:      -9.3     11.255     15.556
REMARK  Name = 444746
REMARK  6 active torsions:
REMARK  status: ('A' for Active; 'I' for Inactive)
REMARK    1  A    between atoms: C_1  and  C_9
REMARK    2  A    between atoms: C_1  and  N_13
REMARK    3  A    between atoms: C_1  and  C_27
REMARK    4  A    between atoms: C_4  and  O_10
REMARK    5  A    between atoms: C_14  and  C_18
REMARK    6  A    between atoms: C_27  and  C_29
REMARK                            x       y       z     vdW  Elec       q    Type
REMARK                         _______ _______ _______ _____ _____    ______ ____
ROOT
ATOM      1  C   UNL     1      32.843  -8.029 -23.356  0.00  0.00    +0.153 C 
ENDROOT
BRANCH   1   9
ATOM      2  O   UNL     1      34.129  -7.018 -21.641  0.00  0.00    -0.273 OA
ATOM      3  N   UNL     1      32.352  -8.347 -20.955  0.00  0.00    -0.278 N 
ATOM      4  C   UNL     1      31.541 -10.318 -19.000  0.00  0.00    +0.114 C 
ATOM      5  C   UNL     1      32.729  -9.387 -18.754  0.00  0.00    +0.051 C 
ATOM      6  C   UNL     1      31.332 -10.543 -20.497  0.00  0.00    +0.051 C 
ATOM      7  C   UNL     1      32.578  -8.083 -19.532  0.00  0.00    +0.096 C 
ATOM      8  C   UNL     1      31.206  -9.220 -21.246  0.00  0.00    +0.096 C 
ATOM      9  C   UNL     1      33.171  -7.747 -21.910  0.00  0.00    +0.244 C 
BRANCH   4  10
ATOM     10  O   UNL     1      31.775 -11.574 -18.375  0.00  0.00    -0.384 OA
ATOM     11  H   UNL     1      31.499 -12.288 -18.972  0.00  0.00    +0.210 HD
ENDBRANCH   4  10
ENDBRANCH   1   9
BRANCH   1  13
ATOM     12  O   UNL     1      35.020  -9.445 -24.453  0.00  0.00    -0.269 OA
ATOM     13  N   UNL     1      32.952  -9.455 -23.451  0.00  0.00    -0.294 N 
ATOM     14  C   UNL     1      34.067 -10.089 -24.011  0.00  0.00    +0.260 C 
ATOM     15  H   UNL     1      32.214 -10.011 -23.112  0.00  0.00    +0.150 HD
BRANCH  14  18
ATOM     16 CL   UNL     1      33.438 -17.671 -24.958  0.00  0.00    -0.082 Cl
ATOM     17  N   UNL     1      34.586 -12.284 -23.012  0.00  0.00    -0.309 N 
ATOM     18  C   UNL     1      34.046 -11.558 -24.009  0.00  0.00    +0.102 C 
ATOM     19  C   UNL     1      33.514 -12.364 -24.954  0.00  0.00    +0.020 C 
ATOM     20  C   UNL     1      33.738 -13.699 -24.514  0.00  0.00    +0.016 C 
ATOM     21  C   UNL     1      34.412 -13.621 -23.293  0.00  0.00    +0.048 C 
ATOM     22  C   UNL     1      33.430 -14.970 -25.038  0.00  0.00    +0.013 C 
ATOM     23  C   UNL     1      34.796 -14.754 -22.568  0.00  0.00    +0.015 C 
ATOM     24  C   UNL     1      33.809 -16.113 -24.324  0.00  0.00    +0.058 C 
ATOM     25  C   UNL     1      34.481 -16.004 -23.109  0.00  0.00    +0.013 C 
ATOM     26  H   UNL     1      35.032 -11.919 -22.213  0.00  0.00    +0.152 HD
ENDBRANCH  14  18
ENDBRANCH   1  13
BRANCH   1  27
ATOM     27  C   UNL     1      31.453  -7.507 -23.691  0.00  0.00    +0.055 C 
BRANCH  27  29
ATOM     28  F   UNL     1      31.060  -1.941 -23.011  0.00  0.00    -0.204 F 
ATOM     29  C   UNL     1      31.347  -6.013 -23.509  0.00  0.00    -0.020 C 
ATOM     30  C   UNL     1      31.834  -5.172 -24.496  0.00  0.00    -0.002 C 
ATOM     31  C   UNL     1      30.766  -5.508 -22.355  0.00  0.00    -0.002 C 
ATOM     32  C   UNL     1      31.738  -3.790 -24.327  0.00  0.00    +0.029 C 
ATOM     33  C   UNL     1      30.668  -4.127 -22.187  0.00  0.00    +0.029 C 
ATOM     34  C   UNL     1      31.155  -3.268 -23.173  0.00  0.00    +0.140 C 
ENDBRANCH  27  29
ENDBRANCH   1  27
TORSDOF 6
ENDMDL
MODEL 7
REMARK VINA RESULT:      -9.3      3.428      6.587
REMARK  Name = 444746
REMARK  6 active torsions:
REMARK  status: ('A' for Active; 'I' for Inactive)
REMARK    1  A    between atoms: C_1  and  C_9
REMARK    2  A    between atoms: C_1  and  N_13
REMARK    3  A    between atoms: C_1  and  C_27
REMARK    4  A    between atoms: C_4  and  O_10
REMARK    5  A    between atoms: C_14  and  C_18
REMARK    6  A    between atoms: C_27  and  C_29
REMARK                            x       y       z     vdW  Elec       q    Type
REMARK                         _______ _______ _______ _____ _____    ______ ____
ROOT
ATOM      1  C   UNL     1      36.609 -22.852 -15.711  0.00  0.00    +0.153 C 
ENDROOT
BRANCH   1   9
ATOM      2  O   UNL     1      36.833 -22.093 -13.478  0.00  0.00    -0.273 OA
ATOM      3  N   UNL     1      37.654 -24.217 -13.937  0.00  0.00    -0.278 N 
ATOM      4  C   UNL     1      39.842 -26.032 -13.399  0.00  0.00    +0.114 C 
ATOM      5  C   UNL     1      39.531 -24.854 -12.473  0.00  0.00    +0.051 C 
ATOM      6  C   UNL     1      39.383 -25.733 -14.826  0.00  0.00    +0.051 C 
ATOM      7  C   UNL     1      38.058 -24.466 -12.551  0.00  0.00    +0.096 C 
ATOM      8  C   UNL     1      37.912 -25.328 -14.863  0.00  0.00    +0.096 C 
ATOM      9  C   UNL     1      37.038 -23.013 -14.274  0.00  0.00    +0.244 C 
BRANCH   4  10
ATOM     10  O   UNL     1      41.242 -26.279 -13.410  0.00  0.00    -0.384 OA
ATOM     11  H   UNL     1      41.699 -25.576 -12.922  0.00  0.00    +0.210 HD
ENDBRANCH   4  10
ENDBRANCH   1   9
BRANCH   1  13
ATOM     12  O   UNL     1      34.927 -25.092 -15.389  0.00  0.00    -0.269 OA
ATOM     13  N   UNL     1      35.177 -22.821 -15.632  0.00  0.00    -0.294 N 
ATOM     14  C   UNL     1      34.408 -23.979 -15.471  0.00  0.00    +0.260 C 
ATOM     15  H   UNL     1      34.718 -21.953 -15.694  0.00  0.00    +0.150 HD
BRANCH  14  18
ATOM     16 CL   UNL     1      26.945 -22.250 -15.796  0.00  0.00    -0.082 Cl
ATOM     17  N   UNL     1      32.199 -24.435 -14.473  0.00  0.00    -0.309 N 
ATOM     18  C   UNL     1      32.955 -23.781 -15.375  0.00  0.00    +0.102 C 
ATOM     19  C   UNL     1      32.194 -22.963 -16.133  0.00  0.00    +0.020 C 
ATOM     20  C   UNL     1      30.857 -23.115 -15.670  0.00  0.00    +0.016 C 
ATOM     21  C   UNL     1      30.887 -24.044 -14.628  0.00  0.00    +0.048 C 
ATOM     22  C   UNL     1      29.619 -22.550 -16.038  0.00  0.00    +0.013 C 
ATOM     23  C   UNL     1      29.739 -24.438 -13.933  0.00  0.00    +0.015 C 
ATOM     24  C   UNL     1      28.462 -22.935 -15.353  0.00  0.00    +0.058 C 
ATOM     25  C   UNL     1      28.523 -23.864 -14.317  0.00  0.00    +0.013 C 
ATOM     26  H   UNL     1      32.529 -25.085 -13.811  0.00  0.00    +0.152 HD
ENDBRANCH  14  18
ENDBRANCH   1  13
BRANCH   1  27
ATOM     27  C   UNL     1      37.207 -21.582 -16.300  0.00  0.00    +0.055 C 
BRANCH  27  29
ATOM     28  F   UNL     1      34.957 -20.293 -21.287  0.00  0.00    -0.204 F 
ATOM     29  C   UNL     1      36.603 -21.236 -17.638  0.00  0.00    -0.020 C 
ATOM     30  C   UNL     1      35.455 -21.889 -18.056  0.00  0.00    -0.002 C 
ATOM     31  C   UNL     1      37.208 -20.269 -18.428  0.00  0.00    -0.002 C 
ATOM     32  C   UNL     1      34.897 -21.571 -19.294  0.00  0.00    +0.029 C 
ATOM     33  C   UNL     1      36.650 -19.950 -19.666  0.00  0.00    +0.029 C 
ATOM     34  C   UNL     1      35.495 -20.601 -20.099  0.00  0.00    +0.140 C 
ENDBRANCH  27  29
ENDBRANCH   1  27
TORSDOF 6
ENDMDL
MODEL 8
REMARK VINA RESULT:      -9.0      4.161      7.950
REMARK  Name = 444746
REMARK  6 active torsions:
REMARK  status: ('A' for Active; 'I' for Inactive)
REMARK    1  A    between atoms: C_1  and  C_9
REMARK    2  A    between atoms: C_1  and  N_13
REMARK    3  A    between atoms: C_1  and  C_27
REMARK    4  A    between atoms: C_4  and  O_10
REMARK    5  A    between atoms: C_14  and  C_18
REMARK    6  A    between atoms: C_27  and  C_29
REMARK                            x       y       z     vdW  Elec       q    Type
REMARK                         _______ _______ _______ _____ _____    ______ ____
ROOT
ATOM      1  C   UNL     1      33.365 -23.009 -15.871  0.00  0.00    +0.153 C 
ENDROOT
BRANCH   1   9
ATOM      2  O   UNL     1      32.887 -24.664 -14.244  0.00  0.00    -0.273 OA
ATOM      3  N   UNL     1      31.078 -23.445 -15.042  0.00  0.00    -0.278 N 
ATOM      4  C   UNL     1      28.316 -23.656 -15.873  0.00  0.00    +0.114 C 
ATOM      5  C   UNL     1      28.968 -24.715 -14.982  0.00  0.00    +0.051 C 
ATOM      6  C   UNL     1      29.363 -22.965 -16.746  0.00  0.00    +0.051 C 
ATOM      7  C   UNL     1      30.114 -24.121 -14.169  0.00  0.00    +0.096 C 
ATOM      8  C   UNL     1      30.504 -22.403 -15.903  0.00  0.00    +0.096 C 
ATOM      9  C   UNL     1      32.429 -23.784 -14.976  0.00  0.00    +0.244 C 
BRANCH   4  10
ATOM     10  O   UNL     1      27.347 -24.266 -16.716  0.00  0.00    -0.384 OA
ATOM     11  H   UNL     1      27.712 -24.365 -17.610  0.00  0.00    +0.210 HD
ENDBRANCH   4  10
ENDBRANCH   1   9
BRANCH   1  13
ATOM     12  O   UNL     1      35.096 -22.276 -13.770  0.00  0.00    -0.269 OA
ATOM     13  N   UNL     1      34.647 -23.591 -15.600  0.00  0.00    -0.294 N 
ATOM     14  C   UNL     1      35.452 -23.173 -14.535  0.00  0.00    +0.260 C 
ATOM     15  H   UNL     1      34.974 -24.311 -16.186  0.00  0.00    +0.150 HD
BRANCH  14  18
ATOM     16 CL   UNL     1      41.594 -27.447 -12.861  0.00  0.00    -0.082 Cl
ATOM     17  N   UNL     1      37.799 -23.633 -15.139  0.00  0.00    -0.309 N 
ATOM     18  C   UNL     1      36.725 -23.888 -14.368  0.00  0.00    +0.102 C 
ATOM     19  C   UNL     1      37.001 -24.856 -13.467  0.00  0.00    +0.020 C 
ATOM     20  C   UNL     1      38.353 -25.239 -13.692  0.00  0.00    +0.016 C 
ATOM     21  C   UNL     1      38.831 -24.456 -14.746  0.00  0.00    +0.048 C 
ATOM     22  C   UNL     1      39.220 -26.178 -13.099  0.00  0.00    +0.013 C 
ATOM     23  C   UNL     1      40.136 -24.566 -15.237  0.00  0.00    +0.015 C 
ATOM     24  C   UNL     1      40.529 -26.301 -13.580  0.00  0.00    +0.058 C 
ATOM     25  C   UNL     1      40.977 -25.506 -14.633  0.00  0.00    +0.013 C 
ATOM     26  H   UNL     1      37.841 -22.969 -15.864  0.00  0.00    +0.152 HD
ENDBRANCH  14  18
ENDBRANCH   1  13
BRANCH   1  27
ATOM     27  C   UNL     1      32.935 -23.147 -17.326  0.00  0.00    +0.055 C 
BRANCH  27  29
ATOM     28  F   UNL     1      35.671 -19.571 -20.690  0.00  0.00    -0.204 F 
ATOM     29  C   UNL     1      33.670 -22.188 -18.229  0.00  0.00    -0.020 C 
ATOM     30  C   UNL     1      35.055 -22.198 -18.249  0.00  0.00    -0.002 C 
ATOM     31  C   UNL     1      32.945 -21.311 -19.022  0.00  0.00    -0.002 C 
ATOM     32  C   UNL     1      35.735 -21.310 -19.083  0.00  0.00    +0.029 C 
ATOM     33  C   UNL     1      33.624 -20.423 -19.857  0.00  0.00    +0.029 C 
ATOM     34  C   UNL     1      35.019 -20.422 -19.887  0.00  0.00    +0.140 C 
ENDBRANCH  27  29
ENDBRANCH   1  27
TORSDOF 6
ENDMDL
