MODEL 1
REMARK VINA RESULT:     -11.8      0.000      0.000
REMARK  Name = 5312137
REMARK  3 active torsions:
REMARK  status: ('A' for Active; 'I' for Inactive)
REMARK    1  A    between atoms: C_3  and  C_20
REMARK    2  A    between atoms: C_7  and  S_23
REMARK    3  A    between atoms: S_23  and  N_26
REMARK                            x       y       z     vdW  Elec       q    Type
REMARK                         _______ _______ _______ _____ _____    ______ ____
ROOT
ATOM      1  O   UNL     1      32.781 -20.907 -20.050  0.00  0.00    -0.270 OA
ATOM      2  N   UNL     1      32.787 -22.269 -18.120  0.00  0.00    -0.280 N 
ATOM      3  C   UNL     1      35.655 -20.519 -19.382  0.00  0.00    +0.019 C 
ATOM      4  C   UNL     1      34.766 -21.273 -18.691  0.00  0.00    +0.056 C 
ATOM      5  C   UNL     1      34.987 -22.060 -17.483  0.00  0.00    +0.019 C 
ATOM      6  C   UNL     1      33.753 -22.643 -17.179  0.00  0.00    +0.051 C 
ATOM      7  C   UNL     1      35.933 -23.125 -15.574  0.00  0.00    +0.122 C 
ATOM      8  C   UNL     1      36.092 -22.291 -16.687  0.00  0.00    +0.021 C 
ATOM      9  C   UNL     1      33.327 -21.421 -19.092  0.00  0.00    +0.250 C 
ATOM     10  C   UNL     1      33.575 -23.469 -16.087  0.00  0.00    +0.016 C 
ATOM     11  C   UNL     1      34.687 -23.707 -15.277  0.00  0.00    +0.021 C 
ATOM     12  H   UNL     1      31.848 -22.564 -18.100  0.00  0.00    +0.155 HD
ENDROOT
BRANCH   3  20
ATOM     13  N   UNL     1      35.522 -18.419 -20.496  0.00  0.00    -0.316 N 
ATOM     14  C   UNL     1      35.203 -17.893 -21.717  0.00  0.00    +0.021 C 
ATOM     15  C   UNL     1      34.841 -18.927 -22.556  0.00  0.00    -0.012 C 
ATOM     16  C   UNL     1      35.215 -16.447 -22.056  0.00  0.00    +0.041 C 
ATOM     17  C   UNL     1      34.448 -18.705 -23.975  0.00  0.00    +0.027 C 
ATOM     18  C   UNL     1      35.139 -16.273 -23.586  0.00  0.00    +0.006 C 
ATOM     19  C   UNL     1      34.111 -17.223 -24.231  0.00  0.00    +0.005 C 
ATOM     20  C   UNL     1      35.373 -19.783 -20.543  0.00  0.00    +0.048 C 
ATOM     21  C   UNL     1      34.953 -20.126 -21.812  0.00  0.00    +0.011 C 
ATOM     22  H   UNL     1      35.811 -17.902 -19.709  0.00  0.00    +0.152 HD
ENDBRANCH   3  20
BRANCH   7  23
ATOM     23  S   UNL     1      37.303 -23.446 -14.536  0.00  0.00    +0.063 S 
ATOM     24  O   UNL     1      38.492 -23.550 -15.374  0.00  0.00    -0.153 OA
ATOM     25  O   UNL     1      37.295 -22.466 -13.457  0.00  0.00    -0.153 OA
BRANCH  23  26
ATOM     26  N   UNL     1      36.947 -25.007 -13.878  0.00  0.00    -0.153 NA
ATOM     27  C   UNL     1      37.639 -26.178 -14.475  0.00  0.00    +0.115 C 
ATOM     28  C   UNL     1      36.833 -25.120 -12.402  0.00  0.00    +0.115 C 
ENDBRANCH  23  26
ENDBRANCH   7  23
TORSDOF 3
ENDMDL
MODEL 2
REMARK VINA RESULT:     -11.7      1.151      1.672
REMARK  Name = 5312137
REMARK  3 active torsions:
REMARK  status: ('A' for Active; 'I' for Inactive)
REMARK    1  A    between atoms: C_3  and  C_20
REMARK    2  A    between atoms: C_7  and  S_23
REMARK    3  A    between atoms: S_23  and  N_26
REMARK                            x       y       z     vdW  Elec       q    Type
REMARK                         _______ _______ _______ _____ _____    ______ ____
ROOT
ATOM      1  O   UNL     1      32.587 -20.474 -20.135  0.00  0.00    -0.270 OA
ATOM      2  N   UNL     1      32.445 -21.986 -18.326  0.00  0.00    -0.280 N 
ATOM      3  C   UNL     1      35.473 -20.392 -19.410  0.00  0.00    +0.019 C 
ATOM      4  C   UNL     1      34.512 -21.121 -18.793  0.00  0.00    +0.056 C 
ATOM      5  C   UNL     1      34.644 -22.023 -17.653  0.00  0.00    +0.019 C 
ATOM      6  C   UNL     1      33.361 -22.520 -17.411  0.00  0.00    +0.051 C 
ATOM      7  C   UNL     1      35.465 -23.319 -15.831  0.00  0.00    +0.122 C 
ATOM      8  C   UNL     1      35.712 -22.413 -16.869  0.00  0.00    +0.021 C 
ATOM      9  C   UNL     1      33.072 -21.111 -19.218  0.00  0.00    +0.250 C 
ATOM     10  C   UNL     1      33.094 -23.414 -16.394  0.00  0.00    +0.016 C 
ATOM     11  C   UNL     1      34.168 -23.814 -15.596  0.00  0.00    +0.021 C 
ATOM     12  H   UNL     1      31.484 -22.200 -18.340  0.00  0.00    +0.155 HD
ENDROOT
BRANCH   3  20
ATOM     13  N   UNL     1      34.876 -20.102 -21.695  0.00  0.00    -0.316 N 
ATOM     14  C   UNL     1      34.736 -19.114 -22.630  0.00  0.00    +0.021 C 
ATOM     15  C   UNL     1      35.053 -17.907 -22.040  0.00  0.00    -0.012 C 
ATOM     16  C   UNL     1      34.344 -19.325 -24.048  0.00  0.00    +0.041 C 
ATOM     17  C   UNL     1      34.990 -16.616 -22.777  0.00  0.00    +0.027 C 
ATOM     18  C   UNL     1      33.961 -17.975 -24.686  0.00  0.00    +0.006 C 
ATOM     19  C   UNL     1      34.941 -16.849 -24.301  0.00  0.00    +0.005 C 
ATOM     20  C   UNL     1      35.274 -19.541 -20.508  0.00  0.00    +0.048 C 
ATOM     21  C   UNL     1      35.390 -18.179 -20.692  0.00  0.00    +0.011 C 
ATOM     22  H   UNL     1      34.716 -21.062 -21.850  0.00  0.00    +0.152 HD
ENDBRANCH   3  20
BRANCH   7  23
ATOM     23  S   UNL     1      36.784 -23.843 -14.811  0.00  0.00    +0.063 S 
ATOM     24  O   UNL     1      36.885 -25.295 -14.911  0.00  0.00    -0.153 OA
ATOM     25  O   UNL     1      37.956 -23.039 -15.136  0.00  0.00    -0.153 OA
BRANCH  23  26
ATOM     26  N   UNL     1      36.246 -23.431 -13.219  0.00  0.00    -0.153 NA
ATOM     27  C   UNL     1      35.386 -24.411 -12.510  0.00  0.00    +0.115 C 
ATOM     28  C   UNL     1      37.227 -22.789 -12.307  0.00  0.00    +0.115 C 
ENDBRANCH  23  26
ENDBRANCH   7  23
TORSDOF 3
ENDMDL
MODEL 3
REMARK VINA RESULT:     -10.7      2.666      8.732
REMARK  Name = 5312137
REMARK  3 active torsions:
REMARK  status: ('A' for Active; 'I' for Inactive)
REMARK    1  A    between atoms: C_3  and  C_20
REMARK    2  A    between atoms: C_7  and  S_23
REMARK    3  A    between atoms: S_23  and  N_26
REMARK                            x       y       z     vdW  Elec       q    Type
REMARK                         _______ _______ _______ _____ _____    ______ ____
ROOT
ATOM      1  O   UNL     1      34.361 -23.499 -15.957  0.00  0.00    -0.270 OA
ATOM      2  N   UNL     1      33.421 -22.453 -17.855  0.00  0.00    -0.280 N 
ATOM      3  C   UNL     1      36.796 -21.973 -16.733  0.00  0.00    +0.019 C 
ATOM      4  C   UNL     1      35.603 -21.960 -17.375  0.00  0.00    +0.056 C 
ATOM      5  C   UNL     1      35.223 -21.218 -18.572  0.00  0.00    +0.019 C 
ATOM      6  C   UNL     1      33.889 -21.554 -18.820  0.00  0.00    +0.051 C 
ATOM      7  C   UNL     1      35.199 -19.804 -20.489  0.00  0.00    +0.122 C 
ATOM      8  C   UNL     1      35.896 -20.341 -19.401  0.00  0.00    +0.021 C 
ATOM      9  C   UNL     1      34.416 -22.760 -16.922  0.00  0.00    +0.250 C 
ATOM     10  C   UNL     1      33.183 -21.036 -19.887  0.00  0.00    +0.016 C 
ATOM     11  C   UNL     1      33.855 -20.148 -20.730  0.00  0.00    +0.021 C 
ATOM     12  H   UNL     1      32.508 -22.822 -17.836  0.00  0.00    +0.155 HD
ENDROOT
BRANCH   3  20
ATOM     13  N   UNL     1      36.427 -22.403 -14.421  0.00  0.00    -0.316 N 
ATOM     14  C   UNL     1      36.854 -23.234 -13.423  0.00  0.00    +0.021 C 
ATOM     15  C   UNL     1      37.808 -24.085 -13.942  0.00  0.00    -0.012 C 
ATOM     16  C   UNL     1      36.386 -23.191 -12.013  0.00  0.00    +0.041 C 
ATOM     17  C   UNL     1      38.474 -25.135 -13.123  0.00  0.00    +0.027 C 
ATOM     18  C   UNL     1      36.823 -24.476 -11.283  0.00  0.00    +0.006 C 
ATOM     19  C   UNL     1      38.275 -24.873 -11.617  0.00  0.00    +0.005 C 
ATOM     20  C   UNL     1      37.094 -22.715 -15.579  0.00  0.00    +0.048 C 
ATOM     21  C   UNL     1      37.957 -23.758 -15.312  0.00  0.00    +0.011 C 
ATOM     22  H   UNL     1      35.750 -21.694 -14.323  0.00  0.00    +0.152 HD
ENDBRANCH   3  20
BRANCH   7  23
ATOM     23  S   UNL     1      36.007 -18.689 -21.566  0.00  0.00    +0.063 S 
ATOM     24  O   UNL     1      37.337 -18.423 -21.028  0.00  0.00    -0.153 OA
ATOM     25  O   UNL     1      35.896 -19.209 -22.924  0.00  0.00    -0.153 OA
BRANCH  23  26
ATOM     26  N   UNL     1      35.056 -17.249 -21.438  0.00  0.00    -0.153 NA
ATOM     27  C   UNL     1      35.219 -16.426 -20.213  0.00  0.00    +0.115 C 
ATOM     28  C   UNL     1      34.910 -16.412 -22.656  0.00  0.00    +0.115 C 
ENDBRANCH  23  26
ENDBRANCH   7  23
TORSDOF 3
ENDMDL
MODEL 4
REMARK VINA RESULT:     -10.5      5.691      9.213
REMARK  Name = 5312137
REMARK  3 active torsions:
REMARK  status: ('A' for Active; 'I' for Inactive)
REMARK    1  A    between atoms: C_3  and  C_20
REMARK    2  A    between atoms: C_7  and  S_23
REMARK    3  A    between atoms: S_23  and  N_26
REMARK                            x       y       z     vdW  Elec       q    Type
REMARK                         _______ _______ _______ _____ _____    ______ ____
ROOT
ATOM      1  O   UNL     1      32.822 -12.737 -25.067  0.00  0.00    -0.270 OA
ATOM      2  N   UNL     1      33.323 -15.044 -25.153  0.00  0.00    -0.280 N 
ATOM      3  C   UNL     1      34.194 -12.875 -22.429  0.00  0.00    +0.019 C 
ATOM      4  C   UNL     1      34.001 -13.906 -23.288  0.00  0.00    +0.056 C 
ATOM      5  C   UNL     1      34.405 -15.300 -23.141  0.00  0.00    +0.019 C 
ATOM      6  C   UNL     1      33.969 -15.946 -24.300  0.00  0.00    +0.051 C 
ATOM      7  C   UNL     1      35.292 -17.365 -22.351  0.00  0.00    +0.122 C 
ATOM      8  C   UNL     1      35.071 -15.998 -22.151  0.00  0.00    +0.021 C 
ATOM      9  C   UNL     1      33.297 -13.758 -24.605  0.00  0.00    +0.250 C 
ATOM     10  C   UNL     1      34.176 -17.294 -24.518  0.00  0.00    +0.016 C 
ATOM     11  C   UNL     1      34.848 -18.007 -23.523  0.00  0.00    +0.021 C 
ATOM     12  H   UNL     1      32.937 -15.284 -26.027  0.00  0.00    +0.155 HD
ENDROOT
BRANCH   3  20
ATOM     13  N   UNL     1      32.584 -11.156 -22.083  0.00  0.00    -0.316 N 
ATOM     14  C   UNL     1      32.361  -9.844 -22.395  0.00  0.00    +0.021 C 
ATOM     15  C   UNL     1      33.416  -9.392 -23.160  0.00  0.00    -0.012 C 
ATOM     16  C   UNL     1      31.161  -9.061 -21.999  0.00  0.00    +0.041 C 
ATOM     17  C   UNL     1      33.500  -7.993 -23.661  0.00  0.00    +0.027 C 
ATOM     18  C   UNL     1      31.424  -7.560 -22.229  0.00  0.00    +0.006 C 
ATOM     19  C   UNL     1      32.131  -7.290 -23.572  0.00  0.00    +0.005 C 
ATOM     20  C   UNL     1      33.777 -11.551 -22.636  0.00  0.00    +0.048 C 
ATOM     21  C   UNL     1      34.316 -10.475 -23.309  0.00  0.00    +0.011 C 
ATOM     22  H   UNL     1      31.985 -11.726 -21.547  0.00  0.00    +0.152 HD
ENDBRANCH   3  20
BRANCH   7  23
ATOM     23  S   UNL     1      36.130 -18.291 -21.128  0.00  0.00    +0.063 S 
ATOM     24  O   UNL     1      37.439 -18.660 -21.657  0.00  0.00    -0.153 OA
ATOM     25  O   UNL     1      36.069 -17.547 -19.875  0.00  0.00    -0.153 OA
BRANCH  23  26
ATOM     26  N   UNL     1      35.166 -19.720 -20.978  0.00  0.00    -0.153 NA
ATOM     27  C   UNL     1      35.654 -20.785 -20.065  0.00  0.00    +0.115 C 
ATOM     28  C   UNL     1      33.693 -19.549 -20.898  0.00  0.00    +0.115 C 
ENDBRANCH  23  26
ENDBRANCH   7  23
TORSDOF 3
ENDMDL
MODEL 5
REMARK VINA RESULT:     -10.4      8.946     13.697
REMARK  Name = 5312137
REMARK  3 active torsions:
REMARK  status: ('A' for Active; 'I' for Inactive)
REMARK    1  A    between atoms: C_3  and  C_20
REMARK    2  A    between atoms: C_7  and  S_23
REMARK    3  A    between atoms: S_23  and  N_26
REMARK                            x       y       z     vdW  Elec       q    Type
REMARK                         _______ _______ _______ _____ _____    ______ ____
ROOT
ATOM      1  O   UNL     1      32.226 -13.282 -20.846  0.00  0.00    -0.270 OA
ATOM      2  N   UNL     1      31.657 -11.208 -19.869  0.00  0.00    -0.280 N 
ATOM      3  C   UNL     1      33.319 -11.578 -23.028  0.00  0.00    +0.019 C 
ATOM      4  C   UNL     1      32.715 -11.142 -21.896  0.00  0.00    +0.056 C 
ATOM      5  C   UNL     1      32.456  -9.770 -21.474  0.00  0.00    +0.019 C 
ATOM      6  C   UNL     1      31.812  -9.867 -20.238  0.00  0.00    +0.051 C 
ATOM      7  C   UNL     1      32.315  -7.396 -21.333  0.00  0.00    +0.122 C 
ATOM      8  C   UNL     1      32.716  -8.536 -22.039  0.00  0.00    +0.021 C 
ATOM      9  C   UNL     1      32.187 -12.066 -20.837  0.00  0.00    +0.250 C 
ATOM     10  C   UNL     1      31.408  -8.757 -19.525  0.00  0.00    +0.016 C 
ATOM     11  C   UNL     1      31.667  -7.505 -20.088  0.00  0.00    +0.021 C 
ATOM     12  H   UNL     1      31.229 -11.509 -19.034  0.00  0.00    +0.155 HD
ENDROOT
BRANCH   3  20
ATOM     13  N   UNL     1      34.427 -13.645 -22.618  0.00  0.00    -0.316 N 
ATOM     14  C   UNL     1      34.495 -14.919 -23.109  0.00  0.00    +0.021 C 
ATOM     15  C   UNL     1      33.644 -15.015 -24.192  0.00  0.00    -0.012 C 
ATOM     16  C   UNL     1      35.368 -15.997 -22.577  0.00  0.00    +0.041 C 
ATOM     17  C   UNL     1      33.462 -16.279 -24.956  0.00  0.00    +0.027 C 
ATOM     18  C   UNL     1      34.921 -17.356 -23.151  0.00  0.00    +0.006 C 
ATOM     19  C   UNL     1      34.599 -17.276 -24.657  0.00  0.00    +0.005 C 
ATOM     20  C   UNL     1      33.537 -12.921 -23.372  0.00  0.00    +0.048 C 
ATOM     21  C   UNL     1      33.034 -13.748 -24.355  0.00  0.00    +0.011 C 
ATOM     22  H   UNL     1      34.936 -13.302 -21.848  0.00  0.00    +0.152 HD
ENDBRANCH   3  20
BRANCH   7  23
ATOM     23  S   UNL     1      32.622  -5.812 -22.007  0.00  0.00    +0.063 S 
ATOM     24  O   UNL     1      32.667  -4.853 -20.909  0.00  0.00    -0.153 OA
ATOM     25  O   UNL     1      33.776  -5.912 -22.892  0.00  0.00    -0.153 OA
BRANCH  23  26
ATOM     26  N   UNL     1      31.211  -5.504 -22.960  0.00  0.00    -0.153 NA
ATOM     27  C   UNL     1      30.921  -4.092 -23.320  0.00  0.00    +0.115 C 
ATOM     28  C   UNL     1      30.920  -6.435 -24.079  0.00  0.00    +0.115 C 
ENDBRANCH  23  26
ENDBRANCH   7  23
TORSDOF 3
ENDMDL
MODEL 6
REMARK VINA RESULT:     -10.1      1.637      2.422
REMARK  Name = 5312137
REMARK  3 active torsions:
REMARK  status: ('A' for Active; 'I' for Inactive)
REMARK    1  A    between atoms: C_3  and  C_20
REMARK    2  A    between atoms: C_7  and  S_23
REMARK    3  A    between atoms: S_23  and  N_26
REMARK                            x       y       z     vdW  Elec       q    Type
REMARK                         _______ _______ _______ _____ _____    ______ ____
ROOT
ATOM      1  O   UNL     1      32.915 -21.931 -18.163  0.00  0.00    -0.270 OA
ATOM      2  N   UNL     1      32.778 -23.227 -16.193  0.00  0.00    -0.280 N 
ATOM      3  C   UNL     1      35.821 -21.867 -17.524  0.00  0.00    +0.019 C 
ATOM      4  C   UNL     1      34.856 -22.490 -16.805  0.00  0.00    +0.056 C 
ATOM      5  C   UNL     1      34.993 -23.262 -15.576  0.00  0.00    +0.019 C 
ATOM      6  C   UNL     1      33.702 -23.686 -15.247  0.00  0.00    +0.051 C 
ATOM      7  C   UNL     1      35.825 -24.375 -13.640  0.00  0.00    +0.122 C 
ATOM      8  C   UNL     1      36.070 -23.599 -14.779  0.00  0.00    +0.021 C 
ATOM      9  C   UNL     1      33.405 -22.477 -17.193  0.00  0.00    +0.250 C 
ATOM     10  C   UNL     1      33.437 -24.452 -14.130  0.00  0.00    +0.016 C 
ATOM     11  C   UNL     1      34.521 -24.797 -13.319  0.00  0.00    +0.021 C 
ATOM     12  H   UNL     1      31.811 -23.409 -16.159  0.00  0.00    +0.155 HD
ENDROOT
BRANCH   3  20
ATOM     13  N   UNL     1      36.598 -20.262 -19.101  0.00  0.00    -0.316 N 
ATOM     14  C   UNL     1      36.213 -19.657 -20.265  0.00  0.00    +0.021 C 
ATOM     15  C   UNL     1      34.970 -20.142 -20.618  0.00  0.00    -0.012 C 
ATOM     16  C   UNL     1      36.995 -18.626 -20.995  0.00  0.00    +0.041 C 
ATOM     17  C   UNL     1      34.260 -19.703 -21.850  0.00  0.00    +0.027 C 
ATOM     18  C   UNL     1      36.414 -18.442 -22.411  0.00  0.00    +0.006 C 
ATOM     19  C   UNL     1      34.873 -18.404 -22.409  0.00  0.00    +0.005 C 
ATOM     20  C   UNL     1      35.617 -21.137 -18.705  0.00  0.00    +0.048 C 
ATOM     21  C   UNL     1      34.595 -21.084 -19.629  0.00  0.00    +0.011 C 
ATOM     22  H   UNL     1      37.444 -20.097 -18.625  0.00  0.00    +0.152 HD
ENDBRANCH   3  20
BRANCH   7  23
ATOM     23  S   UNL     1      37.156 -24.826 -12.601  0.00  0.00    +0.063 S 
ATOM     24  O   UNL     1      37.981 -23.643 -12.382  0.00  0.00    -0.153 OA
ATOM     25  O   UNL     1      36.611 -25.520 -11.441  0.00  0.00    -0.153 OA
BRANCH  23  26
ATOM     26  N   UNL     1      38.047 -25.956 -13.562  0.00  0.00    -0.153 NA
ATOM     27  C   UNL     1      37.272 -26.900 -14.407  0.00  0.00    +0.115 C 
ATOM     28  C   UNL     1      39.263 -25.460 -14.255  0.00  0.00    +0.115 C 
ENDBRANCH  23  26
ENDBRANCH   7  23
TORSDOF 3
ENDMDL
MODEL 7
REMARK VINA RESULT:     -10.0      5.442     10.627
REMARK  Name = 5312137
REMARK  3 active torsions:
REMARK  status: ('A' for Active; 'I' for Inactive)
REMARK    1  A    between atoms: C_3  and  C_20
REMARK    2  A    between atoms: C_7  and  S_23
REMARK    3  A    between atoms: S_23  and  N_26
REMARK                            x       y       z     vdW  Elec       q    Type
REMARK                         _______ _______ _______ _____ _____    ______ ____
ROOT
ATOM      1  O   UNL     1      34.661 -18.774 -23.608  0.00  0.00    -0.270 OA
ATOM      2  N   UNL     1      34.031 -16.989 -25.022  0.00  0.00    -0.280 N 
ATOM      3  C   UNL     1      35.012 -16.614 -21.589  0.00  0.00    +0.019 C 
ATOM      4  C   UNL     1      34.610 -16.454 -22.874  0.00  0.00    +0.056 C 
ATOM      5  C   UNL     1      34.258 -15.221 -23.569  0.00  0.00    +0.019 C 
ATOM      6  C   UNL     1      33.915 -15.603 -24.869  0.00  0.00    +0.051 C 
ATOM      7  C   UNL     1      33.823 -12.951 -24.146  0.00  0.00    +0.122 C 
ATOM      8  C   UNL     1      34.218 -13.893 -23.190  0.00  0.00    +0.021 C 
ATOM      9  C   UNL     1      34.456 -17.596 -23.836  0.00  0.00    +0.250 C 
ATOM     10  C   UNL     1      33.523 -14.691 -25.828  0.00  0.00    +0.016 C 
ATOM     11  C   UNL     1      33.479 -13.346 -25.453  0.00  0.00    +0.021 C 
ATOM     12  H   UNL     1      33.838 -17.475 -25.857  0.00  0.00    +0.155 HD
ENDROOT
BRANCH   3  20
ATOM     13  N   UNL     1      34.307 -18.669 -20.616  0.00  0.00    -0.316 N 
ATOM     14  C   UNL     1      34.828 -19.799 -20.049  0.00  0.00    +0.021 C 
ATOM     15  C   UNL     1      36.203 -19.691 -20.045  0.00  0.00    -0.012 C 
ATOM     16  C   UNL     1      34.031 -20.928 -19.502  0.00  0.00    +0.041 C 
ATOM     17  C   UNL     1      37.088 -20.762 -19.510  0.00  0.00    +0.027 C 
ATOM     18  C   UNL     1      34.949 -22.145 -19.272  0.00  0.00    +0.006 C 
ATOM     19  C   UNL     1      36.294 -21.750 -18.632  0.00  0.00    +0.005 C 
ATOM     20  C   UNL     1      35.336 -17.837 -20.982  0.00  0.00    +0.048 C 
ATOM     21  C   UNL     1      36.525 -18.448 -20.641  0.00  0.00    +0.011 C 
ATOM     22  H   UNL     1      33.348 -18.483 -20.741  0.00  0.00    +0.152 HD
ENDBRANCH   3  20
BRANCH   7  23
ATOM     23  S   UNL     1      33.756 -11.259 -23.713  0.00  0.00    +0.063 S 
ATOM     24  O   UNL     1      35.117 -10.804 -23.452  0.00  0.00    -0.153 OA
ATOM     25  O   UNL     1      32.971 -10.562 -24.725  0.00  0.00    -0.153 OA
BRANCH  23  26
ATOM     26  N   UNL     1      32.873 -11.263 -22.225  0.00  0.00    -0.153 NA
ATOM     27  C   UNL     1      32.251  -9.986 -21.793  0.00  0.00    +0.115 C 
ATOM     28  C   UNL     1      31.999 -12.430 -21.948  0.00  0.00    +0.115 C 
ENDBRANCH  23  26
ENDBRANCH   7  23
TORSDOF 3
ENDMDL
MODEL 8
REMARK VINA RESULT:      -9.4      3.398      4.623
REMARK  Name = 5312137
REMARK  3 active torsions:
REMARK  status: ('A' for Active; 'I' for Inactive)
REMARK    1  A    between atoms: C_3  and  C_20
REMARK    2  A    between atoms: C_7  and  S_23
REMARK    3  A    between atoms: S_23  and  N_26
REMARK                            x       y       z     vdW  Elec       q    Type
REMARK                         _______ _______ _______ _____ _____    ______ ____
ROOT
ATOM      1  O   UNL     1      36.177 -21.614 -18.152  0.00  0.00    -0.270 OA
ATOM      2  N   UNL     1      35.676 -22.950 -16.269  0.00  0.00    -0.280 N 
ATOM      3  C   UNL     1      33.217 -21.498 -18.443  0.00  0.00    +0.019 C 
ATOM      4  C   UNL     1      33.903 -22.155 -17.477  0.00  0.00    +0.056 C 
ATOM      5  C   UNL     1      33.379 -22.947 -16.369  0.00  0.00    +0.019 C 
ATOM      6  C   UNL     1      34.497 -23.406 -15.668  0.00  0.00    +0.051 C 
ATOM      7  C   UNL     1      31.970 -24.079 -14.816  0.00  0.00    +0.122 C 
ATOM      8  C   UNL     1      32.102 -23.277 -15.956  0.00  0.00    +0.021 C 
ATOM      9  C   UNL     1      35.402 -22.168 -17.395  0.00  0.00    +0.250 C 
ATOM     10  C   UNL     1      34.390 -24.199 -14.543  0.00  0.00    +0.016 C 
ATOM     11  C   UNL     1      33.104 -24.536 -14.117  0.00  0.00    +0.021 C 
ATOM     12  H   UNL     1      36.582 -23.153 -15.940  0.00  0.00    +0.155 HD
ENDROOT
BRANCH   3  20
ATOM     13  N   UNL     1      35.070 -20.287 -19.319  0.00  0.00    -0.316 N 
ATOM     14  C   UNL     1      35.440 -19.591 -20.436  0.00  0.00    +0.021 C 
ATOM     15  C   UNL     1      34.387 -19.603 -21.327  0.00  0.00    -0.012 C 
ATOM     16  C   UNL     1      36.748 -18.912 -20.628  0.00  0.00    +0.041 C 
ATOM     17  C   UNL     1      34.459 -18.946 -22.660  0.00  0.00    +0.027 C 
ATOM     18  C   UNL     1      36.926 -18.541 -22.114  0.00  0.00    +0.006 C 
ATOM     19  C   UNL     1      35.639 -17.956 -22.727  0.00  0.00    +0.005 C 
ATOM     20  C   UNL     1      33.789 -20.751 -19.485  0.00  0.00    +0.048 C 
ATOM     21  C   UNL     1      33.340 -20.342 -20.724  0.00  0.00    +0.011 C 
ATOM     22  H   UNL     1      35.632 -20.431 -18.523  0.00  0.00    +0.152 HD
ENDBRANCH   3  20
BRANCH   7  23
ATOM     23  S   UNL     1      30.376 -24.522 -14.254  0.00  0.00    +0.063 S 
ATOM     24  O   UNL     1      30.171 -25.938 -14.540  0.00  0.00    -0.153 OA
ATOM     25  O   UNL     1      30.236 -24.062 -12.878  0.00  0.00    -0.153 OA
BRANCH  23  26
ATOM     26  N   UNL     1      29.324 -23.592 -15.265  0.00  0.00    -0.153 NA
ATOM     27  C   UNL     1      28.359 -24.333 -16.118  0.00  0.00    +0.115 C 
ATOM     28  C   UNL     1      28.725 -22.363 -14.687  0.00  0.00    +0.115 C 
ENDBRANCH  23  26
ENDBRANCH   7  23
TORSDOF 3
ENDMDL
MODEL 9
REMARK VINA RESULT:      -9.2      3.472      9.110
REMARK  Name = 5312137
REMARK  3 active torsions:
REMARK  status: ('A' for Active; 'I' for Inactive)
REMARK    1  A    between atoms: C_3  and  C_20
REMARK    2  A    between atoms: C_7  and  S_23
REMARK    3  A    between atoms: S_23  and  N_26
REMARK                            x       y       z     vdW  Elec       q    Type
REMARK                         _______ _______ _______ _____ _____    ______ ____
ROOT
ATOM      1  O   UNL     1      36.066 -21.290 -17.781  0.00  0.00    -0.270 OA
ATOM      2  N   UNL     1      36.915 -19.921 -19.509  0.00  0.00    -0.280 N 
ATOM      3  C   UNL     1      33.541 -21.134 -19.349  0.00  0.00    +0.019 C 
ATOM      4  C   UNL     1      34.719 -20.545 -19.666  0.00  0.00    +0.056 C 
ATOM      5  C   UNL     1      35.039 -19.713 -20.821  0.00  0.00    +0.019 C 
ATOM      6  C   UNL     1      36.383 -19.360 -20.676  0.00  0.00    +0.051 C 
ATOM      7  C   UNL     1      34.954 -18.462 -22.847  0.00  0.00    +0.122 C 
ATOM      8  C   UNL     1      34.306 -19.269 -21.905  0.00  0.00    +0.021 C 
ATOM      9  C   UNL     1      35.955 -20.670 -18.822  0.00  0.00    +0.250 C 
ATOM     10  C   UNL     1      37.042 -18.566 -21.592  0.00  0.00    +0.016 C 
ATOM     11  C   UNL     1      36.309 -18.114 -22.691  0.00  0.00    +0.021 C 
ATOM     12  H   UNL     1      37.846 -19.803 -19.210  0.00  0.00    +0.155 HD
ENDROOT
BRANCH   3  20
ATOM     13  N   UNL     1      32.034 -21.944 -17.694  0.00  0.00    -0.316 N 
ATOM     14  C   UNL     1      32.010 -22.769 -16.605  0.00  0.00    +0.021 C 
ATOM     15  C   UNL     1      33.277 -23.284 -16.420  0.00  0.00    -0.012 C 
ATOM     16  C   UNL     1      30.821 -23.031 -15.753  0.00  0.00    +0.041 C 
ATOM     17  C   UNL     1      33.601 -24.238 -15.325  0.00  0.00    +0.027 C 
ATOM     18  C   UNL     1      31.086 -24.255 -14.855  0.00  0.00    +0.006 C 
ATOM     19  C   UNL     1      32.502 -24.236 -14.244  0.00  0.00    +0.005 C 
ATOM     20  C   UNL     1      33.303 -21.926 -18.216  0.00  0.00    +0.048 C 
ATOM     21  C   UNL     1      34.096 -22.751 -17.445  0.00  0.00    +0.011 C 
ATOM     22  H   UNL     1      31.263 -21.442 -18.047  0.00  0.00    +0.152 HD
ENDBRANCH   3  20
BRANCH   7  23
ATOM     23  S   UNL     1      34.069 -17.877 -24.236  0.00  0.00    +0.063 S 
ATOM     24  O   UNL     1      34.950 -17.948 -25.397  0.00  0.00    -0.153 OA
ATOM     25  O   UNL     1      32.791 -18.576 -24.287  0.00  0.00    -0.153 OA
BRANCH  23  26
ATOM     26  N   UNL     1      33.783 -16.213 -23.855  0.00  0.00    -0.153 NA
ATOM     27  C   UNL     1      34.692 -15.568 -22.874  0.00  0.00    +0.115 C 
ATOM     28  C   UNL     1      33.435 -15.302 -24.975  0.00  0.00    +0.115 C 
ENDBRANCH  23  26
ENDBRANCH   7  23
TORSDOF 3
ENDMDL
