MODEL 1
REMARK VINA RESULT:     -12.0      0.000      0.000
REMARK  Name = 447656
REMARK  5 active torsions:
REMARK  status: ('A' for Active; 'I' for Inactive)
REMARK    1  A    between atoms: N_5  and  C_14
REMARK    2  A    between atoms: C_6  and  O_25
REMARK    3  A    between atoms: C_17  and  C_22
REMARK    4  A    between atoms: O_25  and  C_26
REMARK    5  A    between atoms: C_26  and  C_27
REMARK                            x       y       z     vdW  Elec       q    Type
REMARK                         _______ _______ _______ _____ _____    ______ ____
ROOT
ATOM      1  N   UNL     1      34.040 -23.915 -14.934  0.00  0.00    -0.293 NA
ATOM      2  N   UNL     1      30.553 -22.999 -15.660  0.00  0.00    -0.266 NA
ATOM      3  N   UNL     1      32.542 -24.093 -13.016  0.00  0.00    -0.316 NA
ATOM      4  N   UNL     1      30.240 -23.484 -13.507  0.00  0.00    -0.296 N 
ATOM      5  N   UNL     1      34.816 -24.615 -12.838  0.00  0.00    -0.238 N 
ATOM      6  C   UNL     1      33.035 -23.500 -15.735  0.00  0.00    +0.288 C 
ATOM      7  C   UNL     1      31.776 -23.377 -15.184  0.00  0.00    +0.215 C 
ATOM      8  C   UNL     1      31.556 -23.674 -13.846  0.00  0.00    +0.196 C 
ATOM      9  C   UNL     1      33.736 -24.183 -13.642  0.00  0.00    +0.207 C 
ATOM     10  C   UNL     1      29.666 -23.079 -14.620  0.00  0.00    +0.164 C 
ATOM     11  H   UNL     1      30.348 -22.719 -16.582  0.00  0.00    +0.126 HD
ATOM     12  H   UNL     1      29.819 -23.622 -12.628  0.00  0.00    +0.150 HD
ATOM     13  H   UNL     1      34.566 -24.802 -11.905  0.00  0.00    +0.166 HD
ENDROOT
BRANCH   5  14
ATOM     14  C   UNL     1      36.179 -24.829 -13.112  0.00  0.00    +0.058 C 
ATOM     15  C   UNL     1      36.562 -25.774 -14.068  0.00  0.00    +0.015 C 
ATOM     16  C   UNL     1      37.155 -24.099 -12.430  0.00  0.00    +0.015 C 
ATOM     17  C   UNL     1      38.886 -25.256 -13.657  0.00  0.00    +0.053 C 
ATOM     18  C   UNL     1      37.913 -25.987 -14.340  0.00  0.00    +0.006 C 
ATOM     19  C   UNL     1      38.507 -24.312 -12.703  0.00  0.00    +0.006 C 
BRANCH  17  22
ATOM     20  O   UNL     1      41.021 -24.563 -14.370  0.00  0.00    -0.270 OA
ATOM     21  N   UNL     1      40.812 -26.746 -13.698  0.00  0.00    -0.325 N 
ATOM     22  C   UNL     1      40.294 -25.478 -13.941  0.00  0.00    +0.243 C 
ATOM     23  H   UNL     1      41.762 -26.933 -13.880  0.00  0.00    +0.145 HD
ATOM     24  H   UNL     1      40.229 -27.458 -13.347  0.00  0.00    +0.145 HD
ENDBRANCH  17  22
ENDBRANCH   5  14
BRANCH   6  25
ATOM     25  O   UNL     1      33.309 -23.219 -17.051  0.00  0.00    -0.453 OA
BRANCH  25  26
ATOM     26  C   UNL     1      34.581 -22.666 -17.339  0.00  0.00    +0.208 C 
BRANCH  26  27
ATOM     27  C   UNL     1      34.516 -21.993 -18.709  0.00  0.00    +0.044 C 
ATOM     28  C   UNL     1      33.219 -21.185 -18.856  0.00  0.00    +0.004 C 
ATOM     29  C   UNL     1      35.744 -21.099 -18.932  0.00  0.00    +0.004 C 
ATOM     30  C   UNL     1      33.156 -20.459 -20.198  0.00  0.00    +0.000 C 
ATOM     31  C   UNL     1      35.676 -20.373 -20.273  0.00  0.00    +0.000 C 
ATOM     32  C   UNL     1      34.382 -19.579 -20.419  0.00  0.00    +0.000 C 
ENDBRANCH  26  27
ENDBRANCH  25  26
ENDBRANCH   6  25
TORSDOF 5
ENDMDL
MODEL 2
REMARK VINA RESULT:     -11.3      2.614      7.032
REMARK  Name = 447656
REMARK  5 active torsions:
REMARK  status: ('A' for Active; 'I' for Inactive)
REMARK    1  A    between atoms: N_5  and  C_14
REMARK    2  A    between atoms: C_6  and  O_25
REMARK    3  A    between atoms: C_17  and  C_22
REMARK    4  A    between atoms: O_25  and  C_26
REMARK    5  A    between atoms: C_26  and  C_27
REMARK                            x       y       z     vdW  Elec       q    Type
REMARK                         _______ _______ _______ _____ _____    ______ ____
ROOT
ATOM      1  N   UNL     1      33.802 -22.683 -15.951  0.00  0.00    -0.293 NA
ATOM      2  N   UNL     1      32.598 -24.568 -13.032  0.00  0.00    -0.266 NA
ATOM      3  N   UNL     1      31.555 -23.598 -16.212  0.00  0.00    -0.316 NA
ATOM      4  N   UNL     1      30.770 -24.843 -14.277  0.00  0.00    -0.296 N 
ATOM      5  N   UNL     1      32.569 -22.355 -17.916  0.00  0.00    -0.238 N 
ATOM      6  C   UNL     1      33.914 -23.198 -14.708  0.00  0.00    +0.288 C 
ATOM      7  C   UNL     1      32.849 -23.917 -14.206  0.00  0.00    +0.215 C 
ATOM      8  C   UNL     1      31.699 -24.102 -14.962  0.00  0.00    +0.196 C 
ATOM      9  C   UNL     1      32.645 -22.911 -16.618  0.00  0.00    +0.207 C 
ATOM     10  C   UNL     1      31.343 -25.106 -13.122  0.00  0.00    +0.164 C 
ATOM     11  H   UNL     1      33.210 -24.637 -12.263  0.00  0.00    +0.126 HD
ATOM     12  H   UNL     1      29.875 -25.116 -14.581  0.00  0.00    +0.150 HD
ATOM     13  H   UNL     1      31.718 -22.537 -18.376  0.00  0.00    +0.166 HD
ENDROOT
BRANCH   5  14
ATOM     14  C   UNL     1      33.472 -21.593 -18.677  0.00  0.00    +0.058 C 
ATOM     15  C   UNL     1      32.999 -20.599 -19.538  0.00  0.00    +0.015 C 
ATOM     16  C   UNL     1      34.846 -21.825 -18.578  0.00  0.00    +0.015 C 
ATOM     17  C   UNL     1      35.265 -20.077 -20.192  0.00  0.00    +0.053 C 
ATOM     18  C   UNL     1      33.894 -19.842 -20.294  0.00  0.00    +0.006 C 
ATOM     19  C   UNL     1      35.742 -21.068 -19.333  0.00  0.00    +0.006 C 
BRANCH  17  22
ATOM     20  O   UNL     1      37.329 -18.998 -20.546  0.00  0.00    -0.270 OA
ATOM     21  N   UNL     1      35.794 -18.880 -22.247  0.00  0.00    -0.325 N 
ATOM     22  C   UNL     1      36.199 -19.287 -20.979  0.00  0.00    +0.243 C 
ATOM     23  H   UNL     1      36.400 -18.343 -22.808  0.00  0.00    +0.145 HD
ATOM     24  H   UNL     1      34.902 -19.127 -22.582  0.00  0.00    +0.145 HD
ENDBRANCH  17  22
ENDBRANCH   5  14
BRANCH   6  25
ATOM     25  O   UNL     1      35.074 -22.985 -14.004  0.00  0.00    -0.453 OA
BRANCH  25  26
ATOM     26  C   UNL     1      36.292 -23.144 -14.709  0.00  0.00    +0.208 C 
BRANCH  26  27
ATOM     27  C   UNL     1      37.149 -24.169 -13.970  0.00  0.00    +0.044 C 
ATOM     28  C   UNL     1      37.177 -23.868 -12.465  0.00  0.00    +0.004 C 
ATOM     29  C   UNL     1      36.639 -25.592 -14.232  0.00  0.00    +0.004 C 
ATOM     30  C   UNL     1      37.985 -24.911 -11.696  0.00  0.00    +0.000 C 
ATOM     31  C   UNL     1      37.448 -26.632 -13.460  0.00  0.00    +0.000 C 
ATOM     32  C   UNL     1      37.481 -26.324 -11.966  0.00  0.00    +0.000 C 
ENDBRANCH  26  27
ENDBRANCH  25  26
ENDBRANCH   6  25
TORSDOF 5
ENDMDL
MODEL 3
REMARK VINA RESULT:     -11.0      8.305     11.952
REMARK  Name = 447656
REMARK  5 active torsions:
REMARK  status: ('A' for Active; 'I' for Inactive)
REMARK    1  A    between atoms: N_5  and  C_14
REMARK    2  A    between atoms: C_6  and  O_25
REMARK    3  A    between atoms: C_17  and  C_22
REMARK    4  A    between atoms: O_25  and  C_26
REMARK    5  A    between atoms: C_26  and  C_27
REMARK                            x       y       z     vdW  Elec       q    Type
REMARK                         _______ _______ _______ _____ _____    ______ ____
ROOT
ATOM      1  N   UNL     1      34.285 -15.263 -22.976  0.00  0.00    -0.293 NA
ATOM      2  N   UNL     1      33.357 -12.228 -24.833  0.00  0.00    -0.266 NA
ATOM      3  N   UNL     1      34.255 -15.547 -25.399  0.00  0.00    -0.316 NA
ATOM      4  N   UNL     1      33.640 -13.535 -26.616  0.00  0.00    -0.296 N 
ATOM      5  N   UNL     1      34.812 -17.317 -23.973  0.00  0.00    -0.238 N 
ATOM      6  C   UNL     1      33.921 -13.968 -23.080  0.00  0.00    +0.288 C 
ATOM      7  C   UNL     1      33.720 -13.451 -24.343  0.00  0.00    +0.215 C 
ATOM      8  C   UNL     1      33.890 -14.244 -25.469  0.00  0.00    +0.196 C 
ATOM      9  C   UNL     1      34.429 -15.964 -24.126  0.00  0.00    +0.207 C 
ATOM     10  C   UNL     1      33.323 -12.328 -26.198  0.00  0.00    +0.164 C 
ATOM     11  H   UNL     1      33.157 -11.424 -24.301  0.00  0.00    +0.126 HD
ATOM     12  H   UNL     1      33.688 -13.856 -27.546  0.00  0.00    +0.150 HD
ATOM     13  H   UNL     1      34.909 -17.800 -24.824  0.00  0.00    +0.166 HD
ENDROOT
BRANCH   5  14
ATOM     14  C   UNL     1      35.082 -18.106 -22.841  0.00  0.00    +0.058 C 
ATOM     15  C   UNL     1      36.302 -17.979 -22.171  0.00  0.00    +0.015 C 
ATOM     16  C   UNL     1      34.132 -19.020 -22.380  0.00  0.00    +0.015 C 
ATOM     17  C   UNL     1      35.619 -19.673 -20.591  0.00  0.00    +0.053 C 
ATOM     18  C   UNL     1      36.570 -18.761 -21.048  0.00  0.00    +0.006 C 
ATOM     19  C   UNL     1      34.400 -19.803 -21.256  0.00  0.00    +0.006 C 
BRANCH  17  22
ATOM     20  O   UNL     1      36.858 -20.238 -18.669  0.00  0.00    -0.270 OA
ATOM     21  N   UNL     1      35.041 -21.552 -19.151  0.00  0.00    -0.325 N 
ATOM     22  C   UNL     1      35.898 -20.488 -19.420  0.00  0.00    +0.243 C 
ATOM     23  H   UNL     1      35.199 -22.126 -18.367  0.00  0.00    +0.145 HD
ATOM     24  H   UNL     1      34.278 -21.731 -19.747  0.00  0.00    +0.145 HD
ENDBRANCH  17  22
ENDBRANCH   5  14
BRANCH   6  25
ATOM     25  O   UNL     1      33.766 -13.228 -21.932  0.00  0.00    -0.453 OA
BRANCH  25  26
ATOM     26  C   UNL     1      32.600 -13.468 -21.166  0.00  0.00    +0.208 C 
BRANCH  26  27
ATOM     27  C   UNL     1      31.906 -12.132 -20.908  0.00  0.00    +0.044 C 
ATOM     28  C   UNL     1      32.131 -11.675 -19.460  0.00  0.00    +0.004 C 
ATOM     29  C   UNL     1      32.396 -11.067 -21.898  0.00  0.00    +0.004 C 
ATOM     30  C   UNL     1      31.491 -10.314 -19.193  0.00  0.00    +0.000 C 
ATOM     31  C   UNL     1      31.757  -9.708 -21.626  0.00  0.00    +0.000 C 
ATOM     32  C   UNL     1      31.973  -9.261 -20.184  0.00  0.00    +0.000 C 
ENDBRANCH  26  27
ENDBRANCH  25  26
ENDBRANCH   6  25
TORSDOF 5
ENDMDL
MODEL 4
REMARK VINA RESULT:     -10.6      2.778      5.493
REMARK  Name = 447656
REMARK  5 active torsions:
REMARK  status: ('A' for Active; 'I' for Inactive)
REMARK    1  A    between atoms: N_5  and  C_14
REMARK    2  A    between atoms: C_6  and  O_25
REMARK    3  A    between atoms: C_17  and  C_22
REMARK    4  A    between atoms: O_25  and  C_26
REMARK    5  A    between atoms: C_26  and  C_27
REMARK                            x       y       z     vdW  Elec       q    Type
REMARK                         _______ _______ _______ _____ _____    ______ ____
ROOT
ATOM      1  N   UNL     1      35.011 -22.467 -17.132  0.00  0.00    -0.293 NA
ATOM      2  N   UNL     1      33.460 -20.918 -20.085  0.00  0.00    -0.266 NA
ATOM      3  N   UNL     1      36.472 -20.924 -18.332  0.00  0.00    -0.316 NA
ATOM      4  N   UNL     1      35.436 -19.907 -20.283  0.00  0.00    -0.296 N 
ATOM      5  N   UNL     1      37.202 -22.050 -16.415  0.00  0.00    -0.238 N 
ATOM      6  C   UNL     1      34.000 -22.253 -18.001  0.00  0.00    +0.288 C 
ATOM      7  C   UNL     1      34.215 -21.374 -19.042  0.00  0.00    +0.215 C 
ATOM      8  C   UNL     1      35.438 -20.731 -19.187  0.00  0.00    +0.196 C 
ATOM      9  C   UNL     1      36.169 -21.798 -17.348  0.00  0.00    +0.207 C 
ATOM     10  C   UNL     1      34.234 -20.043 -20.799  0.00  0.00    +0.164 C 
ATOM     11  H   UNL     1      32.531 -21.174 -20.287  0.00  0.00    +0.126 HD
ATOM     12  H   UNL     1      36.171 -19.339 -20.610  0.00  0.00    +0.150 HD
ATOM     13  H   UNL     1      38.030 -21.550 -16.597  0.00  0.00    +0.166 HD
ENDROOT
BRANCH   5  14
ATOM     14  C   UNL     1      37.276 -22.874 -15.279  0.00  0.00    +0.058 C 
ATOM     15  C   UNL     1      36.293 -22.795 -14.289  0.00  0.00    +0.015 C 
ATOM     16  C   UNL     1      38.333 -23.776 -15.134  0.00  0.00    +0.015 C 
ATOM     17  C   UNL     1      37.423 -24.513 -13.020  0.00  0.00    +0.053 C 
ATOM     18  C   UNL     1      36.366 -23.613 -13.162  0.00  0.00    +0.006 C 
ATOM     19  C   UNL     1      38.406 -24.595 -14.007  0.00  0.00    +0.006 C 
BRANCH  17  22
ATOM     20  O   UNL     1      37.769 -24.902 -10.723  0.00  0.00    -0.270 OA
ATOM     21  N   UNL     1      37.239 -26.723 -12.013  0.00  0.00    -0.325 N 
ATOM     22  C   UNL     1      37.499 -25.366 -11.846  0.00  0.00    +0.243 C 
ATOM     23  H   UNL     1      37.282 -27.332 -11.240  0.00  0.00    +0.145 HD
ATOM     24  H   UNL     1      37.014 -27.076 -12.905  0.00  0.00    +0.145 HD
ENDBRANCH  17  22
ENDBRANCH   5  14
BRANCH   6  25
ATOM     25  O   UNL     1      32.812 -22.916 -17.812  0.00  0.00    -0.453 OA
BRANCH  25  26
ATOM     26  C   UNL     1      32.000 -22.484 -16.736  0.00  0.00    +0.208 C 
BRANCH  26  27
ATOM     27  C   UNL     1      31.893 -23.623 -15.723  0.00  0.00    +0.044 C 
ATOM     28  C   UNL     1      32.699 -23.299 -14.457  0.00  0.00    +0.004 C 
ATOM     29  C   UNL     1      30.426 -23.906 -15.378  0.00  0.00    +0.004 C 
ATOM     30  C   UNL     1      32.565 -24.399 -13.406  0.00  0.00    +0.000 C 
ATOM     31  C   UNL     1      30.296 -25.005 -14.325  0.00  0.00    +0.000 C 
ATOM     32  C   UNL     1      31.105 -24.684 -13.073  0.00  0.00    +0.000 C 
ENDBRANCH  26  27
ENDBRANCH  25  26
ENDBRANCH   6  25
TORSDOF 5
ENDMDL
MODEL 5
REMARK VINA RESULT:     -10.5      2.716      7.171
REMARK  Name = 447656
REMARK  5 active torsions:
REMARK  status: ('A' for Active; 'I' for Inactive)
REMARK    1  A    between atoms: N_5  and  C_14
REMARK    2  A    between atoms: C_6  and  O_25
REMARK    3  A    between atoms: C_17  and  C_22
REMARK    4  A    between atoms: O_25  and  C_26
REMARK    5  A    between atoms: C_26  and  C_27
REMARK                            x       y       z     vdW  Elec       q    Type
REMARK                         _______ _______ _______ _____ _____    ______ ____
ROOT
ATOM      1  N   UNL     1      35.084 -23.061 -15.769  0.00  0.00    -0.293 NA
ATOM      2  N   UNL     1      35.308 -24.987 -12.644  0.00  0.00    -0.266 NA
ATOM      3  N   UNL     1      37.353 -23.302 -14.906  0.00  0.00    -0.316 NA
ATOM      4  N   UNL     1      37.490 -24.576 -12.840  0.00  0.00    -0.296 N 
ATOM      5  N   UNL     1      36.920 -22.124 -16.881  0.00  0.00    -0.238 N 
ATOM      6  C   UNL     1      34.572 -23.772 -14.742  0.00  0.00    +0.288 C 
ATOM      7  C   UNL     1      35.445 -24.253 -13.788  0.00  0.00    +0.215 C 
ATOM      8  C   UNL     1      36.809 -24.011 -13.888  0.00  0.00    +0.196 C 
ATOM      9  C   UNL     1      36.425 -22.873 -15.789  0.00  0.00    +0.207 C 
ATOM     10  C   UNL     1      36.558 -25.154 -12.112  0.00  0.00    +0.164 C 
ATOM     11  H   UNL     1      34.464 -25.331 -12.270  0.00  0.00    +0.126 HD
ATOM     12  H   UNL     1      38.459 -24.554 -12.671  0.00  0.00    +0.150 HD
ATOM     13  H   UNL     1      37.896 -22.003 -16.869  0.00  0.00    +0.166 HD
ENDROOT
BRANCH   5  14
ATOM     14  C   UNL     1      36.289 -21.518 -17.982  0.00  0.00    +0.058 C 
ATOM     15  C   UNL     1      34.954 -21.810 -18.274  0.00  0.00    +0.015 C 
ATOM     16  C   UNL     1      36.993 -20.621 -18.788  0.00  0.00    +0.015 C 
ATOM     17  C   UNL     1      35.033 -20.314 -20.169  0.00  0.00    +0.053 C 
ATOM     18  C   UNL     1      34.327 -21.210 -19.366  0.00  0.00    +0.006 C 
ATOM     19  C   UNL     1      36.366 -20.019 -19.880  0.00  0.00    +0.006 C 
BRANCH  17  22
ATOM     20  O   UNL     1      33.142 -19.683 -21.422  0.00  0.00    -0.270 OA
ATOM     21  N   UNL     1      35.188 -19.070 -22.257  0.00  0.00    -0.325 N 
ATOM     22  C   UNL     1      34.381 -19.687 -21.306  0.00  0.00    +0.243 C 
ATOM     23  H   UNL     1      34.780 -18.636 -23.042  0.00  0.00    +0.145 HD
ATOM     24  H   UNL     1      36.166 -19.070 -22.148  0.00  0.00    +0.145 HD
ENDBRANCH  17  22
ENDBRANCH   5  14
BRANCH   6  25
ATOM     25  O   UNL     1      33.215 -23.982 -14.691  0.00  0.00    -0.453 OA
BRANCH  25  26
ATOM     26  C   UNL     1      32.475 -23.183 -13.786  0.00  0.00    +0.208 C 
BRANCH  26  27
ATOM     27  C   UNL     1      30.995 -23.286 -14.149  0.00  0.00    +0.044 C 
ATOM     28  C   UNL     1      30.766 -22.885 -15.613  0.00  0.00    +0.004 C 
ATOM     29  C   UNL     1      30.468 -24.702 -13.882  0.00  0.00    +0.004 C 
ATOM     30  C   UNL     1      29.300 -23.031 -16.015  0.00  0.00    +0.000 C 
ATOM     31  C   UNL     1      29.003 -24.845 -14.288  0.00  0.00    +0.000 C 
ATOM     32  C   UNL     1      28.779 -24.437 -15.740  0.00  0.00    +0.000 C 
ENDBRANCH  26  27
ENDBRANCH  25  26
ENDBRANCH   6  25
TORSDOF 5
ENDMDL
MODEL 6
REMARK VINA RESULT:      -9.8      6.182      9.216
REMARK  Name = 447656
REMARK  5 active torsions:
REMARK  status: ('A' for Active; 'I' for Inactive)
REMARK    1  A    between atoms: N_5  and  C_14
REMARK    2  A    between atoms: C_6  and  O_25
REMARK    3  A    between atoms: C_17  and  C_22
REMARK    4  A    between atoms: O_25  and  C_26
REMARK    5  A    between atoms: C_26  and  C_27
REMARK                            x       y       z     vdW  Elec       q    Type
REMARK                         _______ _______ _______ _____ _____    ______ ____
ROOT
ATOM      1  N   UNL     1      35.113 -17.878 -21.342  0.00  0.00    -0.293 NA
ATOM      2  N   UNL     1      34.525 -15.363 -23.960  0.00  0.00    -0.266 NA
ATOM      3  N   UNL     1      34.334 -18.806 -23.460  0.00  0.00    -0.316 NA
ATOM      4  N   UNL     1      33.948 -17.135 -25.183  0.00  0.00    -0.296 N 
ATOM      5  N   UNL     1      34.788 -20.180 -21.621  0.00  0.00    -0.238 N 
ATOM      6  C   UNL     1      35.084 -16.620 -21.833  0.00  0.00    +0.288 C 
ATOM      7  C   UNL     1      34.679 -16.445 -23.140  0.00  0.00    +0.215 C 
ATOM      8  C   UNL     1      34.315 -17.532 -23.923  0.00  0.00    +0.196 C 
ATOM      9  C   UNL     1      34.742 -18.880 -22.174  0.00  0.00    +0.207 C 
ATOM     10  C   UNL     1      34.086 -15.826 -25.171  0.00  0.00    +0.164 C 
ATOM     11  H   UNL     1      34.697 -14.423 -23.723  0.00  0.00    +0.126 HD
ATOM     12  H   UNL     1      33.649 -17.702 -25.930  0.00  0.00    +0.150 HD
ATOM     13  H   UNL     1      34.513 -20.888 -22.248  0.00  0.00    +0.166 HD
ENDROOT
BRANCH   5  14
ATOM     14  C   UNL     1      35.149 -20.660 -20.350  0.00  0.00    +0.058 C 
ATOM     15  C   UNL     1      34.196 -21.282 -19.538  0.00  0.00    +0.015 C 
ATOM     16  C   UNL     1      36.461 -20.519 -19.893  0.00  0.00    +0.015 C 
ATOM     17  C   UNL     1      35.865 -21.615 -17.823  0.00  0.00    +0.053 C 
ATOM     18  C   UNL     1      34.553 -21.759 -18.277  0.00  0.00    +0.006 C 
ATOM     19  C   UNL     1      36.819 -20.996 -18.631  0.00  0.00    +0.006 C 
BRANCH  17  22
ATOM     20  O   UNL     1      35.736 -23.151 -16.042  0.00  0.00    -0.270 OA
ATOM     21  N   UNL     1      37.195 -21.398 -15.794  0.00  0.00    -0.325 N 
ATOM     22  C   UNL     1      36.238 -22.113 -16.510  0.00  0.00    +0.243 C 
ATOM     23  H   UNL     1      37.472 -21.705 -14.900  0.00  0.00    +0.145 HD
ATOM     24  H   UNL     1      37.594 -20.585 -16.181  0.00  0.00    +0.145 HD
ENDBRANCH  17  22
ENDBRANCH   5  14
BRANCH   6  25
ATOM     25  O   UNL     1      35.453 -15.580 -21.015  0.00  0.00    -0.453 OA
BRANCH  25  26
ATOM     26  C   UNL     1      34.461 -15.059 -20.151  0.00  0.00    +0.208 C 
BRANCH  26  27
ATOM     27  C   UNL     1      33.538 -14.152 -20.964  0.00  0.00    +0.044 C 
ATOM     28  C   UNL     1      32.518 -13.459 -20.051  0.00  0.00    +0.004 C 
ATOM     29  C   UNL     1      34.352 -13.121 -21.756  0.00  0.00    +0.004 C 
ATOM     30  C   UNL     1      31.617 -12.506 -20.834  0.00  0.00    +0.000 C 
ATOM     31  C   UNL     1      33.449 -12.168 -22.535  0.00  0.00    +0.000 C 
ATOM     32  C   UNL     1      32.430 -11.488 -21.626  0.00  0.00    +0.000 C 
ENDBRANCH  26  27
ENDBRANCH  25  26
ENDBRANCH   6  25
TORSDOF 5
ENDMDL
MODEL 7
REMARK VINA RESULT:      -9.7      2.748      7.223
REMARK  Name = 447656
REMARK  5 active torsions:
REMARK  status: ('A' for Active; 'I' for Inactive)
REMARK    1  A    between atoms: N_5  and  C_14
REMARK    2  A    between atoms: C_6  and  O_25
REMARK    3  A    between atoms: C_17  and  C_22
REMARK    4  A    between atoms: O_25  and  C_26
REMARK    5  A    between atoms: C_26  and  C_27
REMARK                            x       y       z     vdW  Elec       q    Type
REMARK                         _______ _______ _______ _____ _____    ______ ____
ROOT
ATOM      1  N   UNL     1      34.454 -22.484 -16.297  0.00  0.00    -0.293 NA
ATOM      2  N   UNL     1      33.822 -24.368 -13.202  0.00  0.00    -0.266 NA
ATOM      3  N   UNL     1      32.237 -23.496 -16.181  0.00  0.00    -0.316 NA
ATOM      4  N   UNL     1      31.830 -24.739 -14.132  0.00  0.00    -0.296 N 
ATOM      5  N   UNL     1      32.907 -22.240 -18.038  0.00  0.00    -0.238 N 
ATOM      6  C   UNL     1      34.788 -22.973 -15.083  0.00  0.00    +0.288 C 
ATOM      7  C   UNL     1      33.850 -23.727 -14.408  0.00  0.00    +0.215 C 
ATOM      8  C   UNL     1      32.602 -23.972 -14.966  0.00  0.00    +0.196 C 
ATOM      9  C   UNL     1      33.216 -22.771 -16.765  0.00  0.00    +0.207 C 
ATOM     10  C   UNL     1      32.592 -24.959 -13.082  0.00  0.00    +0.164 C 
ATOM     11  H   UNL     1      34.552 -24.399 -12.542  0.00  0.00    +0.126 HD
ATOM     12  H   UNL     1      30.910 -25.054 -14.284  0.00  0.00    +0.150 HD
ATOM     13  H   UNL     1      32.002 -22.465 -18.352  0.00  0.00    +0.166 HD
ENDROOT
BRANCH   5  14
ATOM     14  C   UNL     1      33.641 -21.454 -18.944  0.00  0.00    +0.058 C 
ATOM     15  C   UNL     1      35.029 -21.592 -19.029  0.00  0.00    +0.015 C 
ATOM     16  C   UNL     1      32.986 -20.531 -19.762  0.00  0.00    +0.015 C 
ATOM     17  C   UNL     1      35.100 -19.892 -20.744  0.00  0.00    +0.053 C 
ATOM     18  C   UNL     1      35.757 -20.813 -19.928  0.00  0.00    +0.006 C 
ATOM     19  C   UNL     1      33.714 -19.751 -20.661  0.00  0.00    +0.006 C 
BRANCH  17  22
ATOM     20  O   UNL     1      35.469 -18.902 -22.849  0.00  0.00    -0.270 OA
ATOM     21  N   UNL     1      37.032 -18.487 -21.222  0.00  0.00    -0.325 N 
ATOM     22  C   UNL     1      35.858 -19.080 -21.680  0.00  0.00    +0.243 C 
ATOM     23  H   UNL     1      37.572 -17.931 -21.829  0.00  0.00    +0.145 HD
ATOM     24  H   UNL     1      37.323 -18.626 -20.292  0.00  0.00    +0.145 HD
ENDBRANCH  17  22
ENDBRANCH   5  14
BRANCH   6  25
ATOM     25  O   UNL     1      36.036 -22.700 -14.579  0.00  0.00    -0.453 OA
BRANCH  25  26
ATOM     26  C   UNL     1      37.145 -23.199 -15.304  0.00  0.00    +0.208 C 
BRANCH  26  27
ATOM     27  C   UNL     1      37.896 -24.191 -14.418  0.00  0.00    +0.044 C 
ATOM     28  C   UNL     1      37.307 -25.601 -14.562  0.00  0.00    +0.004 C 
ATOM     29  C   UNL     1      39.394 -24.189 -14.751  0.00  0.00    +0.004 C 
ATOM     30  C   UNL     1      38.076 -26.622 -13.726  0.00  0.00    +0.000 C 
ATOM     31  C   UNL     1      40.159 -25.212 -13.915  0.00  0.00    +0.000 C 
ATOM     32  C   UNL     1      39.565 -26.610 -14.053  0.00  0.00    +0.000 C 
ENDBRANCH  26  27
ENDBRANCH  25  26
ENDBRANCH   6  25
TORSDOF 5
ENDMDL
