MODEL 1
REMARK VINA RESULT:     -11.6      0.000      0.000
REMARK  Name = 24779674
REMARK  2 active torsions:
REMARK  status: ('A' for Active; 'I' for Inactive)
REMARK    1  A    between atoms: N_2  and  C_14
REMARK    2  A    between atoms: N_5  and  C_20
REMARK                            x       y       z     vdW  Elec       q    Type
REMARK                         _______ _______ _______ _____ _____    ______ ____
ROOT
ATOM      1  N   UNL     1      34.959 -23.312 -14.590  0.00  0.00    -0.124 N 
ATOM      2  N   UNL     1      32.718 -23.874 -14.098  0.00  0.00    -0.274 N 
ATOM      3  N   UNL     1      33.377 -23.065 -16.226  0.00  0.00    -0.295 NA
ATOM      4  N   UNL     1      35.654 -22.505 -16.688  0.00  0.00    -0.315 NA
ATOM      5  N   UNL     1      34.046 -22.256 -18.343  0.00  0.00    -0.238 N 
ATOM      6  N   UNL     1      35.379 -23.638 -13.355  0.00  0.00    -0.171 NA
ATOM      7  C   UNL     1      33.640 -23.415 -15.001  0.00  0.00    +0.279 C 
ATOM      8  C   UNL     1      35.947 -22.864 -15.418  0.00  0.00    +0.206 C 
ATOM      9  C   UNL     1      34.397 -22.611 -17.061  0.00  0.00    +0.207 C 
ATOM     10  C   UNL     1      37.100 -22.902 -14.668  0.00  0.00    +0.127 C 
ATOM     11  C   UNL     1      36.690 -23.385 -13.409  0.00  0.00    +0.101 C 
ATOM     12  H   UNL     1      33.057 -24.104 -13.204  0.00  0.00    +0.156 HD
ATOM     13  H   UNL     1      33.282 -22.736 -18.739  0.00  0.00    +0.166 HD
ENDROOT
BRANCH   2  14
ATOM     14  C   UNL     1      31.351 -24.052 -14.313  0.00  0.00    +0.051 C 
ATOM     15  C   UNL     1      30.579 -22.999 -14.805  0.00  0.00    +0.015 C 
ATOM     16  C   UNL     1      30.756 -25.283 -14.036  0.00  0.00    +0.015 C 
ATOM     17  C   UNL     1      29.213 -23.176 -15.019  0.00  0.00    +0.001 C 
ATOM     18  C   UNL     1      29.389 -25.460 -14.250  0.00  0.00    +0.001 C 
ATOM     19  C   UNL     1      28.617 -24.407 -14.742  0.00  0.00    +0.000 C 
ENDBRANCH   2  14
BRANCH   5  20
ATOM     20  C   UNL     1      34.658 -21.292 -19.137  0.00  0.00    +0.058 C 
ATOM     21  C   UNL     1      36.044 -21.136 -19.101  0.00  0.00    +0.015 C 
ATOM     22  C   UNL     1      33.886 -20.482 -19.970  0.00  0.00    +0.015 C 
ATOM     23  C   UNL     1      36.658 -20.169 -19.897  0.00  0.00    +0.001 C 
ATOM     24  C   UNL     1      34.501 -19.515 -20.766  0.00  0.00    +0.001 C 
ATOM     25  C   UNL     1      35.887 -19.359 -20.729  0.00  0.00    +0.000 C 
ENDBRANCH   5  20
TORSDOF 2
ENDMDL
MODEL 2
REMARK VINA RESULT:     -11.3      1.461      6.743
REMARK  Name = 24779674
REMARK  2 active torsions:
REMARK  status: ('A' for Active; 'I' for Inactive)
REMARK    1  A    between atoms: N_2  and  C_14
REMARK    2  A    between atoms: N_5  and  C_20
REMARK                            x       y       z     vdW  Elec       q    Type
REMARK                         _______ _______ _______ _____ _____    ______ ____
ROOT
ATOM      1  N   UNL     1      32.012 -23.321 -15.898  0.00  0.00    -0.124 N 
ATOM      2  N   UNL     1      32.622 -22.079 -17.813  0.00  0.00    -0.274 N 
ATOM      3  N   UNL     1      34.235 -23.041 -16.367  0.00  0.00    -0.295 NA
ATOM      4  N   UNL     1      33.583 -24.290 -14.439  0.00  0.00    -0.315 NA
ATOM      5  N   UNL     1      35.835 -24.002 -14.919  0.00  0.00    -0.238 N 
ATOM      6  N   UNL     1      30.699 -23.155 -16.130  0.00  0.00    -0.171 NA
ATOM      7  C   UNL     1      33.005 -22.801 -16.713  0.00  0.00    +0.279 C 
ATOM      8  C   UNL     1      32.297 -24.052 -14.781  0.00  0.00    +0.206 C 
ATOM      9  C   UNL     1      34.511 -23.789 -15.225  0.00  0.00    +0.207 C 
ATOM     10  C   UNL     1      31.076 -24.390 -14.243  0.00  0.00    +0.127 C 
ATOM     11  C   UNL     1      30.131 -23.812 -15.114  0.00  0.00    +0.101 C 
ATOM     12  H   UNL     1      31.654 -21.976 -17.954  0.00  0.00    +0.156 HD
ATOM     13  H   UNL     1      36.462 -24.041 -15.678  0.00  0.00    +0.166 HD
ENDROOT
BRANCH   2  14
ATOM     14  C   UNL     1      33.458 -21.477 -18.753  0.00  0.00    +0.051 C 
ATOM     15  C   UNL     1      32.937 -20.553 -19.660  0.00  0.00    +0.015 C 
ATOM     16  C   UNL     1      34.815 -21.798 -18.788  0.00  0.00    +0.015 C 
ATOM     17  C   UNL     1      33.773 -19.951 -20.600  0.00  0.00    +0.001 C 
ATOM     18  C   UNL     1      35.651 -21.196 -19.728  0.00  0.00    +0.001 C 
ATOM     19  C   UNL     1      35.130 -20.272 -20.634  0.00  0.00    +0.000 C 
ENDBRANCH   2  14
BRANCH   5  20
ATOM     20  C   UNL     1      36.380 -24.170 -13.650  0.00  0.00    +0.058 C 
ATOM     21  C   UNL     1      36.493 -23.077 -12.790  0.00  0.00    +0.015 C 
ATOM     22  C   UNL     1      36.813 -25.430 -13.238  0.00  0.00    +0.015 C 
ATOM     23  C   UNL     1      37.040 -23.245 -11.517  0.00  0.00    +0.001 C 
ATOM     24  C   UNL     1      37.360 -25.597 -11.966  0.00  0.00    +0.001 C 
ATOM     25  C   UNL     1      37.474 -24.504 -11.106  0.00  0.00    +0.000 C 
ENDBRANCH   5  20
TORSDOF 2
ENDMDL
MODEL 3
REMARK VINA RESULT:     -10.6      1.467      6.544
REMARK  Name = 24779674
REMARK  2 active torsions:
REMARK  status: ('A' for Active; 'I' for Inactive)
REMARK    1  A    between atoms: N_2  and  C_14
REMARK    2  A    between atoms: N_5  and  C_20
REMARK                            x       y       z     vdW  Elec       q    Type
REMARK                         _______ _______ _______ _____ _____    ______ ____
ROOT
ATOM      1  N   UNL     1      35.264 -22.521 -16.904  0.00  0.00    -0.124 N 
ATOM      2  N   UNL     1      36.756 -22.965 -15.128  0.00  0.00    -0.274 N 
ATOM      3  N   UNL     1      34.464 -23.559 -15.027  0.00  0.00    -0.295 NA
ATOM      4  N   UNL     1      32.983 -23.094 -16.843  0.00  0.00    -0.315 NA
ATOM      5  N   UNL     1      32.177 -24.146 -14.938  0.00  0.00    -0.238 N 
ATOM      6  N   UNL     1      36.225 -21.954 -17.654  0.00  0.00    -0.171 NA
ATOM      7  C   UNL     1      35.487 -23.039 -15.638  0.00  0.00    +0.279 C 
ATOM      8  C   UNL     1      34.034 -22.549 -17.495  0.00  0.00    +0.206 C 
ATOM      9  C   UNL     1      33.214 -23.581 -15.644  0.00  0.00    +0.207 C 
ATOM     10  C   UNL     1      34.204 -21.955 -18.725  0.00  0.00    +0.127 C 
ATOM     11  C   UNL     1      35.570 -21.610 -18.767  0.00  0.00    +0.101 C 
ATOM     12  H   UNL     1      37.436 -22.544 -15.701  0.00  0.00    +0.156 HD
ATOM     13  H   UNL     1      32.413 -24.868 -14.310  0.00  0.00    +0.166 HD
ENDROOT
BRANCH   2  14
ATOM     14  C   UNL     1      37.187 -23.425 -13.883  0.00  0.00    +0.051 C 
ATOM     15  C   UNL     1      37.940 -24.596 -13.794  0.00  0.00    +0.015 C 
ATOM     16  C   UNL     1      36.865 -22.714 -12.727  0.00  0.00    +0.015 C 
ATOM     17  C   UNL     1      38.370 -25.056 -12.550  0.00  0.00    +0.001 C 
ATOM     18  C   UNL     1      37.296 -23.174 -11.483  0.00  0.00    +0.001 C 
ATOM     19  C   UNL     1      38.049 -24.345 -11.394  0.00  0.00    +0.000 C 
ENDBRANCH   2  14
BRANCH   5  20
ATOM     20  C   UNL     1      30.831 -23.804 -15.020  0.00  0.00    +0.058 C 
ATOM     21  C   UNL     1      29.924 -24.680 -15.617  0.00  0.00    +0.015 C 
ATOM     22  C   UNL     1      30.388 -22.586 -14.503  0.00  0.00    +0.015 C 
ATOM     23  C   UNL     1      28.574 -24.337 -15.700  0.00  0.00    +0.001 C 
ATOM     24  C   UNL     1      29.039 -22.244 -14.586  0.00  0.00    +0.001 C 
ATOM     25  C   UNL     1      28.132 -23.119 -15.184  0.00  0.00    +0.000 C 
ENDBRANCH   5  20
TORSDOF 2
ENDMDL
MODEL 4
REMARK VINA RESULT:     -10.2      1.597      5.094
REMARK  Name = 24779674
REMARK  2 active torsions:
REMARK  status: ('A' for Active; 'I' for Inactive)
REMARK    1  A    between atoms: N_2  and  C_14
REMARK    2  A    between atoms: N_5  and  C_20
REMARK                            x       y       z     vdW  Elec       q    Type
REMARK                         _______ _______ _______ _____ _____    ______ ____
ROOT
ATOM      1  N   UNL     1      33.897 -22.339 -17.489  0.00  0.00    -0.124 N 
ATOM      2  N   UNL     1      31.654 -22.786 -16.897  0.00  0.00    -0.274 N 
ATOM      3  N   UNL     1      33.471 -23.377 -15.494  0.00  0.00    -0.295 NA
ATOM      4  N   UNL     1      35.727 -22.910 -16.126  0.00  0.00    -0.315 NA
ATOM      5  N   UNL     1      35.289 -23.962 -14.104  0.00  0.00    -0.238 N 
ATOM      6  N   UNL     1      33.542 -21.772 -18.656  0.00  0.00    -0.171 NA
ATOM      7  C   UNL     1      32.986 -22.857 -16.583  0.00  0.00    +0.279 C 
ATOM      8  C   UNL     1      35.242 -22.366 -17.265  0.00  0.00    +0.206 C 
ATOM      9  C   UNL     1      34.847 -23.396 -15.277  0.00  0.00    +0.207 C 
ATOM     10  C   UNL     1      35.811 -21.769 -18.367  0.00  0.00    +0.127 C 
ATOM     11  C   UNL     1      34.718 -21.425 -19.188  0.00  0.00    +0.101 C 
ATOM     12  H   UNL     1      31.428 -22.365 -17.757  0.00  0.00    +0.156 HD
ATOM     13  H   UNL     1      34.685 -23.898 -13.329  0.00  0.00    +0.166 HD
ENDROOT
BRANCH   2  14
ATOM     14  C   UNL     1      30.585 -23.244 -16.126  0.00  0.00    +0.051 C 
ATOM     15  C   UNL     1      29.376 -22.548 -16.126  0.00  0.00    +0.015 C 
ATOM     16  C   UNL     1      30.725 -24.398 -15.355  0.00  0.00    +0.015 C 
ATOM     17  C   UNL     1      28.308 -23.005 -15.355  0.00  0.00    +0.001 C 
ATOM     18  C   UNL     1      29.657 -24.856 -14.584  0.00  0.00    +0.001 C 
ATOM     19  C   UNL     1      28.447 -24.160 -14.585  0.00  0.00    +0.000 C 
ENDBRANCH   2  14
BRANCH   5  20
ATOM     20  C   UNL     1      36.501 -24.614 -13.899  0.00  0.00    +0.058 C 
ATOM     21  C   UNL     1      37.499 -24.007 -13.136  0.00  0.00    +0.015 C 
ATOM     22  C   UNL     1      36.718 -25.874 -14.456  0.00  0.00    +0.015 C 
ATOM     23  C   UNL     1      38.715 -24.660 -12.931  0.00  0.00    +0.001 C 
ATOM     24  C   UNL     1      37.933 -26.527 -14.251  0.00  0.00    +0.001 C 
ATOM     25  C   UNL     1      38.932 -25.920 -13.488  0.00  0.00    +0.000 C 
ENDBRANCH   5  20
TORSDOF 2
ENDMDL
MODEL 5
REMARK VINA RESULT:     -10.0      8.470     12.128
REMARK  Name = 24779674
REMARK  2 active torsions:
REMARK  status: ('A' for Active; 'I' for Inactive)
REMARK    1  A    between atoms: N_2  and  C_14
REMARK    2  A    between atoms: N_5  and  C_20
REMARK                            x       y       z     vdW  Elec       q    Type
REMARK                         _______ _______ _______ _____ _____    ______ ____
ROOT
ATOM      1  N   UNL     1      33.896 -14.115 -24.835  0.00  0.00    -0.124 N 
ATOM      2  N   UNL     1      34.707 -16.155 -23.963  0.00  0.00    -0.274 N 
ATOM      3  N   UNL     1      33.520 -14.597 -22.629  0.00  0.00    -0.295 NA
ATOM      4  N   UNL     1      32.715 -12.542 -23.544  0.00  0.00    -0.315 NA
ATOM      5  N   UNL     1      32.337 -13.035 -21.308  0.00  0.00    -0.238 N 
ATOM      6  N   UNL     1      34.378 -14.375 -26.063  0.00  0.00    -0.171 NA
ATOM      7  C   UNL     1      34.038 -14.977 -23.759  0.00  0.00    +0.279 C 
ATOM      8  C   UNL     1      33.246 -12.920 -24.729  0.00  0.00    +0.206 C 
ATOM      9  C   UNL     1      32.859 -13.374 -22.536  0.00  0.00    +0.207 C 
ATOM     10  C   UNL     1      33.307 -12.356 -25.982  0.00  0.00    +0.127 C 
ATOM     11  C   UNL     1      34.014 -13.295 -26.761  0.00  0.00    +0.101 C 
ATOM     12  H   UNL     1      35.047 -16.315 -24.872  0.00  0.00    +0.156 HD
ATOM     13  H   UNL     1      32.047 -13.780 -20.732  0.00  0.00    +0.166 HD
ENDROOT
BRANCH   2  14
ATOM     14  C   UNL     1      34.955 -17.152 -23.019  0.00  0.00    +0.051 C 
ATOM     15  C   UNL     1      34.520 -18.458 -23.252  0.00  0.00    +0.015 C 
ATOM     16  C   UNL     1      35.638 -16.845 -21.842  0.00  0.00    +0.015 C 
ATOM     17  C   UNL     1      34.768 -19.454 -22.309  0.00  0.00    +0.001 C 
ATOM     18  C   UNL     1      35.886 -17.842 -20.899  0.00  0.00    +0.001 C 
ATOM     19  C   UNL     1      35.451 -19.147 -21.132  0.00  0.00    +0.000 C 
ENDBRANCH   2  14
BRANCH   5  20
ATOM     20  C   UNL     1      32.175 -11.751 -20.797  0.00  0.00    +0.058 C 
ATOM     21  C   UNL     1      32.107 -11.553 -19.419  0.00  0.00    +0.015 C 
ATOM     22  C   UNL     1      32.081 -10.663 -21.665  0.00  0.00    +0.015 C 
ATOM     23  C   UNL     1      31.944 -10.265 -18.907  0.00  0.00    +0.001 C 
ATOM     24  C   UNL     1      31.918  -9.376 -21.153  0.00  0.00    +0.001 C 
ATOM     25  C   UNL     1      31.849  -9.177 -19.774  0.00  0.00    +0.000 C 
ENDBRANCH   5  20
TORSDOF 2
ENDMDL
MODEL 6
REMARK VINA RESULT:      -9.4     11.738     15.627
REMARK  Name = 24779674
REMARK  2 active torsions:
REMARK  status: ('A' for Active; 'I' for Inactive)
REMARK    1  A    between atoms: N_2  and  C_14
REMARK    2  A    between atoms: N_5  and  C_20
REMARK                            x       y       z     vdW  Elec       q    Type
REMARK                         _______ _______ _______ _____ _____    ______ ____
ROOT
ATOM      1  N   UNL     1      32.088  -9.121 -20.765  0.00  0.00    -0.124 N 
ATOM      2  N   UNL     1      32.506  -7.168 -22.026  0.00  0.00    -0.274 N 
ATOM      3  N   UNL     1      32.722  -9.338 -22.954  0.00  0.00    -0.295 NA
ATOM      4  N   UNL     1      32.292 -11.292 -21.650  0.00  0.00    -0.315 NA
ATOM      5  N   UNL     1      32.935 -11.506 -23.869  0.00  0.00    -0.238 N 
ATOM      6  N   UNL     1      31.782  -8.420 -19.660  0.00  0.00    -0.171 NA
ATOM      7  C   UNL     1      32.454  -8.535 -21.967  0.00  0.00    +0.279 C 
ATOM      8  C   UNL     1      32.009 -10.475 -20.610  0.00  0.00    +0.206 C 
ATOM      9  C   UNL     1      32.636 -10.718 -22.781  0.00  0.00    +0.207 C 
ATOM     10  C   UNL     1      31.621 -10.673 -19.305  0.00  0.00    +0.127 C 
ATOM     11  C   UNL     1      31.497  -9.375 -18.770  0.00  0.00    +0.101 C 
ATOM     12  H   UNL     1      32.277  -6.684 -21.201  0.00  0.00    +0.156 HD
ATOM     13  H   UNL     1      32.745 -11.122 -24.757  0.00  0.00    +0.166 HD
ENDROOT
BRANCH   2  14
ATOM     14  C   UNL     1      32.848  -6.389 -23.132  0.00  0.00    +0.051 C 
ATOM     15  C   UNL     1      31.852  -5.914 -23.985  0.00  0.00    +0.015 C 
ATOM     16  C   UNL     1      34.186  -6.085 -23.384  0.00  0.00    +0.015 C 
ATOM     17  C   UNL     1      32.193  -5.136 -25.091  0.00  0.00    +0.001 C 
ATOM     18  C   UNL     1      34.527  -5.306 -24.490  0.00  0.00    +0.001 C 
ATOM     19  C   UNL     1      33.530  -4.831 -25.344  0.00  0.00    +0.000 C 
ENDBRANCH   2  14
BRANCH   5  20
ATOM     20  C   UNL     1      33.478 -12.787 -23.845  0.00  0.00    +0.058 C 
ATOM     21  C   UNL     1      33.194 -13.683 -24.875  0.00  0.00    +0.015 C 
ATOM     22  C   UNL     1      34.306 -13.174 -22.791  0.00  0.00    +0.015 C 
ATOM     23  C   UNL     1      33.738 -14.968 -24.851  0.00  0.00    +0.001 C 
ATOM     24  C   UNL     1      34.849 -14.458 -22.767  0.00  0.00    +0.001 C 
ATOM     25  C   UNL     1      34.565 -15.355 -23.797  0.00  0.00    +0.000 C 
ENDBRANCH   5  20
TORSDOF 2
ENDMDL
MODEL 7
REMARK VINA RESULT:      -9.3      7.106     11.354
REMARK  Name = 24779674
REMARK  2 active torsions:
REMARK  status: ('A' for Active; 'I' for Inactive)
REMARK    1  A    between atoms: N_2  and  C_14
REMARK    2  A    between atoms: N_5  and  C_20
REMARK                            x       y       z     vdW  Elec       q    Type
REMARK                         _______ _______ _______ _____ _____    ______ ____
ROOT
ATOM      1  N   UNL     1      33.646 -14.290 -24.021  0.00  0.00    -0.124 N 
ATOM      2  N   UNL     1      32.734 -12.563 -22.693  0.00  0.00    -0.274 N 
ATOM      3  N   UNL     1      33.919 -14.385 -21.750  0.00  0.00    -0.295 NA
ATOM      4  N   UNL     1      34.828 -16.115 -23.124  0.00  0.00    -0.315 NA
ATOM      5  N   UNL     1      35.102 -16.207 -20.821  0.00  0.00    -0.238 N 
ATOM      6  N   UNL     1      33.203 -13.733 -25.162  0.00  0.00    -0.171 NA
ATOM      7  C   UNL     1      33.433 -13.738 -22.768  0.00  0.00    +0.279 C 
ATOM      8  C   UNL     1      34.331 -15.457 -24.195  0.00  0.00    +0.206 C 
ATOM      9  C   UNL     1      34.617 -15.576 -21.943  0.00  0.00    +0.207 C 
ATOM     10  C   UNL     1      34.337 -15.680 -25.553  0.00  0.00    +0.127 C 
ATOM     11  C   UNL     1      33.630 -14.588 -26.096  0.00  0.00    +0.101 C 
ATOM     12  H   UNL     1      32.424 -12.181 -23.545  0.00  0.00    +0.156 HD
ATOM     13  H   UNL     1      35.344 -15.630 -20.060  0.00  0.00    +0.166 HD
ENDROOT
BRANCH   2  14
ATOM     14  C   UNL     1      32.416 -11.848 -21.537  0.00  0.00    +0.051 C 
ATOM     15  C   UNL     1      32.191 -10.473 -21.606  0.00  0.00    +0.015 C 
ATOM     16  C   UNL     1      32.321 -12.509 -20.312  0.00  0.00    +0.015 C 
ATOM     17  C   UNL     1      31.874  -9.759 -20.451  0.00  0.00    +0.001 C 
ATOM     18  C   UNL     1      32.004 -11.795 -19.157  0.00  0.00    +0.001 C 
ATOM     19  C   UNL     1      31.779 -10.420 -19.226  0.00  0.00    +0.000 C 
ENDBRANCH   2  14
BRANCH   5  20
ATOM     20  C   UNL     1      35.287 -17.576 -20.650  0.00  0.00    +0.058 C 
ATOM     21  C   UNL     1      34.184 -18.427 -20.600  0.00  0.00    +0.015 C 
ATOM     22  C   UNL     1      36.576 -18.095 -20.529  0.00  0.00    +0.015 C 
ATOM     23  C   UNL     1      34.370 -19.800 -20.428  0.00  0.00    +0.001 C 
ATOM     24  C   UNL     1      36.762 -19.466 -20.358  0.00  0.00    +0.001 C 
ATOM     25  C   UNL     1      35.658 -20.319 -20.307  0.00  0.00    +0.000 C 
ENDBRANCH   5  20
TORSDOF 2
ENDMDL
MODEL 8
REMARK VINA RESULT:      -9.2      1.080      6.574
REMARK  Name = 24779674
REMARK  2 active torsions:
REMARK  status: ('A' for Active; 'I' for Inactive)
REMARK    1  A    between atoms: N_2  and  C_14
REMARK    2  A    between atoms: N_5  and  C_20
REMARK                            x       y       z     vdW  Elec       q    Type
REMARK                         _______ _______ _______ _____ _____    ______ ____
ROOT
ATOM      1  N   UNL     1      35.936 -23.366 -15.460  0.00  0.00    -0.124 N 
ATOM      2  N   UNL     1      36.280 -22.089 -17.417  0.00  0.00    -0.274 N 
ATOM      3  N   UNL     1      34.123 -22.428 -16.497  0.00  0.00    -0.295 NA
ATOM      4  N   UNL     1      33.811 -23.726 -14.516  0.00  0.00    -0.315 NA
ATOM      5  N   UNL     1      31.977 -22.773 -15.571  0.00  0.00    -0.238 N 
ATOM      6  N   UNL     1      37.247 -23.629 -15.324  0.00  0.00    -0.171 NA
ATOM      7  C   UNL     1      35.412 -22.601 -16.490  0.00  0.00    +0.279 C 
ATOM      8  C   UNL     1      35.150 -23.918 -14.491  0.00  0.00    +0.206 C 
ATOM      9  C   UNL     1      33.333 -22.997 -15.500  0.00  0.00    +0.207 C 
ATOM     10  C   UNL     1      36.012 -24.592 -13.658  0.00  0.00    +0.127 C 
ATOM     11  C   UNL     1      37.288 -24.380 -14.219  0.00  0.00    +0.101 C 
ATOM     12  H   UNL     1      37.233 -22.300 -17.290  0.00  0.00    +0.156 HD
ATOM     13  H   UNL     1      31.691 -21.924 -15.980  0.00  0.00    +0.166 HD
ENDROOT
BRANCH   2  14
ATOM     14  C   UNL     1      35.958 -21.299 -18.521  0.00  0.00    +0.051 C 
ATOM     15  C   UNL     1      34.661 -21.314 -19.035  0.00  0.00    +0.015 C 
ATOM     16  C   UNL     1      36.932 -20.494 -19.111  0.00  0.00    +0.015 C 
ATOM     17  C   UNL     1      34.338 -20.525 -20.139  0.00  0.00    +0.001 C 
ATOM     18  C   UNL     1      36.610 -19.705 -20.215  0.00  0.00    +0.001 C 
ATOM     19  C   UNL     1      35.313 -19.720 -20.729  0.00  0.00    +0.000 C 
ENDBRANCH   2  14
BRANCH   5  20
ATOM     20  C   UNL     1      30.968 -23.622 -15.123  0.00  0.00    +0.058 C 
ATOM     21  C   UNL     1      31.219 -24.513 -14.081  0.00  0.00    +0.015 C 
ATOM     22  C   UNL     1      29.707 -23.579 -15.718  0.00  0.00    +0.015 C 
ATOM     23  C   UNL     1      30.208 -25.364 -13.633  0.00  0.00    +0.001 C 
ATOM     24  C   UNL     1      28.697 -24.430 -15.270  0.00  0.00    +0.001 C 
ATOM     25  C   UNL     1      28.947 -25.322 -14.227  0.00  0.00    +0.000 C 
ENDBRANCH   5  20
TORSDOF 2
ENDMDL
MODEL 9
REMARK VINA RESULT:      -8.9      1.864      5.037
REMARK  Name = 24779674
REMARK  2 active torsions:
REMARK  status: ('A' for Active; 'I' for Inactive)
REMARK    1  A    between atoms: N_2  and  C_14
REMARK    2  A    between atoms: N_5  and  C_20
REMARK                            x       y       z     vdW  Elec       q    Type
REMARK                         _______ _______ _______ _____ _____    ______ ____
ROOT
ATOM      1  N   UNL     1      33.474 -24.280 -14.384  0.00  0.00    -0.124 N 
ATOM      2  N   UNL     1      35.470 -25.309 -13.650  0.00  0.00    -0.274 N 
ATOM      3  N   UNL     1      35.457 -23.640 -15.332  0.00  0.00    -0.295 NA
ATOM      4  N   UNL     1      33.419 -22.620 -16.050  0.00  0.00    -0.315 NA
ATOM      5  N   UNL     1      35.432 -21.975 -17.009  0.00  0.00    -0.238 N 
ATOM      6  N   UNL     1      32.717 -25.002 -13.540  0.00  0.00    -0.171 NA
ATOM      7  C   UNL     1      34.852 -24.403 -14.470  0.00  0.00    +0.279 C 
ATOM      8  C   UNL     1      32.771 -23.405 -15.160  0.00  0.00    +0.206 C 
ATOM      9  C   UNL     1      34.726 -22.750 -16.118  0.00  0.00    +0.207 C 
ATOM     10  C   UNL     1      31.455 -23.566 -14.795  0.00  0.00    +0.127 C 
ATOM     11  C   UNL     1      31.481 -24.560 -13.796  0.00  0.00    +0.101 C 
ATOM     12  H   UNL     1      34.888 -25.821 -13.045  0.00  0.00    +0.156 HD
ATOM     13  H   UNL     1      36.355 -21.741 -16.755  0.00  0.00    +0.166 HD
ENDROOT
BRANCH   2  14
ATOM     14  C   UNL     1      36.837 -25.582 -13.582  0.00  0.00    +0.051 C 
ATOM     15  C   UNL     1      37.662 -24.810 -12.763  0.00  0.00    +0.015 C 
ATOM     16  C   UNL     1      37.378 -26.627 -14.330  0.00  0.00    +0.015 C 
ATOM     17  C   UNL     1      39.028 -25.082 -12.695  0.00  0.00    +0.001 C 
ATOM     18  C   UNL     1      38.744 -26.899 -14.261  0.00  0.00    +0.001 C 
ATOM     19  C   UNL     1      39.569 -26.127 -13.443  0.00  0.00    +0.000 C 
ENDBRANCH   2  14
BRANCH   5  20
ATOM     20  C   UNL     1      34.977 -21.487 -18.230  0.00  0.00    +0.058 C 
ATOM     21  C   UNL     1      35.878 -20.933 -19.139  0.00  0.00    +0.015 C 
ATOM     22  C   UNL     1      33.619 -21.552 -18.545  0.00  0.00    +0.015 C 
ATOM     23  C   UNL     1      35.422 -20.443 -20.363  0.00  0.00    +0.001 C 
ATOM     24  C   UNL     1      33.164 -21.062 -19.768  0.00  0.00    +0.001 C 
ATOM     25  C   UNL     1      34.065 -20.508 -20.678  0.00  0.00    +0.000 C 
ENDBRANCH   5  20
TORSDOF 2
ENDMDL
