MODEL 1
REMARK VINA RESULT:     -11.8      0.000      0.000
REMARK  Name = 9799284
REMARK  5 active torsions:
REMARK  status: ('A' for Active; 'I' for Inactive)
REMARK    1  A    between atoms: N_1  and  C_19
REMARK    2  A    between atoms: C_2  and  C_8
REMARK    3  A    between atoms: C_8  and  N_10
REMARK    4  A    between atoms: C_19  and  C_21
REMARK    5  A    between atoms: C_21  and  C_23
REMARK                            x       y       z     vdW  Elec       q    Type
REMARK                         _______ _______ _______ _____ _____    ______ ____
ROOT
ATOM      1  N   UNL     1      34.017 -13.870 -23.427  0.00  0.00    +0.392 N 
ATOM      2  C   UNL     1      34.921 -16.531 -22.594  0.00  0.00    +0.016 C 
ATOM      3  C   UNL     1      34.934 -16.080 -24.058  0.00  0.00    -0.021 C 
ATOM      4  C   UNL     1      35.005 -15.308 -21.674  0.00  0.00    -0.021 C 
ATOM      5  C   UNL     1      33.860 -15.023 -24.324  0.00  0.00    -0.077 C 
ATOM      6  C   UNL     1      33.929 -14.277 -22.019  0.00  0.00    -0.077 C 
ATOM      7  H   UNL     1      34.944 -13.474 -23.583  0.00  0.00    -0.079 HD
ENDROOT
BRANCH   2   8
ATOM      8  C   UNL     1      36.058 -17.509 -22.310  0.00  0.00    +0.094 C 
BRANCH   8  10
ATOM      9  O   UNL     1      37.654 -19.211 -20.394  0.00  0.00    -0.270 OA
ATOM     10  N   UNL     1      35.630 -18.553 -21.428  0.00  0.00    -0.272 N 
ATOM     11  C   UNL     1      34.225 -18.962 -21.335  0.00  0.00    +0.121 C 
ATOM     12  C   UNL     1      36.453 -19.291 -20.569  0.00  0.00    +0.249 C 
ATOM     13  C   UNL     1      34.272 -20.046 -20.313  0.00  0.00    +0.002 C 
ATOM     14  C   UNL     1      35.580 -20.237 -19.866  0.00  0.00    +0.051 C 
ATOM     15  C   UNL     1      33.242 -20.815 -19.808  0.00  0.00    -0.002 C 
ATOM     16  C   UNL     1      35.912 -21.182 -18.915  0.00  0.00    +0.004 C 
ATOM     17  C   UNL     1      33.551 -21.780 -18.843  0.00  0.00    -0.000 C 
ATOM     18  C   UNL     1      34.875 -21.961 -18.401  0.00  0.00    +0.000 C 
ENDBRANCH   8  10
ENDBRANCH   2   8
BRANCH   1  19
ATOM     19  C   UNL     1      33.016 -12.847 -23.728  0.00  0.00    -0.006 C 
BRANCH  19  21
ATOM     20  O   UNL     1      34.657 -11.179 -24.320  0.00  0.00    -0.294 OA
ATOM     21  C   UNL     1      33.667 -11.478 -23.655  0.00  0.00    +0.152 C 
BRANCH  21  23
ATOM     22  F   UNL     1      31.464  -7.668 -20.220  0.00  0.00    -0.204 F 
ATOM     23  C   UNL     1      33.077 -10.459 -22.737  0.00  0.00    +0.033 C 
ATOM     24  C   UNL     1      32.232 -10.884 -21.738  0.00  0.00    +0.005 C 
ATOM     25  C   UNL     1      33.403  -9.136 -22.925  0.00  0.00    +0.005 C 
ATOM     26  C   UNL     1      31.682  -9.932 -20.879  0.00  0.00    +0.030 C 
ATOM     27  C   UNL     1      32.854  -8.184 -22.067  0.00  0.00    +0.030 C 
ATOM     28  C   UNL     1      31.993  -8.582 -21.044  0.00  0.00    +0.140 C 
ENDBRANCH  21  23
ENDBRANCH  19  21
ENDBRANCH   1  19
TORSDOF 5
ENDMDL
MODEL 2
REMARK VINA RESULT:     -11.6      3.417      9.935
REMARK  Name = 9799284
REMARK  5 active torsions:
REMARK  status: ('A' for Active; 'I' for Inactive)
REMARK    1  A    between atoms: N_1  and  C_19
REMARK    2  A    between atoms: C_2  and  C_8
REMARK    3  A    between atoms: C_8  and  N_10
REMARK    4  A    between atoms: C_19  and  C_21
REMARK    5  A    between atoms: C_21  and  C_23
REMARK                            x       y       z     vdW  Elec       q    Type
REMARK                         _______ _______ _______ _____ _____    ______ ____
ROOT
ATOM      1  N   UNL     1      34.253 -15.294 -22.841  0.00  0.00    +0.392 N 
ATOM      2  C   UNL     1      33.083 -12.733 -22.024  0.00  0.00    +0.016 C 
ATOM      3  C   UNL     1      32.713 -13.423 -23.341  0.00  0.00    -0.021 C 
ATOM      4  C   UNL     1      33.569 -13.775 -21.011  0.00  0.00    -0.021 C 
ATOM      5  C   UNL     1      33.858 -14.301 -23.849  0.00  0.00    -0.077 C 
ATOM      6  C   UNL     1      34.685 -14.642 -21.597  0.00  0.00    -0.077 C 
ATOM      7  H   UNL     1      33.437 -15.868 -22.628  0.00  0.00    -0.079 HD
ENDROOT
BRANCH   2   8
ATOM      8  C   UNL     1      31.904 -11.938 -21.469  0.00  0.00    +0.094 C 
BRANCH   8  10
ATOM      9  O   UNL     1      31.152  -9.759 -19.520  0.00  0.00    -0.270 OA
ATOM     10  N   UNL     1      32.166 -10.531 -21.514  0.00  0.00    -0.272 N 
ATOM     11  C   UNL     1      32.907  -9.915 -22.619  0.00  0.00    +0.121 C 
ATOM     12  C   UNL     1      31.774  -9.592 -20.553  0.00  0.00    +0.249 C 
ATOM     13  C   UNL     1      32.929  -8.477 -22.230  0.00  0.00    +0.002 C 
ATOM     14  C   UNL     1      32.263  -8.290 -21.018  0.00  0.00    +0.051 C 
ATOM     15  C   UNL     1      33.492  -7.401 -22.890  0.00  0.00    -0.002 C 
ATOM     16  C   UNL     1      32.131  -7.050 -20.423  0.00  0.00    +0.004 C 
ATOM     17  C   UNL     1      33.373  -6.135 -22.309  0.00  0.00    -0.000 C 
ATOM     18  C   UNL     1      32.699  -5.961 -21.085  0.00  0.00    +0.000 C 
ENDBRANCH   8  10
ENDBRANCH   2   8
BRANCH   1  19
ATOM     19  C   UNL     1      35.312 -16.158 -23.361  0.00  0.00    -0.006 C 
BRANCH  19  21
ATOM     20  O   UNL     1      34.125 -18.110 -24.141  0.00  0.00    -0.294 OA
ATOM     21  C   UNL     1      34.852 -17.603 -23.289  0.00  0.00    +0.152 C 
BRANCH  21  23
ATOM     22  F   UNL     1      36.548 -20.723 -18.980  0.00  0.00    -0.204 F 
ATOM     23  C   UNL     1      35.306 -18.437 -22.136  0.00  0.00    +0.033 C 
ATOM     24  C   UNL     1      34.423 -19.341 -21.590  0.00  0.00    +0.005 C 
ATOM     25  C   UNL     1      36.587 -18.270 -21.666  0.00  0.00    +0.005 C 
ATOM     26  C   UNL     1      34.846 -20.121 -20.514  0.00  0.00    +0.030 C 
ATOM     27  C   UNL     1      37.011 -19.049 -20.591  0.00  0.00    +0.030 C 
ATOM     28  C   UNL     1      36.141 -19.974 -20.014  0.00  0.00    +0.140 C 
ENDBRANCH  21  23
ENDBRANCH  19  21
ENDBRANCH   1  19
TORSDOF 5
ENDMDL
MODEL 3
REMARK VINA RESULT:     -11.4      3.278     10.001
REMARK  Name = 9799284
REMARK  5 active torsions:
REMARK  status: ('A' for Active; 'I' for Inactive)
REMARK    1  A    between atoms: N_1  and  C_19
REMARK    2  A    between atoms: C_2  and  C_8
REMARK    3  A    between atoms: C_8  and  N_10
REMARK    4  A    between atoms: C_19  and  C_21
REMARK    5  A    between atoms: C_21  and  C_23
REMARK                            x       y       z     vdW  Elec       q    Type
REMARK                         _______ _______ _______ _____ _____    ______ ____
ROOT
ATOM      1  N   UNL     1      34.368 -15.306 -22.420  0.00  0.00    +0.392 N 
ATOM      2  C   UNL     1      33.111 -12.706 -21.917  0.00  0.00    +0.016 C 
ATOM      3  C   UNL     1      32.950 -13.454 -23.245  0.00  0.00    -0.021 C 
ATOM      4  C   UNL     1      33.416 -13.703 -20.794  0.00  0.00    -0.021 C 
ATOM      5  C   UNL     1      34.151 -14.359 -23.522  0.00  0.00    -0.077 C 
ATOM      6  C   UNL     1      34.602 -14.601 -21.153  0.00  0.00    -0.077 C 
ATOM      7  H   UNL     1      33.522 -15.867 -22.317  0.00  0.00    -0.079 HD
ENDROOT
BRANCH   2   8
ATOM      8  C   UNL     1      31.867 -11.882 -21.596  0.00  0.00    +0.094 C 
BRANCH   8  10
ATOM      9  O   UNL     1      33.130 -10.176 -23.743  0.00  0.00    -0.270 OA
ATOM     10  N   UNL     1      32.163 -10.481 -21.604  0.00  0.00    -0.272 N 
ATOM     11  C   UNL     1      31.857  -9.617 -20.461  0.00  0.00    +0.121 C 
ATOM     12  C   UNL     1      32.755  -9.774 -22.657  0.00  0.00    +0.249 C 
ATOM     13  C   UNL     1      32.331  -8.284 -20.929  0.00  0.00    +0.002 C 
ATOM     14  C   UNL     1      32.858  -8.378 -22.217  0.00  0.00    +0.051 C 
ATOM     15  C   UNL     1      32.306  -7.067 -20.273  0.00  0.00    -0.002 C 
ATOM     16  C   UNL     1      33.370  -7.290 -22.896  0.00  0.00    +0.004 C 
ATOM     17  C   UNL     1      32.818  -5.949 -20.938  0.00  0.00    -0.000 C 
ATOM     18  C   UNL     1      33.346  -6.059 -22.238  0.00  0.00    +0.000 C 
ENDBRANCH   8  10
ENDBRANCH   2   8
BRANCH   1  19
ATOM     19  C   UNL     1      35.486 -16.198 -22.724  0.00  0.00    -0.006 C 
BRANCH  19  21
ATOM     20  O   UNL     1      34.259 -18.031 -23.703  0.00  0.00    -0.294 OA
ATOM     21  C   UNL     1      34.977 -17.627 -22.792  0.00  0.00    +0.152 C 
BRANCH  21  23
ATOM     22  F   UNL     1      36.446 -21.170 -18.734  0.00  0.00    -0.204 F 
ATOM     23  C   UNL     1      35.370 -18.574 -21.706  0.00  0.00    +0.033 C 
ATOM     24  C   UNL     1      34.436 -19.475 -21.250  0.00  0.00    +0.005 C 
ATOM     25  C   UNL     1      36.649 -18.509 -21.206  0.00  0.00    +0.005 C 
ATOM     26  C   UNL     1      34.803 -20.361 -20.236  0.00  0.00    +0.030 C 
ATOM     27  C   UNL     1      37.017 -19.393 -20.193  0.00  0.00    +0.030 C 
ATOM     28  C   UNL     1      36.093 -20.320 -19.708  0.00  0.00    +0.140 C 
ENDBRANCH  21  23
ENDBRANCH  19  21
ENDBRANCH   1  19
TORSDOF 5
ENDMDL
MODEL 4
REMARK VINA RESULT:     -11.2      3.859      6.757
REMARK  Name = 9799284
REMARK  5 active torsions:
REMARK  status: ('A' for Active; 'I' for Inactive)
REMARK    1  A    between atoms: N_1  and  C_19
REMARK    2  A    between atoms: C_2  and  C_8
REMARK    3  A    between atoms: C_8  and  N_10
REMARK    4  A    between atoms: C_19  and  C_21
REMARK    5  A    between atoms: C_21  and  C_23
REMARK                            x       y       z     vdW  Elec       q    Type
REMARK                         _______ _______ _______ _____ _____    ______ ____
ROOT
ATOM      1  N   UNL     1      35.157 -19.716 -20.806  0.00  0.00    +0.392 N 
ATOM      2  C   UNL     1      34.376 -21.671 -18.765  0.00  0.00    +0.016 C 
ATOM      3  C   UNL     1      33.388 -21.123 -19.800  0.00  0.00    -0.021 C 
ATOM      4  C   UNL     1      35.804 -21.581 -19.314  0.00  0.00    -0.021 C 
ATOM      5  C   UNL     1      33.791 -19.723 -20.267  0.00  0.00    -0.077 C 
ATOM      6  C   UNL     1      36.127 -20.166 -19.797  0.00  0.00    -0.077 C 
ATOM      7  H   UNL     1      35.191 -20.371 -21.588  0.00  0.00    -0.079 HD
ENDROOT
BRANCH   2   8
ATOM      8  C   UNL     1      34.027 -23.105 -18.377  0.00  0.00    +0.094 C 
BRANCH   8  10
ATOM      9  O   UNL     1      35.215 -23.771 -15.683  0.00  0.00    -0.270 OA
ATOM     10  N   UNL     1      33.412 -23.152 -17.085  0.00  0.00    -0.272 N 
ATOM     11  C   UNL     1      31.991 -22.851 -16.891  0.00  0.00    +0.121 C 
ATOM     12  C   UNL     1      34.052 -23.474 -15.882  0.00  0.00    +0.249 C 
ATOM     13  C   UNL     1      31.822 -23.024 -15.421  0.00  0.00    +0.002 C 
ATOM     14  C   UNL     1      33.032 -23.390 -14.832  0.00  0.00    +0.051 C 
ATOM     15  C   UNL     1      30.686 -22.873 -14.648  0.00  0.00    -0.002 C 
ATOM     16  C   UNL     1      33.163 -23.617 -13.475  0.00  0.00    +0.004 C 
ATOM     17  C   UNL     1      30.791 -23.097 -13.271  0.00  0.00    -0.000 C 
ATOM     18  C   UNL     1      32.019 -23.465 -12.690  0.00  0.00    +0.000 C 
ENDBRANCH   8  10
ENDBRANCH   2   8
BRANCH   1  19
ATOM     19  C   UNL     1      35.509 -18.384 -21.296  0.00  0.00    -0.006 C 
BRANCH  19  21
ATOM     20  O   UNL     1      35.096 -19.235 -23.516  0.00  0.00    -0.294 OA
ATOM     21  C   UNL     1      35.108 -18.270 -22.755  0.00  0.00    +0.152 C 
BRANCH  21  23
ATOM     22  F   UNL     1      33.630 -13.258 -24.722  0.00  0.00    -0.204 F 
ATOM     23  C   UNL     1      34.714 -16.929 -23.282  0.00  0.00    +0.033 C 
ATOM     24  C   UNL     1      34.180 -16.850 -24.548  0.00  0.00    +0.005 C 
ATOM     25  C   UNL     1      34.898 -15.827 -22.480  0.00  0.00    +0.005 C 
ATOM     26  C   UNL     1      33.810 -15.598 -25.039  0.00  0.00    +0.030 C 
ATOM     27  C   UNL     1      34.529 -14.575 -22.970  0.00  0.00    +0.030 C 
ATOM     28  C   UNL     1      33.985 -14.460 -24.250  0.00  0.00    +0.140 C 
ENDBRANCH  21  23
ENDBRANCH  19  21
ENDBRANCH   1  19
TORSDOF 5
ENDMDL
MODEL 5
REMARK VINA RESULT:     -11.2      4.553     10.470
REMARK  Name = 9799284
REMARK  5 active torsions:
REMARK  status: ('A' for Active; 'I' for Inactive)
REMARK    1  A    between atoms: N_1  and  C_19
REMARK    2  A    between atoms: C_2  and  C_8
REMARK    3  A    between atoms: C_8  and  N_10
REMARK    4  A    between atoms: C_19  and  C_21
REMARK    5  A    between atoms: C_21  and  C_23
REMARK                            x       y       z     vdW  Elec       q    Type
REMARK                         _______ _______ _______ _____ _____    ______ ____
ROOT
ATOM      1  N   UNL     1      33.503 -21.232 -19.509  0.00  0.00    +0.392 N 
ATOM      2  C   UNL     1      34.899 -19.173 -21.060  0.00  0.00    +0.016 C 
ATOM      3  C   UNL     1      35.637 -20.329 -20.376  0.00  0.00    -0.021 C 
ATOM      4  C   UNL     1      33.451 -19.583 -21.352  0.00  0.00    -0.021 C 
ATOM      5  C   UNL     1      34.870 -20.831 -19.151  0.00  0.00    -0.077 C 
ATOM      6  C   UNL     1      32.757 -20.110 -20.095  0.00  0.00    -0.077 C 
ATOM      7  H   UNL     1      33.564 -21.970 -20.211  0.00  0.00    -0.079 HD
ENDROOT
BRANCH   2   8
ATOM      8  C   UNL     1      35.616 -18.743 -22.337  0.00  0.00    +0.094 C 
BRANCH   8  10
ATOM      9  O   UNL     1      34.154 -18.033 -24.881  0.00  0.00    -0.270 OA
ATOM     10  N   UNL     1      35.129 -17.477 -22.797  0.00  0.00    -0.272 N 
ATOM     11  C   UNL     1      35.294 -16.250 -22.012  0.00  0.00    +0.121 C 
ATOM     12  C   UNL     1      34.456 -17.246 -24.003  0.00  0.00    +0.249 C 
ATOM     13  C   UNL     1      34.642 -15.225 -22.876  0.00  0.00    +0.002 C 
ATOM     14  C   UNL     1      34.152 -15.812 -24.043  0.00  0.00    +0.051 C 
ATOM     15  C   UNL     1      34.487 -13.870 -22.658  0.00  0.00    -0.002 C 
ATOM     16  C   UNL     1      33.499 -15.090 -25.023  0.00  0.00    +0.004 C 
ATOM     17  C   UNL     1      33.830 -13.115 -23.635  0.00  0.00    -0.000 C 
ATOM     18  C   UNL     1      33.340 -13.720 -24.807  0.00  0.00    +0.000 C 
ENDBRANCH   8  10
ENDBRANCH   2   8
BRANCH   1  19
ATOM     19  C   UNL     1      32.800 -21.758 -18.339  0.00  0.00    -0.006 C 
BRANCH  19  21
ATOM     20  O   UNL     1      33.894 -23.890 -18.629  0.00  0.00    -0.294 OA
ATOM     21  C   UNL     1      33.505 -23.014 -17.860  0.00  0.00    +0.152 C 
BRANCH  21  23
ATOM     22  F   UNL     1      34.354 -23.658 -12.379  0.00  0.00    -0.204 F 
ATOM     23  C   UNL     1      33.732 -23.185 -16.394  0.00  0.00    +0.033 C 
ATOM     24  C   UNL     1      32.645 -23.417 -15.582  0.00  0.00    +0.005 C 
ATOM     25  C   UNL     1      35.018 -23.106 -15.913  0.00  0.00    +0.005 C 
ATOM     26  C   UNL     1      32.857 -23.579 -14.213  0.00  0.00    +0.030 C 
ATOM     27  C   UNL     1      35.231 -23.268 -14.544  0.00  0.00    +0.030 C 
ATOM     28  C   UNL     1      34.151 -23.504 -13.694  0.00  0.00    +0.140 C 
ENDBRANCH  21  23
ENDBRANCH  19  21
ENDBRANCH   1  19
TORSDOF 5
ENDMDL
MODEL 6
REMARK VINA RESULT:     -11.2      3.466      6.338
REMARK  Name = 9799284
REMARK  5 active torsions:
REMARK  status: ('A' for Active; 'I' for Inactive)
REMARK    1  A    between atoms: N_1  and  C_19
REMARK    2  A    between atoms: C_2  and  C_8
REMARK    3  A    between atoms: C_8  and  N_10
REMARK    4  A    between atoms: C_19  and  C_21
REMARK    5  A    between atoms: C_21  and  C_23
REMARK                            x       y       z     vdW  Elec       q    Type
REMARK                         _______ _______ _______ _____ _____    ______ ____
ROOT
ATOM      1  N   UNL     1      35.530 -19.528 -20.723  0.00  0.00    +0.392 N 
ATOM      2  C   UNL     1      34.361 -21.491 -18.886  0.00  0.00    +0.016 C 
ATOM      3  C   UNL     1      33.525 -20.738 -19.926  0.00  0.00    -0.021 C 
ATOM      4  C   UNL     1      35.820 -21.566 -19.350  0.00  0.00    -0.021 C 
ATOM      5  C   UNL     1      34.144 -19.380 -20.259  0.00  0.00    -0.077 C 
ATOM      6  C   UNL     1      36.363 -20.180 -19.703  0.00  0.00    -0.077 C 
ATOM      7  H   UNL     1      35.523 -20.124 -21.551  0.00  0.00    -0.079 HD
ENDROOT
BRANCH   2   8
ATOM      8  C   UNL     1      33.795 -22.886 -18.631  0.00  0.00    +0.094 C 
BRANCH   8  10
ATOM      9  O   UNL     1      35.282 -23.565 -16.093  0.00  0.00    -0.270 OA
ATOM     10  N   UNL     1      33.316 -23.007 -17.287  0.00  0.00    -0.272 N 
ATOM     11  C   UNL     1      31.907 -22.793 -16.943  0.00  0.00    +0.121 C 
ATOM     12  C   UNL     1      34.090 -23.329 -16.166  0.00  0.00    +0.249 C 
ATOM     13  C   UNL     1      31.897 -23.021 -15.471  0.00  0.00    +0.002 C 
ATOM     14  C   UNL     1      33.178 -23.336 -15.017  0.00  0.00    +0.051 C 
ATOM     15  C   UNL     1      30.838 -22.959 -14.584  0.00  0.00    -0.002 C 
ATOM     16  C   UNL     1      33.456 -23.596 -13.689  0.00  0.00    +0.004 C 
ATOM     17  C   UNL     1      31.093 -23.218 -13.234  0.00  0.00    -0.000 C 
ATOM     18  C   UNL     1      32.391 -23.534 -12.790  0.00  0.00    +0.000 C 
ENDBRANCH   8  10
ENDBRANCH   2   8
BRANCH   1  19
ATOM     19  C   UNL     1      36.091 -18.228 -21.087  0.00  0.00    -0.006 C 
BRANCH  19  21
ATOM     20  O   UNL     1      35.135 -18.426 -23.294  0.00  0.00    -0.294 OA
ATOM     21  C   UNL     1      35.382 -17.711 -22.326  0.00  0.00    +0.152 C 
BRANCH  21  23
ATOM     22  F   UNL     1      33.850 -12.344 -22.462  0.00  0.00    -0.204 F 
ATOM     23  C   UNL     1      34.971 -16.275 -22.362  0.00  0.00    +0.033 C 
ATOM     24  C   UNL     1      34.968 -15.562 -21.185  0.00  0.00    +0.005 C 
ATOM     25  C   UNL     1      34.613 -15.723 -23.570  0.00  0.00    +0.005 C 
ATOM     26  C   UNL     1      34.586 -14.220 -21.219  0.00  0.00    +0.030 C 
ATOM     27  C   UNL     1      34.232 -14.382 -23.604  0.00  0.00    +0.030 C 
ATOM     28  C   UNL     1      34.217 -13.631 -22.429  0.00  0.00    +0.140 C 
ENDBRANCH  21  23
ENDBRANCH  19  21
ENDBRANCH   1  19
TORSDOF 5
ENDMDL
MODEL 7
REMARK VINA RESULT:     -11.0      1.608      2.105
REMARK  Name = 9799284
REMARK  5 active torsions:
REMARK  status: ('A' for Active; 'I' for Inactive)
REMARK    1  A    between atoms: N_1  and  C_19
REMARK    2  A    between atoms: C_2  and  C_8
REMARK    3  A    between atoms: C_8  and  N_10
REMARK    4  A    between atoms: C_19  and  C_21
REMARK    5  A    between atoms: C_21  and  C_23
REMARK                            x       y       z     vdW  Elec       q    Type
REMARK                         _______ _______ _______ _____ _____    ______ ____
ROOT
ATOM      1  N   UNL     1      34.094 -14.379 -21.083  0.00  0.00    +0.392 N 
ATOM      2  C   UNL     1      35.555 -16.735 -22.037  0.00  0.00    +0.016 C 
ATOM      3  C   UNL     1      34.981 -16.642 -20.619  0.00  0.00    -0.021 C 
ATOM      4  C   UNL     1      34.762 -15.823 -22.978  0.00  0.00    -0.021 C 
ATOM      5  C   UNL     1      34.890 -15.188 -20.151  0.00  0.00    -0.077 C 
ATOM      6  C   UNL     1      34.678 -14.396 -22.432  0.00  0.00    -0.077 C 
ATOM      7  H   UNL     1      33.162 -14.789 -21.139  0.00  0.00    -0.079 HD
ENDROOT
BRANCH   2   8
ATOM      8  C   UNL     1      35.551 -18.177 -22.537  0.00  0.00    +0.094 C 
BRANCH   8  10
ATOM      9  O   UNL     1      37.634 -19.102 -20.557  0.00  0.00    -0.270 OA
ATOM     10  N   UNL     1      35.441 -19.099 -21.447  0.00  0.00    -0.272 N 
ATOM     11  C   UNL     1      34.179 -19.771 -21.124  0.00  0.00    +0.121 C 
ATOM     12  C   UNL     1      36.473 -19.467 -20.576  0.00  0.00    +0.249 C 
ATOM     13  C   UNL     1      34.550 -20.604 -19.946  0.00  0.00    +0.002 C 
ATOM     14  C   UNL     1      35.897 -20.424 -19.626  0.00  0.00    +0.051 C 
ATOM     15  C   UNL     1      33.765 -21.464 -19.201  0.00  0.00    -0.002 C 
ATOM     16  C   UNL     1      36.507 -21.077 -18.574  0.00  0.00    +0.004 C 
ATOM     17  C   UNL     1      34.359 -22.138 -18.129  0.00  0.00    -0.000 C 
ATOM     18  C   UNL     1      35.718 -21.946 -17.818  0.00  0.00    +0.000 C 
ENDBRANCH   8  10
ENDBRANCH   2   8
BRANCH   1  19
ATOM     19  C   UNL     1      33.973 -13.006 -20.596  0.00  0.00    -0.006 C 
BRANCH  19  21
ATOM     20  O   UNL     1      31.599 -13.440 -20.562  0.00  0.00    -0.294 OA
ATOM     21  C   UNL     1      32.507 -12.612 -20.582  0.00  0.00    +0.152 C 
BRANCH  21  23
ATOM     22  F   UNL     1      31.219  -7.179 -20.621  0.00  0.00    -0.204 F 
ATOM     23  C   UNL     1      32.161 -11.159 -20.593  0.00  0.00    +0.033 C 
ATOM     24  C   UNL     1      31.843 -10.549 -19.401  0.00  0.00    +0.005 C 
ATOM     25  C   UNL     1      32.177 -10.487 -21.792  0.00  0.00    +0.005 C 
ATOM     26  C   UNL     1      31.522  -9.192 -19.410  0.00  0.00    +0.030 C 
ATOM     27  C   UNL     1      31.857  -9.130 -21.803  0.00  0.00    +0.030 C 
ATOM     28  C   UNL     1      31.528  -8.482 -20.612  0.00  0.00    +0.140 C 
ENDBRANCH  21  23
ENDBRANCH  19  21
ENDBRANCH   1  19
TORSDOF 5
ENDMDL
MODEL 8
REMARK VINA RESULT:     -11.0      4.086      7.113
REMARK  Name = 9799284
REMARK  5 active torsions:
REMARK  status: ('A' for Active; 'I' for Inactive)
REMARK    1  A    between atoms: N_1  and  C_19
REMARK    2  A    between atoms: C_2  and  C_8
REMARK    3  A    between atoms: C_8  and  N_10
REMARK    4  A    between atoms: C_19  and  C_21
REMARK    5  A    between atoms: C_21  and  C_23
REMARK                            x       y       z     vdW  Elec       q    Type
REMARK                         _______ _______ _______ _____ _____    ______ ____
ROOT
ATOM      1  N   UNL     1      35.168 -20.030 -20.840  0.00  0.00    +0.392 N 
ATOM      2  C   UNL     1      34.131 -21.538 -18.549  0.00  0.00    +0.016 C 
ATOM      3  C   UNL     1      33.215 -20.932 -19.618  0.00  0.00    -0.021 C 
ATOM      4  C   UNL     1      35.520 -21.796 -19.144  0.00  0.00    -0.021 C 
ATOM      5  C   UNL     1      33.855 -19.703 -20.267  0.00  0.00    -0.077 C 
ATOM      6  C   UNL     1      36.083 -20.539 -19.810  0.00  0.00    -0.077 C 
ATOM      7  H   UNL     1      35.035 -20.765 -21.534  0.00  0.00    -0.079 HD
ENDROOT
BRANCH   2   8
ATOM      8  C   UNL     1      33.533 -22.819 -17.975  0.00  0.00    +0.094 C 
BRANCH   8  10
ATOM      9  O   UNL     1      31.961 -23.734 -15.565  0.00  0.00    -0.270 OA
ATOM     10  N   UNL     1      33.955 -23.021 -16.622  0.00  0.00    -0.272 N 
ATOM     11  C   UNL     1      35.339 -22.788 -16.198  0.00  0.00    +0.121 C 
ATOM     12  C   UNL     1      33.145 -23.451 -15.564  0.00  0.00    +0.249 C 
ATOM     13  C   UNL     1      35.293 -23.125 -14.747  0.00  0.00    +0.002 C 
ATOM     14  C   UNL     1      34.005 -23.514 -14.378  0.00  0.00    +0.051 C 
ATOM     15  C   UNL     1      36.308 -23.095 -13.810  0.00  0.00    -0.002 C 
ATOM     16  C   UNL     1      33.677 -23.882 -13.087  0.00  0.00    +0.004 C 
ATOM     17  C   UNL     1      36.004 -23.462 -12.495  0.00  0.00    -0.000 C 
ATOM     18  C   UNL     1      34.700 -23.853 -12.137  0.00  0.00    +0.000 C 
ENDBRANCH   8  10
ENDBRANCH   2   8
BRANCH   1  19
ATOM     19  C   UNL     1      35.743 -18.860 -21.502  0.00  0.00    -0.006 C 
BRANCH  19  21
ATOM     20  O   UNL     1      34.874 -19.656 -23.608  0.00  0.00    -0.294 OA
ATOM     21  C   UNL     1      35.105 -18.701 -22.871  0.00  0.00    +0.152 C 
BRANCH  21  23
ATOM     22  F   UNL     1      33.770 -13.561 -24.596  0.00  0.00    -0.204 F 
ATOM     23  C   UNL     1      34.747 -17.326 -23.332  0.00  0.00    +0.033 C 
ATOM     24  C   UNL     1      35.060 -16.258 -22.523  0.00  0.00    +0.005 C 
ATOM     25  C   UNL     1      34.119 -17.181 -24.547  0.00  0.00    +0.005 C 
ATOM     26  C   UNL     1      34.727 -14.973 -22.954  0.00  0.00    +0.030 C 
ATOM     27  C   UNL     1      33.786 -15.898 -24.979  0.00  0.00    +0.030 C 
ATOM     28  C   UNL     1      34.090 -14.794 -24.182  0.00  0.00    +0.140 C 
ENDBRANCH  21  23
ENDBRANCH  19  21
ENDBRANCH   1  19
TORSDOF 5
ENDMDL
MODEL 9
REMARK VINA RESULT:     -10.9      4.092     10.239
REMARK  Name = 9799284
REMARK  5 active torsions:
REMARK  status: ('A' for Active; 'I' for Inactive)
REMARK    1  A    between atoms: N_1  and  C_19
REMARK    2  A    between atoms: C_2  and  C_8
REMARK    3  A    between atoms: C_8  and  N_10
REMARK    4  A    between atoms: C_19  and  C_21
REMARK    5  A    between atoms: C_21  and  C_23
REMARK                            x       y       z     vdW  Elec       q    Type
REMARK                         _______ _______ _______ _____ _____    ______ ____
ROOT
ATOM      1  N   UNL     1      36.162 -20.124 -20.220  0.00  0.00    +0.392 N 
ATOM      2  C   UNL     1      35.050 -18.169 -22.101  0.00  0.00    +0.016 C 
ATOM      3  C   UNL     1      36.550 -18.471 -22.020  0.00  0.00    -0.021 C 
ATOM      4  C   UNL     1      34.250 -19.378 -21.602  0.00  0.00    -0.021 C 
ATOM      5  C   UNL     1      36.946 -18.949 -20.622  0.00  0.00    -0.077 C 
ATOM      6  C   UNL     1      34.723 -19.826 -20.218  0.00  0.00    -0.077 C 
ATOM      7  H   UNL     1      36.328 -20.863 -20.904  0.00  0.00    -0.079 HD
ENDROOT
BRANCH   2   8
ATOM      8  C   UNL     1      34.641 -17.790 -23.522  0.00  0.00    +0.094 C 
BRANCH   8  10
ATOM      9  O   UNL     1      33.510 -16.180 -25.811  0.00  0.00    -0.270 OA
ATOM     10  N   UNL     1      34.400 -16.382 -23.628  0.00  0.00    -0.272 N 
ATOM     11  C   UNL     1      34.700 -15.459 -22.530  0.00  0.00    +0.121 C 
ATOM     12  C   UNL     1      33.867 -15.722 -24.742  0.00  0.00    +0.249 C 
ATOM     13  C   UNL     1      34.290 -14.142 -23.094  0.00  0.00    +0.002 C 
ATOM     14  C   UNL     1      33.801 -14.300 -24.392  0.00  0.00    +0.051 C 
ATOM     15  C   UNL     1      34.339 -12.889 -22.514  0.00  0.00    -0.002 C 
ATOM     16  C   UNL     1      33.350 -13.239 -25.152  0.00  0.00    +0.004 C 
ATOM     17  C   UNL     1      33.887 -11.797 -23.263  0.00  0.00    -0.000 C 
ATOM     18  C   UNL     1      33.397 -11.971 -24.570  0.00  0.00    +0.000 C 
ENDBRANCH   8  10
ENDBRANCH   2   8
BRANCH   1  19
ATOM     19  C   UNL     1      36.588 -20.600 -18.905  0.00  0.00    -0.006 C 
BRANCH  19  21
ATOM     20  O   UNL     1      35.155 -22.489 -19.355  0.00  0.00    -0.294 OA
ATOM     21  C   UNL     1      35.763 -21.817 -18.526  0.00  0.00    +0.152 C 
BRANCH  21  23
ATOM     22  F   UNL     1      35.496 -23.276 -13.143  0.00  0.00    -0.204 F 
ATOM     23  C   UNL     1      35.691 -22.206 -17.086  0.00  0.00    +0.033 C 
ATOM     24  C   UNL     1      34.536 -22.789 -16.618  0.00  0.00    +0.005 C 
ATOM     25  C   UNL     1      36.783 -21.968 -16.284  0.00  0.00    +0.005 C 
ATOM     26  C   UNL     1      34.469 -23.154 -15.273  0.00  0.00    +0.030 C 
ATOM     27  C   UNL     1      36.717 -22.333 -14.940  0.00  0.00    +0.030 C 
ATOM     28  C   UNL     1      35.560 -22.926 -14.434  0.00  0.00    +0.140 C 
ENDBRANCH  21  23
ENDBRANCH  19  21
ENDBRANCH   1  19
TORSDOF 5
ENDMDL
