MODEL 1
REMARK VINA RESULT:     -11.7      0.000      0.000
REMARK  Name = 6450551
REMARK  5 active torsions:
REMARK  status: ('A' for Active; 'I' for Inactive)
REMARK    1  A    between atoms: C_5  and  C_11
REMARK    2  A    between atoms: C_7  and  S_19
REMARK    3  A    between atoms: C_12  and  C_14
REMARK    4  A    between atoms: S_19  and  C_20
REMARK    5  A    between atoms: C_21  and  C_28
REMARK                            x       y       z     vdW  Elec       q    Type
REMARK                         _______ _______ _______ _____ _____    ______ ____
ROOT
ATOM      1  N   UNL     1      36.127 -22.131 -17.737  0.00  0.00    -0.276 N 
ATOM      2  N   UNL     1      35.125 -22.790 -17.129  0.00  0.00    -0.173 NA
ATOM      3  C   UNL     1      34.331 -21.375 -18.744  0.00  0.00    +0.036 A 
ATOM      4  C   UNL     1      35.717 -21.266 -18.716  0.00  0.00    +0.076 A 
ATOM      5  C   UNL     1      34.034 -22.327 -17.744  0.00  0.00    +0.102 A 
ATOM      6  C   UNL     1      36.431 -20.415 -19.563  0.00  0.00    +0.025 C 
ATOM      7  C   UNL     1      35.688 -19.652 -20.468  0.00  0.00    +0.031 C 
ATOM      8  C   UNL     1      33.598 -20.601 -19.659  0.00  0.00    +0.004 C 
ATOM      9  C   UNL     1      34.295 -19.741 -20.517  0.00  0.00    +0.007 C 
ATOM     10  H   UNL     1      37.073 -22.259 -17.499  0.00  0.00    +0.189 HD
ENDROOT
BRANCH   5  11
ATOM     11  C   UNL     1      32.723 -22.758 -17.415  0.00  0.00    +0.022 C 
ATOM     12  C   UNL     1      32.120 -22.742 -16.196  0.00  0.00    +0.021 C 
BRANCH  12  14
ATOM     13  N   UNL     1      29.776 -22.570 -16.572  0.00  0.00    -0.244 NA
ATOM     14  C   UNL     1      30.753 -23.218 -15.916  0.00  0.00    +0.081 C 
ATOM     15  C   UNL     1      30.570 -24.256 -15.033  0.00  0.00    +0.019 C 
ATOM     16  C   UNL     1      29.263 -24.670 -14.800  0.00  0.00    +0.003 C 
ATOM     17  C   UNL     1      28.519 -22.999 -16.321  0.00  0.00    +0.099 C 
ATOM     18  C   UNL     1      28.212 -24.034 -15.451  0.00  0.00    +0.021 C 
ENDBRANCH  12  14
ENDBRANCH   5  11
BRANCH   7  19
ATOM     19  S   UNL     1      36.538 -18.542 -21.580  0.00  0.00    -0.087 S 
BRANCH  19  20
ATOM     20  C   UNL     1      35.320 -18.349 -22.873  0.00  0.00    +0.034 C 
ATOM     21  C   UNL     1      34.719 -17.117 -23.144  0.00  0.00    +0.059 C 
ATOM     22  C   UNL     1      34.968 -19.472 -23.623  0.00  0.00    +0.007 C 
ATOM     23  C   UNL     1      33.772 -17.011 -24.163  0.00  0.00    +0.005 C 
ATOM     24  C   UNL     1      34.021 -19.366 -24.642  0.00  0.00    +0.001 C 
ATOM     25  C   UNL     1      33.423 -18.135 -24.911  0.00  0.00    +0.000 C 
BRANCH  21  28
ATOM     26  O   UNL     1      35.622 -14.962 -22.951  0.00  0.00    -0.270 OA
ATOM     27  N   UNL     1      34.660 -15.878 -21.051  0.00  0.00    -0.299 N 
ATOM     28  C   UNL     1      35.046 -15.910 -22.394  0.00  0.00    +0.246 C 
ATOM     29  C   UNL     1      34.891 -14.745 -20.183  0.00  0.00    +0.111 C 
ATOM     30  H   UNL     1      34.207 -16.668 -20.677  0.00  0.00    +0.150 HD
ENDBRANCH  21  28
ENDBRANCH  19  20
ENDBRANCH   7  19
TORSDOF 5
ENDMDL
MODEL 2
REMARK VINA RESULT:     -11.7      1.697      2.764
REMARK  Name = 6450551
REMARK  5 active torsions:
REMARK  status: ('A' for Active; 'I' for Inactive)
REMARK    1  A    between atoms: C_5  and  C_11
REMARK    2  A    between atoms: C_7  and  S_19
REMARK    3  A    between atoms: C_12  and  C_14
REMARK    4  A    between atoms: S_19  and  C_20
REMARK    5  A    between atoms: C_21  and  C_28
REMARK                            x       y       z     vdW  Elec       q    Type
REMARK                         _______ _______ _______ _____ _____    ______ ____
ROOT
ATOM      1  N   UNL     1      36.147 -21.673 -18.518  0.00  0.00    -0.276 N 
ATOM      2  N   UNL     1      35.399 -22.395 -17.667  0.00  0.00    -0.173 NA
ATOM      3  C   UNL     1      34.091 -21.215 -19.128  0.00  0.00    +0.036 A 
ATOM      4  C   UNL     1      35.423 -20.942 -19.421  0.00  0.00    +0.076 A 
ATOM      5  C   UNL     1      34.149 -22.114 -18.042  0.00  0.00    +0.102 A 
ATOM      6  C   UNL     1      35.816 -20.082 -20.449  0.00  0.00    +0.025 C 
ATOM      7  C   UNL     1      34.799 -19.485 -21.199  0.00  0.00    +0.031 C 
ATOM      8  C   UNL     1      33.080 -20.607 -19.892  0.00  0.00    +0.004 C 
ATOM      9  C   UNL     1      33.453 -19.741 -20.927  0.00  0.00    +0.007 C 
ATOM     10  H   UNL     1      37.131 -21.670 -18.495  0.00  0.00    +0.189 HD
ENDROOT
BRANCH   5  11
ATOM     11  C   UNL     1      33.010 -22.670 -17.402  0.00  0.00    +0.022 C 
ATOM     12  C   UNL     1      32.813 -22.869 -16.072  0.00  0.00    +0.021 C 
BRANCH  12  14
ATOM     13  N   UNL     1      31.837 -24.335 -14.470  0.00  0.00    -0.244 NA
ATOM     14  C   UNL     1      31.607 -23.465 -15.469  0.00  0.00    +0.081 C 
ATOM     15  C   UNL     1      30.369 -23.110 -15.950  0.00  0.00    +0.019 C 
ATOM     16  C   UNL     1      29.261 -23.699 -15.351  0.00  0.00    +0.003 C 
ATOM     17  C   UNL     1      30.737 -24.887 -13.912  0.00  0.00    +0.099 C 
ATOM     18  C   UNL     1      29.440 -24.606 -14.312  0.00  0.00    +0.021 C 
ENDBRANCH  12  14
ENDBRANCH   5  11
BRANCH   7  19
ATOM     19  S   UNL     1      35.231 -18.374 -22.529  0.00  0.00    -0.087 S 
BRANCH  19  20
ATOM     20  C   UNL     1      34.997 -16.786 -21.743  0.00  0.00    +0.034 C 
ATOM     21  C   UNL     1      34.709 -15.633 -22.476  0.00  0.00    +0.059 C 
ATOM     22  C   UNL     1      35.111 -16.714 -20.353  0.00  0.00    +0.007 C 
ATOM     23  C   UNL     1      34.534 -14.414 -21.821  0.00  0.00    +0.005 C 
ATOM     24  C   UNL     1      34.936 -15.495 -19.698  0.00  0.00    +0.001 C 
ATOM     25  C   UNL     1      34.647 -14.345 -20.433  0.00  0.00    +0.000 C 
BRANCH  21  28
ATOM     26  O   UNL     1      35.115 -16.544 -24.597  0.00  0.00    -0.270 OA
ATOM     27  N   UNL     1      33.811 -14.630 -24.503  0.00  0.00    -0.299 N 
ATOM     28  C   UNL     1      34.578 -15.647 -23.928  0.00  0.00    +0.246 C 
ATOM     29  C   UNL     1      33.568 -14.521 -25.924  0.00  0.00    +0.111 C 
ATOM     30  H   UNL     1      33.415 -13.952 -23.909  0.00  0.00    +0.150 HD
ENDBRANCH  21  28
ENDBRANCH  19  20
ENDBRANCH   7  19
TORSDOF 5
ENDMDL
MODEL 3
REMARK VINA RESULT:     -11.6      3.513      9.042
REMARK  Name = 6450551
REMARK  5 active torsions:
REMARK  status: ('A' for Active; 'I' for Inactive)
REMARK    1  A    between atoms: C_5  and  C_11
REMARK    2  A    between atoms: C_7  and  S_19
REMARK    3  A    between atoms: C_12  and  C_14
REMARK    4  A    between atoms: S_19  and  C_20
REMARK    5  A    between atoms: C_21  and  C_28
REMARK                            x       y       z     vdW  Elec       q    Type
REMARK                         _______ _______ _______ _____ _____    ______ ____
ROOT
ATOM      1  N   UNL     1      37.003 -19.961 -19.611  0.00  0.00    -0.276 N 
ATOM      2  N   UNL     1      36.858 -18.782 -20.239  0.00  0.00    -0.173 NA
ATOM      3  C   UNL     1      34.850 -19.858 -20.013  0.00  0.00    +0.036 A 
ATOM      4  C   UNL     1      35.836 -20.657 -19.445  0.00  0.00    +0.076 A 
ATOM      5  C   UNL     1      35.546 -18.723 -20.482  0.00  0.00    +0.102 A 
ATOM      6  C   UNL     1      35.567 -21.893 -18.854  0.00  0.00    +0.025 C 
ATOM      7  C   UNL     1      34.235 -22.319 -18.852  0.00  0.00    +0.031 C 
ATOM      8  C   UNL     1      33.516 -20.299 -20.003  0.00  0.00    +0.004 C 
ATOM      9  C   UNL     1      33.225 -21.536 -19.416  0.00  0.00    +0.007 C 
ATOM     10  H   UNL     1      37.874 -20.297 -19.299  0.00  0.00    +0.189 HD
ENDROOT
BRANCH   5  11
ATOM     11  C   UNL     1      34.934 -17.625 -21.143  0.00  0.00    +0.022 C 
ATOM     12  C   UNL     1      35.436 -16.880 -22.163  0.00  0.00    +0.021 C 
BRANCH  12  14
ATOM     13  N   UNL     1      34.264 -15.980 -24.029  0.00  0.00    -0.244 NA
ATOM     14  C   UNL     1      34.753 -15.740 -22.800  0.00  0.00    +0.081 C 
ATOM     15  C   UNL     1      34.663 -14.545 -22.125  0.00  0.00    +0.019 C 
ATOM     16  C   UNL     1      34.010 -13.499 -22.767  0.00  0.00    +0.003 C 
ATOM     17  C   UNL     1      33.637 -14.940 -24.622  0.00  0.00    +0.099 C 
ATOM     18  C   UNL     1      33.485 -13.691 -24.039  0.00  0.00    +0.021 C 
ENDBRANCH  12  14
ENDBRANCH   5  11
BRANCH   7  19
ATOM     19  S   UNL     1      33.821 -23.891 -18.113  0.00  0.00    -0.087 S 
BRANCH  19  20
ATOM     20  C   UNL     1      33.064 -23.365 -16.582  0.00  0.00    +0.034 C 
ATOM     21  C   UNL     1      33.791 -23.261 -15.394  0.00  0.00    +0.059 C 
ATOM     22  C   UNL     1      31.703 -23.053 -16.591  0.00  0.00    +0.007 C 
ATOM     23  C   UNL     1      33.160 -22.846 -14.222  0.00  0.00    +0.005 C 
ATOM     24  C   UNL     1      31.071 -22.638 -15.419  0.00  0.00    +0.001 C 
ATOM     25  C   UNL     1      31.801 -22.535 -14.234  0.00  0.00    +0.000 C 
BRANCH  21  28
ATOM     26  O   UNL     1      35.592 -24.745 -15.174  0.00  0.00    -0.270 OA
ATOM     27  N   UNL     1      36.102 -22.502 -15.459  0.00  0.00    -0.299 N 
ATOM     28  C   UNL     1      35.214 -23.573 -15.325  0.00  0.00    +0.246 C 
ATOM     29  C   UNL     1      37.540 -22.652 -15.436  0.00  0.00    +0.111 C 
ATOM     30  H   UNL     1      35.729 -21.598 -15.576  0.00  0.00    +0.150 HD
ENDBRANCH  21  28
ENDBRANCH  19  20
ENDBRANCH   7  19
TORSDOF 5
ENDMDL
MODEL 4
REMARK VINA RESULT:     -11.3      3.468      9.297
REMARK  Name = 6450551
REMARK  5 active torsions:
REMARK  status: ('A' for Active; 'I' for Inactive)
REMARK    1  A    between atoms: C_5  and  C_11
REMARK    2  A    between atoms: C_7  and  S_19
REMARK    3  A    between atoms: C_12  and  C_14
REMARK    4  A    between atoms: S_19  and  C_20
REMARK    5  A    between atoms: C_21  and  C_28
REMARK                            x       y       z     vdW  Elec       q    Type
REMARK                         _______ _______ _______ _____ _____    ______ ____
ROOT
ATOM      1  N   UNL     1      34.677 -16.158 -24.447  0.00  0.00    -0.276 N 
ATOM      2  N   UNL     1      34.179 -14.912 -24.522  0.00  0.00    -0.173 NA
ATOM      3  C   UNL     1      34.694 -15.473 -22.364  0.00  0.00    +0.036 A 
ATOM      4  C   UNL     1      35.005 -16.556 -23.179  0.00  0.00    +0.076 A 
ATOM      5  C   UNL     1      34.192 -14.498 -23.253  0.00  0.00    +0.102 A 
ATOM      6  C   UNL     1      35.540 -17.749 -22.688  0.00  0.00    +0.025 C 
ATOM      7  C   UNL     1      35.759 -17.826 -21.310  0.00  0.00    +0.031 C 
ATOM      8  C   UNL     1      34.921 -15.566 -20.980  0.00  0.00    +0.004 C 
ATOM      9  C   UNL     1      35.456 -16.754 -20.468  0.00  0.00    +0.007 C 
ATOM     10  H   UNL     1      34.794 -16.736 -25.235  0.00  0.00    +0.189 HD
ENDROOT
BRANCH   5  11
ATOM     11  C   UNL     1      33.743 -13.211 -22.858  0.00  0.00    +0.022 C 
ATOM     12  C   UNL     1      32.738 -12.905 -21.995  0.00  0.00    +0.021 C 
BRANCH  12  14
ATOM     13  N   UNL     1      32.686 -10.578 -22.494  0.00  0.00    -0.244 NA
ATOM     14  C   UNL     1      32.310 -11.541 -21.635  0.00  0.00    +0.081 C 
ATOM     15  C   UNL     1      31.583 -11.345 -20.485  0.00  0.00    +0.019 C 
ATOM     16  C   UNL     1      31.203 -10.042 -20.186  0.00  0.00    +0.003 C 
ATOM     17  C   UNL     1      32.300  -9.324 -22.171  0.00  0.00    +0.099 C 
ATOM     18  C   UNL     1      31.565  -9.005 -21.039  0.00  0.00    +0.021 C 
ENDBRANCH  12  14
ENDBRANCH   5  11
BRANCH   7  19
ATOM     19  S   UNL     1      36.440 -19.325 -20.616  0.00  0.00    -0.087 S 
BRANCH  19  20
ATOM     20  C   UNL     1      34.960 -20.137 -20.029  0.00  0.00    +0.034 C 
ATOM     21  C   UNL     1      35.001 -21.128 -19.045  0.00  0.00    +0.059 C 
ATOM     22  C   UNL     1      33.735 -19.758 -20.581  0.00  0.00    +0.007 C 
ATOM     23  C   UNL     1      33.820 -21.735 -18.617  0.00  0.00    +0.005 C 
ATOM     24  C   UNL     1      32.555 -20.365 -20.152  0.00  0.00    +0.001 C 
ATOM     25  C   UNL     1      32.598 -21.355 -19.170  0.00  0.00    +0.000 C 
BRANCH  21  28
ATOM     26  O   UNL     1      37.235 -21.831 -19.139  0.00  0.00    -0.270 OA
ATOM     27  N   UNL     1      36.276 -21.637 -17.037  0.00  0.00    -0.299 N 
ATOM     28  C   UNL     1      36.250 -21.564 -18.433  0.00  0.00    +0.246 C 
ATOM     29  C   UNL     1      37.446 -22.029 -16.282  0.00  0.00    +0.111 C 
ATOM     30  H   UNL     1      35.456 -21.409 -16.542  0.00  0.00    +0.150 HD
ENDBRANCH  21  28
ENDBRANCH  19  20
ENDBRANCH   7  19
TORSDOF 5
ENDMDL
MODEL 5
REMARK VINA RESULT:     -11.2      4.778      8.561
REMARK  Name = 6450551
REMARK  5 active torsions:
REMARK  status: ('A' for Active; 'I' for Inactive)
REMARK    1  A    between atoms: C_5  and  C_11
REMARK    2  A    between atoms: C_7  and  S_19
REMARK    3  A    between atoms: C_12  and  C_14
REMARK    4  A    between atoms: S_19  and  C_20
REMARK    5  A    between atoms: C_21  and  C_28
REMARK                            x       y       z     vdW  Elec       q    Type
REMARK                         _______ _______ _______ _____ _____    ______ ____
ROOT
ATOM      1  N   UNL     1      33.675 -15.788 -25.411  0.00  0.00    -0.276 N 
ATOM      2  N   UNL     1      34.090 -16.972 -24.931  0.00  0.00    -0.173 NA
ATOM      3  C   UNL     1      34.409 -15.297 -23.404  0.00  0.00    +0.036 A 
ATOM      4  C   UNL     1      33.839 -14.741 -24.544  0.00  0.00    +0.076 A 
ATOM      5  C   UNL     1      34.536 -16.670 -23.709  0.00  0.00    +0.102 A 
ATOM      6  C   UNL     1      33.541 -13.382 -24.660  0.00  0.00    +0.025 C 
ATOM      7  C   UNL     1      33.842 -12.570 -23.562  0.00  0.00    +0.031 C 
ATOM      8  C   UNL     1      34.706 -14.469 -22.309  0.00  0.00    +0.004 C 
ATOM      9  C   UNL     1      34.415 -13.102 -22.405  0.00  0.00    +0.007 C 
ATOM     10  H   UNL     1      33.287 -15.681 -26.310  0.00  0.00    +0.189 HD
ENDROOT
BRANCH   5  11
ATOM     11  C   UNL     1      35.077 -17.639 -22.825  0.00  0.00    +0.022 C 
ATOM     12  C   UNL     1      34.537 -18.111 -21.671  0.00  0.00    +0.021 C 
BRANCH  12  14
ATOM     13  N   UNL     1      36.465 -18.928 -20.540  0.00  0.00    -0.244 NA
ATOM     14  C   UNL     1      35.158 -19.114 -20.787  0.00  0.00    +0.081 C 
ATOM     15  C   UNL     1      34.390 -20.141 -20.290  0.00  0.00    +0.019 C 
ATOM     16  C   UNL     1      35.019 -21.063 -19.462  0.00  0.00    +0.003 C 
ATOM     17  C   UNL     1      37.044 -19.843 -19.732  0.00  0.00    +0.099 C 
ATOM     18  C   UNL     1      36.372 -20.919 -19.173  0.00  0.00    +0.021 C 
ENDBRANCH  12  14
ENDBRANCH   5  11
BRANCH   7  19
ATOM     19  S   UNL     1      33.486 -10.822 -23.644  0.00  0.00    -0.087 S 
BRANCH  19  20
ATOM     20  C   UNL     1      32.564 -10.586 -22.132  0.00  0.00    +0.034 C 
ATOM     21  C   UNL     1      32.342  -9.317 -21.591  0.00  0.00    +0.059 C 
ATOM     22  C   UNL     1      32.059 -11.714 -21.483  0.00  0.00    +0.007 C 
ATOM     23  C   UNL     1      31.617  -9.179 -20.408  0.00  0.00    +0.005 C 
ATOM     24  C   UNL     1      31.333 -11.576 -20.300  0.00  0.00    +0.001 C 
ATOM     25  C   UNL     1      31.113 -10.308 -19.762  0.00  0.00    +0.000 C 
BRANCH  21  28
ATOM     26  O   UNL     1      34.031  -7.766 -22.077  0.00  0.00    -0.270 OA
ATOM     27  N   UNL     1      31.942  -7.378 -23.005  0.00  0.00    -0.299 N 
ATOM     28  C   UNL     1      32.846  -8.104 -22.224  0.00  0.00    +0.246 C 
ATOM     29  C   UNL     1      32.295  -6.169 -23.714  0.00  0.00    +0.111 C 
ATOM     30  H   UNL     1      31.017  -7.707 -23.075  0.00  0.00    +0.150 HD
ENDBRANCH  21  28
ENDBRANCH  19  20
ENDBRANCH   7  19
TORSDOF 5
ENDMDL
MODEL 6
REMARK VINA RESULT:     -11.1      3.569      9.432
REMARK  Name = 6450551
REMARK  5 active torsions:
REMARK  status: ('A' for Active; 'I' for Inactive)
REMARK    1  A    between atoms: C_5  and  C_11
REMARK    2  A    between atoms: C_7  and  S_19
REMARK    3  A    between atoms: C_12  and  C_14
REMARK    4  A    between atoms: S_19  and  C_20
REMARK    5  A    between atoms: C_21  and  C_28
REMARK                            x       y       z     vdW  Elec       q    Type
REMARK                         _______ _______ _______ _____ _____    ______ ____
ROOT
ATOM      1  N   UNL     1      37.019 -19.904 -19.801  0.00  0.00    -0.276 N 
ATOM      2  N   UNL     1      36.947 -18.937 -20.732  0.00  0.00    -0.173 NA
ATOM      3  C   UNL     1      34.884 -19.827 -20.295  0.00  0.00    +0.036 A 
ATOM      4  C   UNL     1      35.815 -20.479 -19.495  0.00  0.00    +0.076 A 
ATOM      5  C   UNL     1      35.646 -18.893 -21.029  0.00  0.00    +0.102 A 
ATOM      6  C   UNL     1      35.471 -21.495 -18.600  0.00  0.00    +0.025 C 
ATOM      7  C   UNL     1      34.121 -21.849 -18.531  0.00  0.00    +0.031 C 
ATOM      8  C   UNL     1      33.530 -20.194 -20.214  0.00  0.00    +0.004 C 
ATOM      9  C   UNL     1      33.165 -21.211 -19.323  0.00  0.00    +0.007 C 
ATOM     10  H   UNL     1      37.865 -20.176 -19.377  0.00  0.00    +0.189 HD
ENDROOT
BRANCH   5  11
ATOM     11  C   UNL     1      35.105 -17.995 -21.986  0.00  0.00    +0.022 C 
ATOM     12  C   UNL     1      35.298 -16.652 -22.074  0.00  0.00    +0.021 C 
BRANCH  12  14
ATOM     13  N   UNL     1      34.439 -14.515 -22.677  0.00  0.00    -0.244 NA
ATOM     14  C   UNL     1      34.695 -15.769 -23.089  0.00  0.00    +0.081 C 
ATOM     15  C   UNL     1      34.440 -16.265 -24.345  0.00  0.00    +0.019 C 
ATOM     16  C   UNL     1      33.870 -15.395 -25.269  0.00  0.00    +0.003 C 
ATOM     17  C   UNL     1      33.885 -13.699 -23.601  0.00  0.00    +0.099 C 
ATOM     18  C   UNL     1      33.583 -14.087 -24.897  0.00  0.00    +0.021 C 
ENDBRANCH  12  14
ENDBRANCH   5  11
BRANCH   7  19
ATOM     19  S   UNL     1      33.612 -23.141 -17.407  0.00  0.00    -0.087 S 
BRANCH  19  20
ATOM     20  C   UNL     1      34.814 -22.953 -16.098  0.00  0.00    +0.034 C 
ATOM     21  C   UNL     1      34.478 -23.132 -14.754  0.00  0.00    +0.059 C 
ATOM     22  C   UNL     1      36.123 -22.614 -16.446  0.00  0.00    +0.007 C 
ATOM     23  C   UNL     1      35.448 -22.976 -13.764  0.00  0.00    +0.005 C 
ATOM     24  C   UNL     1      37.093 -22.457 -15.456  0.00  0.00    +0.001 C 
ATOM     25  C   UNL     1      36.754 -22.638 -14.115  0.00  0.00    +0.000 C 
BRANCH  21  28
ATOM     26  O   UNL     1      32.167 -22.760 -14.629  0.00  0.00    -0.270 OA
ATOM     27  N   UNL     1      32.984 -24.674 -13.610  0.00  0.00    -0.299 N 
ATOM     28  C   UNL     1      33.128 -23.486 -14.331  0.00  0.00    +0.246 C 
ATOM     29  C   UNL     1      31.709 -25.173 -13.142  0.00  0.00    +0.111 C 
ATOM     30  H   UNL     1      33.792 -25.200 -13.410  0.00  0.00    +0.150 HD
ENDBRANCH  21  28
ENDBRANCH  19  20
ENDBRANCH   7  19
TORSDOF 5
ENDMDL
MODEL 7
REMARK VINA RESULT:     -10.4      5.424      9.900
REMARK  Name = 6450551
REMARK  5 active torsions:
REMARK  status: ('A' for Active; 'I' for Inactive)
REMARK    1  A    between atoms: C_5  and  C_11
REMARK    2  A    between atoms: C_7  and  S_19
REMARK    3  A    between atoms: C_12  and  C_14
REMARK    4  A    between atoms: S_19  and  C_20
REMARK    5  A    between atoms: C_21  and  C_28
REMARK                            x       y       z     vdW  Elec       q    Type
REMARK                         _______ _______ _______ _____ _____    ______ ____
ROOT
ATOM      1  N   UNL     1      32.459 -23.116 -17.274  0.00  0.00    -0.276 N 
ATOM      2  N   UNL     1      32.646 -22.365 -18.373  0.00  0.00    -0.173 NA
ATOM      3  C   UNL     1      34.552 -22.482 -17.110  0.00  0.00    +0.036 A 
ATOM      4  C   UNL     1      33.565 -23.226 -16.474  0.00  0.00    +0.076 A 
ATOM      5  C   UNL     1      33.922 -21.981 -18.269  0.00  0.00    +0.102 A 
ATOM      6  C   UNL     1      33.777 -23.903 -15.271  0.00  0.00    +0.025 C 
ATOM      7  C   UNL     1      35.052 -23.807 -14.706  0.00  0.00    +0.031 C 
ATOM      8  C   UNL     1      35.829 -22.396 -16.530  0.00  0.00    +0.004 C 
ATOM      9  C   UNL     1      36.063 -23.067 -15.324  0.00  0.00    +0.007 C 
ATOM     10  H   UNL     1      31.601 -23.549 -17.063  0.00  0.00    +0.189 HD
ENDROOT
BRANCH   5  11
ATOM     11  C   UNL     1      34.558 -21.156 -19.233  0.00  0.00    +0.022 C 
ATOM     12  C   UNL     1      33.983 -20.250 -20.068  0.00  0.00    +0.021 C 
BRANCH  12  14
ATOM     13  N   UNL     1      34.018 -19.167 -22.187  0.00  0.00    -0.244 NA
ATOM     14  C   UNL     1      34.701 -19.430 -21.060  0.00  0.00    +0.081 C 
ATOM     15  C   UNL     1      35.977 -19.002 -20.782  0.00  0.00    +0.019 C 
ATOM     16  C   UNL     1      36.615 -18.231 -21.748  0.00  0.00    +0.003 C 
ATOM     17  C   UNL     1      34.669 -18.417 -23.103  0.00  0.00    +0.099 C 
ATOM     18  C   UNL     1      35.956 -17.929 -22.934  0.00  0.00    +0.021 C 
ENDBRANCH  12  14
ENDBRANCH   5  11
BRANCH   7  19
ATOM     19  S   UNL     1      35.392 -24.648 -13.168  0.00  0.00    -0.087 S 
BRANCH  19  20
ATOM     20  C   UNL     1      37.115 -25.074 -13.381  0.00  0.00    +0.034 C 
ATOM     21  C   UNL     1      38.123 -24.486 -12.614  0.00  0.00    +0.059 C 
ATOM     22  C   UNL     1      37.445 -26.025 -14.348  0.00  0.00    +0.007 C 
ATOM     23  C   UNL     1      39.455 -24.849 -12.814  0.00  0.00    +0.005 C 
ATOM     24  C   UNL     1      38.777 -26.388 -14.548  0.00  0.00    +0.001 C 
ATOM     25  C   UNL     1      39.782 -25.799 -13.780  0.00  0.00    +0.000 C 
BRANCH  21  28
ATOM     26  O   UNL     1      38.385 -22.374 -11.630  0.00  0.00    -0.270 OA
ATOM     27  N   UNL     1      36.918 -23.844 -10.600  0.00  0.00    -0.299 N 
ATOM     28  C   UNL     1      37.838 -23.488 -11.590  0.00  0.00    +0.246 C 
ATOM     29  C   UNL     1      36.513 -22.957  -9.532  0.00  0.00    +0.111 C 
ATOM     30  H   UNL     1      36.524 -24.746 -10.632  0.00  0.00    +0.150 HD
ENDBRANCH  21  28
ENDBRANCH  19  20
ENDBRANCH   7  19
TORSDOF 5
ENDMDL
MODEL 8
REMARK VINA RESULT:     -10.3      5.510     10.220
REMARK  Name = 6450551
REMARK  5 active torsions:
REMARK  status: ('A' for Active; 'I' for Inactive)
REMARK    1  A    between atoms: C_5  and  C_11
REMARK    2  A    between atoms: C_7  and  S_19
REMARK    3  A    between atoms: C_12  and  C_14
REMARK    4  A    between atoms: S_19  and  C_20
REMARK    5  A    between atoms: C_21  and  C_28
REMARK                            x       y       z     vdW  Elec       q    Type
REMARK                         _______ _______ _______ _____ _____    ______ ____
ROOT
ATOM      1  N   UNL     1      32.077 -23.073 -17.124  0.00  0.00    -0.276 N 
ATOM      2  N   UNL     1      32.415 -22.367 -18.215  0.00  0.00    -0.173 NA
ATOM      3  C   UNL     1      34.179 -22.558 -16.769  0.00  0.00    +0.036 A 
ATOM      4  C   UNL     1      33.091 -23.224 -16.216  0.00  0.00    +0.076 A 
ATOM      5  C   UNL     1      33.695 -22.055 -17.996  0.00  0.00    +0.102 A 
ATOM      6  C   UNL     1      33.144 -23.876 -14.982  0.00  0.00    +0.025 C 
ATOM      7  C   UNL     1      34.362 -23.839 -14.297  0.00  0.00    +0.031 C 
ATOM      8  C   UNL     1      35.397 -22.529 -16.068  0.00  0.00    +0.004 C 
ATOM      9  C   UNL     1      35.471 -23.177 -14.829  0.00  0.00    +0.007 C 
ATOM     10  H   UNL     1      31.178 -23.449 -16.987  0.00  0.00    +0.189 HD
ENDROOT
BRANCH   5  11
ATOM     11  C   UNL     1      34.471 -21.297 -18.912  0.00  0.00    +0.022 C 
ATOM     12  C   UNL     1      34.034 -20.391 -19.826  0.00  0.00    +0.021 C 
BRANCH  12  14
ATOM     13  N   UNL     1      36.108 -19.317 -20.286  0.00  0.00    -0.244 NA
ATOM     14  C   UNL     1      34.894 -19.643 -20.761  0.00  0.00    +0.081 C 
ATOM     15  C   UNL     1      34.418 -19.336 -22.014  0.00  0.00    +0.019 C 
ATOM     16  C   UNL     1      35.265 -18.629 -22.861  0.00  0.00    +0.003 C 
ATOM     17  C   UNL     1      36.903 -18.629 -21.136  0.00  0.00    +0.099 C 
ATOM     18  C   UNL     1      36.532 -18.264 -22.421  0.00  0.00    +0.021 C 
ENDBRANCH  12  14
ENDBRANCH   5  11
BRANCH   7  19
ATOM     19  S   UNL     1      34.500 -24.652 -12.713  0.00  0.00    -0.087 S 
BRANCH  19  20
ATOM     20  C   UNL     1      36.165 -24.208 -12.240  0.00  0.00    +0.034 C 
ATOM     21  C   UNL     1      37.261 -25.018 -12.545  0.00  0.00    +0.059 C 
ATOM     22  C   UNL     1      36.358 -23.013 -11.545  0.00  0.00    +0.007 C 
ATOM     23  C   UNL     1      38.544 -24.632 -12.156  0.00  0.00    +0.005 C 
ATOM     24  C   UNL     1      37.641 -22.627 -11.156  0.00  0.00    +0.001 C 
ATOM     25  C   UNL     1      38.734 -23.438 -11.462  0.00  0.00    +0.000 C 
BRANCH  21  28
ATOM     26  O   UNL     1      37.010 -27.346 -12.650  0.00  0.00    -0.270 OA
ATOM     27  N   UNL     1      37.095 -26.202 -14.664  0.00  0.00    -0.299 N 
ATOM     28  C   UNL     1      37.121 -26.276 -13.269  0.00  0.00    +0.246 C 
ATOM     29  C   UNL     1      36.938 -27.356 -15.520  0.00  0.00    +0.111 C 
ATOM     30  H   UNL     1      37.189 -25.317 -15.086  0.00  0.00    +0.150 HD
ENDBRANCH  21  28
ENDBRANCH  19  20
ENDBRANCH   7  19
TORSDOF 5
ENDMDL
MODEL 9
REMARK VINA RESULT:     -10.2      4.412      9.576
REMARK  Name = 6450551
REMARK  5 active torsions:
REMARK  status: ('A' for Active; 'I' for Inactive)
REMARK    1  A    between atoms: C_5  and  C_11
REMARK    2  A    between atoms: C_7  and  S_19
REMARK    3  A    between atoms: C_12  and  C_14
REMARK    4  A    between atoms: S_19  and  C_20
REMARK    5  A    between atoms: C_21  and  C_28
REMARK                            x       y       z     vdW  Elec       q    Type
REMARK                         _______ _______ _______ _____ _____    ______ ____
ROOT
ATOM      1  N   UNL     1      33.073 -22.342 -18.462  0.00  0.00    -0.276 N 
ATOM      2  N   UNL     1      32.635 -21.616 -19.505  0.00  0.00    -0.173 NA
ATOM      3  C   UNL     1      34.808 -21.109 -18.991  0.00  0.00    +0.036 A 
ATOM      4  C   UNL     1      34.370 -22.085 -18.104  0.00  0.00    +0.076 A 
ATOM      5  C   UNL     1      33.694 -20.867 -19.824  0.00  0.00    +0.102 A 
ATOM      6  C   UNL     1      35.178 -22.617 -17.097  0.00  0.00    +0.025 C 
ATOM      7  C   UNL     1      36.482 -22.124 -17.004  0.00  0.00    +0.031 C 
ATOM      8  C   UNL     1      36.122 -20.623 -18.886  0.00  0.00    +0.004 C 
ATOM      9  C   UNL     1      36.949 -21.143 -17.882  0.00  0.00    +0.007 C 
ATOM     10  H   UNL     1      32.510 -23.001 -17.996  0.00  0.00    +0.189 HD
ENDROOT
BRANCH   5  11
ATOM     11  C   UNL     1      33.681 -19.932 -20.892  0.00  0.00    +0.022 C 
ATOM     12  C   UNL     1      34.747 -19.364 -21.517  0.00  0.00    +0.021 C 
BRANCH  12  14
ATOM     13  N   UNL     1      35.256 -17.202 -22.374  0.00  0.00    -0.244 NA
ATOM     14  C   UNL     1      34.666 -18.385 -22.616  0.00  0.00    +0.081 C 
ATOM     15  C   UNL     1      34.016 -18.729 -23.778  0.00  0.00    +0.019 C 
ATOM     16  C   UNL     1      33.965 -17.773 -24.786  0.00  0.00    +0.003 C 
ATOM     17  C   UNL     1      35.186 -16.298 -23.375  0.00  0.00    +0.099 C 
ATOM     18  C   UNL     1      34.558 -16.532 -24.589  0.00  0.00    +0.021 C 
ENDBRANCH  12  14
ENDBRANCH   5  11
BRANCH   7  19
ATOM     19  S   UNL     1      37.570 -22.760 -15.738  0.00  0.00    -0.087 S 
BRANCH  19  20
ATOM     20  C   UNL     1      36.391 -23.441 -14.581  0.00  0.00    +0.034 C 
ATOM     21  C   UNL     1      36.598 -24.671 -13.951  0.00  0.00    +0.059 C 
ATOM     22  C   UNL     1      35.233 -22.710 -14.310  0.00  0.00    +0.007 C 
ATOM     23  C   UNL     1      35.651 -25.165 -13.054  0.00  0.00    +0.005 C 
ATOM     24  C   UNL     1      34.286 -23.204 -13.413  0.00  0.00    +0.001 C 
ATOM     25  C   UNL     1      34.495 -24.433 -12.785  0.00  0.00    +0.000 C 
BRANCH  21  28
ATOM     26  O   UNL     1      37.721 -26.495 -14.903  0.00  0.00    -0.270 OA
ATOM     27  N   UNL     1      38.981 -25.034 -13.619  0.00  0.00    -0.299 N 
ATOM     28  C   UNL     1      37.788 -25.478 -14.195  0.00  0.00    +0.246 C 
ATOM     29  C   UNL     1      40.248 -25.710 -13.788  0.00  0.00    +0.111 C 
ATOM     30  H   UNL     1      38.957 -24.217 -13.069  0.00  0.00    +0.150 HD
ENDBRANCH  21  28
ENDBRANCH  19  20
ENDBRANCH   7  19
TORSDOF 5
ENDMDL
