MODEL 1
REMARK VINA RESULT:     -11.7      0.000      0.000
REMARK  Name = 657140
REMARK  9 active torsions:
REMARK  status: ('A' for Active; 'I' for Inactive)
REMARK    1  A    between atoms: C_1  and  N_8
REMARK    2  A    between atoms: C_2  and  O_20
REMARK    3  A    between atoms: C_9  and  C_11
REMARK    4  A    between atoms: C_14  and  N_19
REMARK    5  A    between atoms: O_20  and  C_21
REMARK    6  A    between atoms: C_22  and  C_28
REMARK    7  A    between atoms: C_24  and  C_32
REMARK    8  A    between atoms: C_28  and  O_29
REMARK    9  A    between atoms: C_32  and  O_33
REMARK                            x       y       z     vdW  Elec       q    Type
REMARK                         _______ _______ _______ _____ _____    ______ ____
ROOT
ATOM      1  C   UNL     1      31.489 -23.330 -15.679  0.00  0.00    +0.086 C 
ATOM      2  C   UNL     1      32.172 -23.486 -14.485  0.00  0.00    +0.159 C 
ATOM      3  C   UNL     1      30.259 -23.931 -15.891  0.00  0.00    +0.018 C 
ATOM      4  C   UNL     1      31.611 -24.267 -13.474  0.00  0.00    +0.039 C 
ATOM      5  C   UNL     1      29.698 -24.712 -14.881  0.00  0.00    +0.001 C 
ATOM      6  C   UNL     1      30.374 -24.880 -13.672  0.00  0.00    +0.003 C 
ENDROOT
BRANCH   1   8
ATOM      7  O   UNL     1      33.611 -23.986 -17.693  0.00  0.00    -0.270 OA
ATOM      8  N   UNL     1      32.045 -22.539 -16.715  0.00  0.00    -0.278 N 
ATOM      9  C   UNL     1      33.040 -22.885 -17.639  0.00  0.00    +0.250 C 
ATOM     10  H   UNL     1      31.685 -21.626 -16.795  0.00  0.00    +0.155 HD
BRANCH   9  11
ATOM     11  C   UNL     1      33.428 -21.841 -18.574  0.00  0.00    +0.055 C 
ATOM     12  C   UNL     1      34.774 -21.515 -18.737  0.00  0.00    +0.029 C 
ATOM     13  C   UNL     1      32.453 -21.168 -19.311  0.00  0.00    +0.005 C 
ATOM     14  C   UNL     1      35.146 -20.515 -19.636  0.00  0.00    +0.143 C 
ATOM     15  C   UNL     1      32.824 -20.168 -20.210  0.00  0.00    +0.002 C 
ATOM     16  C   UNL     1      34.171 -19.842 -20.372  0.00  0.00    +0.024 C 
BRANCH  14  19
ATOM     17  O   UNL     1      36.823 -19.009 -20.122  0.00  0.00    -0.126 OA
ATOM     18  O   UNL     1      37.384 -21.073 -19.628  0.00  0.00    -0.126 OA
ATOM     19  N   UNL     1      36.516 -20.183 -19.803  0.00  0.00    +0.058 N 
ENDBRANCH  14  19
ENDBRANCH   9  11
ENDBRANCH   1   8
BRANCH   2  20
ATOM     20  O   UNL     1      33.382 -22.895 -14.271  0.00  0.00    -0.452 OA
BRANCH  20  21
ATOM     21  C   UNL     1      34.398 -23.681 -13.754  0.00  0.00    +0.146 C 
ATOM     22  C   UNL     1      35.704 -24.409 -11.882  0.00  0.00    +0.085 C 
ATOM     23  C   UNL     1      34.681 -23.616 -12.401  0.00  0.00    +0.044 C 
ATOM     24  C   UNL     1      36.427 -25.255 -12.722  0.00  0.00    +0.082 C 
ATOM     25  C   UNL     1      35.104 -24.514 -14.604  0.00  0.00    +0.038 C 
ATOM     26  C   UNL     1      36.126 -25.307 -14.084  0.00  0.00    +0.010 C 
BRANCH  22  28
ATOM     27  O   UNL     1      36.824 -23.582  -9.937  0.00  0.00    -0.245 OA
ATOM     28  C   UNL     1      35.993 -24.332 -10.456  0.00  0.00    +0.338 C 
BRANCH  28  29
ATOM     29  O   UNL     1      35.234 -25.191  -9.725  0.00  0.00    -0.477 OA
ATOM     30  H   UNL     1      34.376 -25.424 -10.019  0.00  0.00    +0.295 HD
ENDBRANCH  28  29
ENDBRANCH  22  28
BRANCH  24  32
ATOM     31  O   UNL     1      38.680 -26.043 -12.571  0.00  0.00    -0.245 OA
ATOM     32  C   UNL     1      37.501 -26.095 -12.211  0.00  0.00    +0.338 C 
BRANCH  32  33
ATOM     33  O   UNL     1      37.067 -26.972 -11.266  0.00  0.00    -0.477 OA
ATOM     34  H   UNL     1      37.442 -27.829 -11.215  0.00  0.00    +0.295 HD
ENDBRANCH  32  33
ENDBRANCH  24  32
ENDBRANCH  20  21
ENDBRANCH   2  20
TORSDOF 9
ENDMDL
MODEL 2
REMARK VINA RESULT:     -11.2      0.886      2.167
REMARK  Name = 657140
REMARK  9 active torsions:
REMARK  status: ('A' for Active; 'I' for Inactive)
REMARK    1  A    between atoms: C_1  and  N_8
REMARK    2  A    between atoms: C_2  and  O_20
REMARK    3  A    between atoms: C_9  and  C_11
REMARK    4  A    between atoms: C_14  and  N_19
REMARK    5  A    between atoms: O_20  and  C_21
REMARK    6  A    between atoms: C_22  and  C_28
REMARK    7  A    between atoms: C_24  and  C_32
REMARK    8  A    between atoms: C_28  and  O_29
REMARK    9  A    between atoms: C_32  and  O_33
REMARK                            x       y       z     vdW  Elec       q    Type
REMARK                         _______ _______ _______ _____ _____    ______ ____
ROOT
ATOM      1  C   UNL     1      31.503 -23.276 -15.671  0.00  0.00    +0.086 C 
ATOM      2  C   UNL     1      32.188 -23.431 -14.477  0.00  0.00    +0.159 C 
ATOM      3  C   UNL     1      30.267 -23.868 -15.877  0.00  0.00    +0.018 C 
ATOM      4  C   UNL     1      31.622 -24.201 -13.461  0.00  0.00    +0.039 C 
ATOM      5  C   UNL     1      29.702 -24.638 -14.861  0.00  0.00    +0.001 C 
ATOM      6  C   UNL     1      30.379 -24.804 -13.652  0.00  0.00    +0.003 C 
ENDROOT
BRANCH   1   8
ATOM      7  O   UNL     1      33.703 -23.917 -17.604  0.00  0.00    -0.270 OA
ATOM      8  N   UNL     1      32.063 -22.496 -16.712  0.00  0.00    -0.278 N 
ATOM      9  C   UNL     1      33.096 -22.834 -17.597  0.00  0.00    +0.250 C 
ATOM     10  H   UNL     1      31.676 -21.598 -16.829  0.00  0.00    +0.155 HD
BRANCH   9  11
ATOM     11  C   UNL     1      33.477 -21.805 -18.551  0.00  0.00    +0.055 C 
ATOM     12  C   UNL     1      34.822 -21.479 -18.725  0.00  0.00    +0.029 C 
ATOM     13  C   UNL     1      32.498 -21.145 -19.294  0.00  0.00    +0.005 C 
ATOM     14  C   UNL     1      35.188 -20.493 -19.642  0.00  0.00    +0.143 C 
ATOM     15  C   UNL     1      32.863 -20.158 -20.209  0.00  0.00    +0.002 C 
ATOM     16  C   UNL     1      34.208 -19.833 -20.383  0.00  0.00    +0.024 C 
BRANCH  14  19
ATOM     17  O   UNL     1      37.421 -21.066 -19.715  0.00  0.00    -0.126 OA
ATOM     18  O   UNL     1      36.867 -18.973 -20.080  0.00  0.00    -0.126 OA
ATOM     19  N   UNL     1      36.557 -20.161 -19.821  0.00  0.00    +0.058 N 
ENDBRANCH  14  19
ENDBRANCH   9  11
ENDBRANCH   1   8
BRANCH   2  20
ATOM     20  O   UNL     1      33.402 -22.849 -14.269  0.00  0.00    -0.452 OA
BRANCH  20  21
ATOM     21  C   UNL     1      34.399 -23.628 -13.706  0.00  0.00    +0.146 C 
ATOM     22  C   UNL     1      36.097 -25.303 -13.937  0.00  0.00    +0.085 C 
ATOM     23  C   UNL     1      35.093 -24.519 -14.505  0.00  0.00    +0.044 C 
ATOM     24  C   UNL     1      36.391 -25.184 -12.579  0.00  0.00    +0.082 C 
ATOM     25  C   UNL     1      34.676 -23.495 -12.357  0.00  0.00    +0.038 C 
ATOM     26  C   UNL     1      35.680 -24.280 -11.789  0.00  0.00    +0.010 C 
BRANCH  22  28
ATOM     27  O   UNL     1      36.348 -27.266 -15.280  0.00  0.00    -0.245 OA
ATOM     28  C   UNL     1      36.820 -26.237 -14.789  0.00  0.00    +0.338 C 
BRANCH  28  29
ATOM     29  O   UNL     1      38.108 -25.856 -15.000  0.00  0.00    -0.477 OA
ATOM     30  H   UNL     1      38.295 -25.003 -15.340  0.00  0.00    +0.295 HD
ENDBRANCH  28  29
ENDBRANCH  22  28
BRANCH  24  32
ATOM     31  O   UNL     1      37.240 -26.918 -11.167  0.00  0.00    -0.245 OA
ATOM     32  C   UNL     1      37.433 -25.988 -11.956  0.00  0.00    +0.338 C 
BRANCH  32  33
ATOM     33  O   UNL     1      38.681 -25.606 -12.339  0.00  0.00    -0.477 OA
ATOM     34  H   UNL     1      39.348 -25.472 -11.695  0.00  0.00    +0.295 HD
ENDBRANCH  32  33
ENDBRANCH  24  32
ENDBRANCH  20  21
ENDBRANCH   2  20
TORSDOF 9
ENDMDL
MODEL 3
REMARK VINA RESULT:     -10.9      1.312      1.783
REMARK  Name = 657140
REMARK  9 active torsions:
REMARK  status: ('A' for Active; 'I' for Inactive)
REMARK    1  A    between atoms: C_1  and  N_8
REMARK    2  A    between atoms: C_2  and  O_20
REMARK    3  A    between atoms: C_9  and  C_11
REMARK    4  A    between atoms: C_14  and  N_19
REMARK    5  A    between atoms: O_20  and  C_21
REMARK    6  A    between atoms: C_22  and  C_28
REMARK    7  A    between atoms: C_24  and  C_32
REMARK    8  A    between atoms: C_28  and  O_29
REMARK    9  A    between atoms: C_32  and  O_33
REMARK                            x       y       z     vdW  Elec       q    Type
REMARK                         _______ _______ _______ _____ _____    ______ ____
ROOT
ATOM      1  C   UNL     1      31.674 -23.235 -15.709  0.00  0.00    +0.086 C 
ATOM      2  C   UNL     1      32.061 -23.294 -14.381  0.00  0.00    +0.159 C 
ATOM      3  C   UNL     1      30.497 -23.823 -16.144  0.00  0.00    +0.018 C 
ATOM      4  C   UNL     1      31.250 -23.959 -13.462  0.00  0.00    +0.039 C 
ATOM      5  C   UNL     1      29.686 -24.489 -15.226  0.00  0.00    +0.001 C 
ATOM      6  C   UNL     1      30.063 -24.556 -13.884  0.00  0.00    +0.003 C 
ENDROOT
BRANCH   1   8
ATOM      7  O   UNL     1      33.623 -24.321 -17.712  0.00  0.00    -0.270 OA
ATOM      8  N   UNL     1      32.486 -22.562 -16.654  0.00  0.00    -0.278 N 
ATOM      9  C   UNL     1      33.389 -23.109 -17.577  0.00  0.00    +0.250 C 
ATOM     10  H   UNL     1      32.407 -21.580 -16.664  0.00  0.00    +0.155 HD
BRANCH   9  11
ATOM     11  C   UNL     1      34.107 -22.154 -18.405  0.00  0.00    +0.055 C 
ATOM     12  C   UNL     1      33.420 -21.409 -19.364  0.00  0.00    +0.029 C 
ATOM     13  C   UNL     1      35.481 -21.981 -18.240  0.00  0.00    +0.005 C 
ATOM     14  C   UNL     1      34.109 -20.490 -20.158  0.00  0.00    +0.143 C 
ATOM     15  C   UNL     1      36.169 -21.064 -19.033  0.00  0.00    +0.002 C 
ATOM     16  C   UNL     1      35.483 -20.318 -19.992  0.00  0.00    +0.024 C 
BRANCH  14  19
ATOM     17  O   UNL     1      32.156 -19.749 -21.136  0.00  0.00    -0.126 OA
ATOM     18  O   UNL     1      34.068 -19.059 -21.966  0.00  0.00    -0.126 OA
ATOM     19  N   UNL     1      33.411 -19.730 -21.133  0.00  0.00    +0.058 N 
ENDBRANCH  14  19
ENDBRANCH   9  11
ENDBRANCH   1   8
BRANCH   2  20
ATOM     20  O   UNL     1      33.217 -22.716 -13.947  0.00  0.00    -0.452 OA
BRANCH  20  21
ATOM     21  C   UNL     1      34.236 -23.555 -13.528  0.00  0.00    +0.146 C 
ATOM     22  C   UNL     1      35.620 -24.414 -11.770  0.00  0.00    +0.085 C 
ATOM     23  C   UNL     1      34.594 -23.567 -12.192  0.00  0.00    +0.044 C 
ATOM     24  C   UNL     1      36.270 -25.234 -12.692  0.00  0.00    +0.082 C 
ATOM     25  C   UNL     1      34.869 -24.362 -14.457  0.00  0.00    +0.038 C 
ATOM     26  C   UNL     1      35.895 -25.208 -14.035  0.00  0.00    +0.010 C 
BRANCH  22  28
ATOM     27  O   UNL     1      35.336 -24.945  -9.455  0.00  0.00    -0.245 OA
ATOM     28  C   UNL     1      35.988 -24.418 -10.361  0.00  0.00    +0.338 C 
BRANCH  28  29
ATOM     29  O   UNL     1      37.158 -23.764 -10.129  0.00  0.00    -0.477 OA
ATOM     30  H   UNL     1      37.862 -24.205  -9.696  0.00  0.00    +0.295 HD
ENDBRANCH  28  29
ENDBRANCH  22  28
BRANCH  24  32
ATOM     31  O   UNL     1      38.395 -26.312 -12.906  0.00  0.00    -0.245 OA
ATOM     32  C   UNL     1      37.345 -26.128 -12.284  0.00  0.00    +0.338 C 
BRANCH  32  33
ATOM     33  O   UNL     1      37.074 -26.763 -11.112  0.00  0.00    -0.477 OA
ATOM     34  H   UNL     1      37.029 -26.275 -10.313  0.00  0.00    +0.295 HD
ENDBRANCH  32  33
ENDBRANCH  24  32
ENDBRANCH  20  21
ENDBRANCH   2  20
TORSDOF 9
ENDMDL
MODEL 4
REMARK VINA RESULT:     -10.8      2.479      7.203
REMARK  Name = 657140
REMARK  9 active torsions:
REMARK  status: ('A' for Active; 'I' for Inactive)
REMARK    1  A    between atoms: C_1  and  N_8
REMARK    2  A    between atoms: C_2  and  O_20
REMARK    3  A    between atoms: C_9  and  C_11
REMARK    4  A    between atoms: C_14  and  N_19
REMARK    5  A    between atoms: O_20  and  C_21
REMARK    6  A    between atoms: C_22  and  C_28
REMARK    7  A    between atoms: C_24  and  C_32
REMARK    8  A    between atoms: C_28  and  O_29
REMARK    9  A    between atoms: C_32  and  O_33
REMARK                            x       y       z     vdW  Elec       q    Type
REMARK                         _______ _______ _______ _____ _____    ______ ____
ROOT
ATOM      1  C   UNL     1      35.972 -25.210 -14.282  0.00  0.00    +0.086 C 
ATOM      2  C   UNL     1      36.843 -24.134 -14.315  0.00  0.00    +0.159 C 
ATOM      3  C   UNL     1      36.436 -26.510 -14.159  0.00  0.00    +0.018 C 
ATOM      4  C   UNL     1      38.216 -24.364 -14.226  0.00  0.00    +0.039 C 
ATOM      5  C   UNL     1      37.808 -26.740 -14.070  0.00  0.00    +0.001 C 
ATOM      6  C   UNL     1      38.699 -25.666 -14.103  0.00  0.00    +0.003 C 
ENDROOT
BRANCH   1   8
ATOM      7  O   UNL     1      34.075 -23.975 -12.317  0.00  0.00    -0.270 OA
ATOM      8  N   UNL     1      34.575 -24.994 -14.370  0.00  0.00    -0.278 N 
ATOM      9  C   UNL     1      33.721 -24.411 -13.424  0.00  0.00    +0.250 C 
ATOM     10  H   UNL     1      34.148 -25.294 -15.205  0.00  0.00    +0.155 HD
BRANCH   9  11
ATOM     11  C   UNL     1      32.315 -24.351 -13.790  0.00  0.00    +0.055 C 
ATOM     12  C   UNL     1      31.904 -23.535 -14.844  0.00  0.00    +0.029 C 
ATOM     13  C   UNL     1      31.378 -25.110 -13.089  0.00  0.00    +0.005 C 
ATOM     14  C   UNL     1      30.555 -23.479 -15.197  0.00  0.00    +0.143 C 
ATOM     15  C   UNL     1      30.030 -25.054 -13.441  0.00  0.00    +0.002 C 
ATOM     16  C   UNL     1      29.618 -24.238 -14.495  0.00  0.00    +0.024 C 
BRANCH  14  19
ATOM     17  O   UNL     1      28.907 -22.471 -16.457  0.00  0.00    -0.126 OA
ATOM     18  O   UNL     1      31.003 -22.121 -17.006  0.00  0.00    -0.126 OA
ATOM     19  N   UNL     1      30.135 -22.651 -16.271  0.00  0.00    +0.058 N 
ENDBRANCH  14  19
ENDBRANCH   9  11
ENDBRANCH   1   8
BRANCH   2  20
ATOM     20  O   UNL     1      36.392 -22.853 -14.434  0.00  0.00    -0.452 OA
BRANCH  20  21
ATOM     21  C   UNL     1      36.285 -22.327 -15.711  0.00  0.00    +0.146 C 
ATOM     22  C   UNL     1      35.099 -22.149 -17.784  0.00  0.00    +0.085 C 
ATOM     23  C   UNL     1      35.206 -22.681 -16.500  0.00  0.00    +0.044 C 
ATOM     24  C   UNL     1      36.073 -21.272 -18.260  0.00  0.00    +0.082 C 
ATOM     25  C   UNL     1      37.262 -21.458 -16.164  0.00  0.00    +0.038 C 
ATOM     26  C   UNL     1      37.155 -20.926 -17.449  0.00  0.00    +0.010 C 
BRANCH  22  28
ATOM     27  O   UNL     1      33.796 -23.634 -19.133  0.00  0.00    -0.245 OA
ATOM     28  C   UNL     1      33.958 -22.530 -18.606  0.00  0.00    +0.338 C 
BRANCH  28  29
ATOM     29  O   UNL     1      33.056 -21.521 -18.742  0.00  0.00    -0.477 OA
ATOM     30  H   UNL     1      32.575 -21.428 -19.539  0.00  0.00    +0.295 HD
ENDBRANCH  28  29
ENDBRANCH  22  28
BRANCH  24  32
ATOM     31  O   UNL     1      35.288 -21.132 -20.516  0.00  0.00    -0.245 OA
ATOM     32  C   UNL     1      35.991 -20.701 -19.597  0.00  0.00    +0.338 C 
BRANCH  32  33
ATOM     33  O   UNL     1      36.789 -19.609 -19.743  0.00  0.00    -0.477 OA
ATOM     34  H   UNL     1      37.059 -19.121 -18.990  0.00  0.00    +0.295 HD
ENDBRANCH  32  33
ENDBRANCH  24  32
ENDBRANCH  20  21
ENDBRANCH   2  20
TORSDOF 9
ENDMDL
MODEL 5
REMARK VINA RESULT:     -10.6      1.756      2.533
REMARK  Name = 657140
REMARK  9 active torsions:
REMARK  status: ('A' for Active; 'I' for Inactive)
REMARK    1  A    between atoms: C_1  and  N_8
REMARK    2  A    between atoms: C_2  and  O_20
REMARK    3  A    between atoms: C_9  and  C_11
REMARK    4  A    between atoms: C_14  and  N_19
REMARK    5  A    between atoms: O_20  and  C_21
REMARK    6  A    between atoms: C_22  and  C_28
REMARK    7  A    between atoms: C_24  and  C_32
REMARK    8  A    between atoms: C_28  and  O_29
REMARK    9  A    between atoms: C_32  and  O_33
REMARK                            x       y       z     vdW  Elec       q    Type
REMARK                         _______ _______ _______ _____ _____    ______ ____
ROOT
ATOM      1  C   UNL     1      32.732 -22.906 -16.378  0.00  0.00    +0.086 C 
ATOM      2  C   UNL     1      33.257 -23.954 -15.641  0.00  0.00    +0.159 C 
ATOM      3  C   UNL     1      31.387 -22.578 -16.311  0.00  0.00    +0.018 C 
ATOM      4  C   UNL     1      32.414 -24.696 -14.814  0.00  0.00    +0.039 C 
ATOM      5  C   UNL     1      30.544 -23.321 -15.484  0.00  0.00    +0.001 C 
ATOM      6  C   UNL     1      31.058 -24.380 -14.735  0.00  0.00    +0.003 C 
ENDROOT
BRANCH   1   8
ATOM      7  O   UNL     1      33.713 -23.462 -19.156  0.00  0.00    -0.270 OA
ATOM      8  N   UNL     1      33.575 -22.141 -17.222  0.00  0.00    -0.278 N 
ATOM      9  C   UNL     1      34.012 -22.439 -18.520  0.00  0.00    +0.250 C 
ATOM     10  H   UNL     1      33.896 -21.290 -16.846  0.00  0.00    +0.155 HD
BRANCH   9  11
ATOM     11  C   UNL     1      34.903 -21.464 -19.128  0.00  0.00    +0.055 C 
ATOM     12  C   UNL     1      34.416 -20.578 -20.089  0.00  0.00    +0.029 C 
ATOM     13  C   UNL     1      36.245 -21.413 -18.750  0.00  0.00    +0.005 C 
ATOM     14  C   UNL     1      35.270 -19.641 -20.671  0.00  0.00    +0.143 C 
ATOM     15  C   UNL     1      37.100 -20.478 -19.332  0.00  0.00    +0.002 C 
ATOM     16  C   UNL     1      36.612 -19.592 -20.292  0.00  0.00    +0.024 C 
BRANCH  14  19
ATOM     17  O   UNL     1      34.291 -19.195 -22.710  0.00  0.00    -0.126 OA
ATOM     18  O   UNL     1      34.835 -17.504 -21.422  0.00  0.00    -0.126 OA
ATOM     19  N   UNL     1      34.775 -18.737 -21.647  0.00  0.00    +0.058 N 
ENDBRANCH  14  19
ENDBRANCH   9  11
ENDBRANCH   1   8
BRANCH   2  20
ATOM     20  O   UNL     1      34.579 -24.280 -15.703  0.00  0.00    -0.452 OA
BRANCH  20  21
ATOM     21  C   UNL     1      35.373 -23.948 -14.618  0.00  0.00    +0.146 C 
ATOM     22  C   UNL     1      36.232 -24.473 -12.444  0.00  0.00    +0.085 C 
ATOM     23  C   UNL     1      35.432 -24.808 -13.536  0.00  0.00    +0.044 C 
ATOM     24  C   UNL     1      36.961 -23.284 -12.451  0.00  0.00    +0.082 C 
ATOM     25  C   UNL     1      36.088 -22.764 -14.644  0.00  0.00    +0.038 C 
ATOM     26  C   UNL     1      36.889 -22.429 -13.551  0.00  0.00    +0.010 C 
BRANCH  22  28
ATOM     27  O   UNL     1      37.009 -26.383 -11.232  0.00  0.00    -0.245 OA
ATOM     28  C   UNL     1      36.286 -25.387 -11.310  0.00  0.00    +0.338 C 
BRANCH  28  29
ATOM     29  O   UNL     1      35.435 -25.026 -10.313  0.00  0.00    -0.477 OA
ATOM     30  H   UNL     1      34.683 -25.552 -10.126  0.00  0.00    +0.295 HD
ENDBRANCH  28  29
ENDBRANCH  22  28
BRANCH  24  32
ATOM     31  O   UNL     1      39.017 -23.121 -11.240  0.00  0.00    -0.245 OA
ATOM     32  C   UNL     1      37.805 -22.906 -11.326  0.00  0.00    +0.338 C 
BRANCH  32  33
ATOM     33  O   UNL     1      37.108 -22.271 -10.346  0.00  0.00    -0.477 OA
ATOM     34  H   UNL     1      36.172 -22.316 -10.332  0.00  0.00    +0.295 HD
ENDBRANCH  32  33
ENDBRANCH  24  32
ENDBRANCH  20  21
ENDBRANCH   2  20
TORSDOF 9
ENDMDL
MODEL 6
REMARK VINA RESULT:     -10.6      1.576      2.659
REMARK  Name = 657140
REMARK  9 active torsions:
REMARK  status: ('A' for Active; 'I' for Inactive)
REMARK    1  A    between atoms: C_1  and  N_8
REMARK    2  A    between atoms: C_2  and  O_20
REMARK    3  A    between atoms: C_9  and  C_11
REMARK    4  A    between atoms: C_14  and  N_19
REMARK    5  A    between atoms: O_20  and  C_21
REMARK    6  A    between atoms: C_22  and  C_28
REMARK    7  A    between atoms: C_24  and  C_32
REMARK    8  A    between atoms: C_28  and  O_29
REMARK    9  A    between atoms: C_32  and  O_33
REMARK                            x       y       z     vdW  Elec       q    Type
REMARK                         _______ _______ _______ _____ _____    ______ ____
ROOT
ATOM      1  C   UNL     1      31.706 -23.280 -15.535  0.00  0.00    +0.086 C 
ATOM      2  C   UNL     1      32.117 -23.318 -14.213  0.00  0.00    +0.159 C 
ATOM      3  C   UNL     1      30.527 -23.884 -15.943  0.00  0.00    +0.018 C 
ATOM      4  C   UNL     1      31.328 -23.979 -13.272  0.00  0.00    +0.039 C 
ATOM      5  C   UNL     1      29.738 -24.544 -15.002  0.00  0.00    +0.001 C 
ATOM      6  C   UNL     1      30.138 -24.591 -13.666  0.00  0.00    +0.003 C 
ENDROOT
BRANCH   1   8
ATOM      7  O   UNL     1      33.738 -24.358 -17.459  0.00  0.00    -0.270 OA
ATOM      8  N   UNL     1      32.496 -22.612 -16.503  0.00  0.00    -0.278 N 
ATOM      9  C   UNL     1      33.439 -23.156 -17.387  0.00  0.00    +0.250 C 
ATOM     10  H   UNL     1      32.366 -21.638 -16.562  0.00  0.00    +0.155 HD
BRANCH   9  11
ATOM     11  C   UNL     1      34.118 -22.206 -18.253  0.00  0.00    +0.055 C 
ATOM     12  C   UNL     1      33.392 -21.481 -19.197  0.00  0.00    +0.029 C 
ATOM     13  C   UNL     1      35.496 -22.018 -18.138  0.00  0.00    +0.005 C 
ATOM     14  C   UNL     1      34.043 -20.567 -20.027  0.00  0.00    +0.143 C 
ATOM     15  C   UNL     1      36.147 -21.106 -18.968  0.00  0.00    +0.002 C 
ATOM     16  C   UNL     1      35.421 -20.381 -19.912  0.00  0.00    +0.024 C 
BRANCH  14  19
ATOM     17  O   UNL     1      33.926 -19.174 -21.861  0.00  0.00    -0.126 OA
ATOM     18  O   UNL     1      32.051 -19.846 -20.938  0.00  0.00    -0.126 OA
ATOM     19  N   UNL     1      33.305 -19.827 -20.988  0.00  0.00    +0.058 N 
ENDBRANCH  14  19
ENDBRANCH   9  11
ENDBRANCH   1   8
BRANCH   2  20
ATOM     20  O   UNL     1      33.275 -22.725 -13.807  0.00  0.00    -0.452 OA
BRANCH  20  21
ATOM     21  C   UNL     1      34.286 -23.546 -13.337  0.00  0.00    +0.146 C 
ATOM     22  C   UNL     1      35.999 -25.167 -13.754  0.00  0.00    +0.085 C 
ATOM     23  C   UNL     1      34.981 -24.341 -14.230  0.00  0.00    +0.044 C 
ATOM     24  C   UNL     1      36.306 -25.185 -12.394  0.00  0.00    +0.082 C 
ATOM     25  C   UNL     1      34.575 -23.549 -11.983  0.00  0.00    +0.038 C 
ATOM     26  C   UNL     1      35.593 -24.376 -11.509  0.00  0.00    +0.010 C 
BRANCH  22  28
ATOM     27  O   UNL     1      36.291 -27.032 -15.224  0.00  0.00    -0.245 OA
ATOM     28  C   UNL     1      36.724 -26.000 -14.705  0.00  0.00    +0.338 C 
BRANCH  28  29
ATOM     29  O   UNL     1      37.966 -25.517 -14.976  0.00  0.00    -0.477 OA
ATOM     30  H   UNL     1      38.679 -25.708 -14.399  0.00  0.00    +0.295 HD
ENDBRANCH  28  29
ENDBRANCH  22  28
BRANCH  24  32
ATOM     31  O   UNL     1      37.192 -27.007 -11.122  0.00  0.00    -0.245 OA
ATOM     32  C   UNL     1      37.362 -26.037 -11.866  0.00  0.00    +0.338 C 
BRANCH  32  33
ATOM     33  O   UNL     1      38.597 -25.649 -12.285  0.00  0.00    -0.477 OA
ATOM     34  H   UNL     1      39.363 -26.040 -11.912  0.00  0.00    +0.295 HD
ENDBRANCH  32  33
ENDBRANCH  24  32
ENDBRANCH  20  21
ENDBRANCH   2  20
TORSDOF 9
ENDMDL
MODEL 7
REMARK VINA RESULT:     -10.4      2.261      5.398
REMARK  Name = 657140
REMARK  9 active torsions:
REMARK  status: ('A' for Active; 'I' for Inactive)
REMARK    1  A    between atoms: C_1  and  N_8
REMARK    2  A    between atoms: C_2  and  O_20
REMARK    3  A    between atoms: C_9  and  C_11
REMARK    4  A    between atoms: C_14  and  N_19
REMARK    5  A    between atoms: O_20  and  C_21
REMARK    6  A    between atoms: C_22  and  C_28
REMARK    7  A    between atoms: C_24  and  C_32
REMARK    8  A    between atoms: C_28  and  O_29
REMARK    9  A    between atoms: C_32  and  O_33
REMARK                            x       y       z     vdW  Elec       q    Type
REMARK                         _______ _______ _______ _____ _____    ______ ____
ROOT
ATOM      1  C   UNL     1      35.858 -24.217 -14.384  0.00  0.00    +0.086 C 
ATOM      2  C   UNL     1      35.211 -23.998 -13.179  0.00  0.00    +0.159 C 
ATOM      3  C   UNL     1      36.930 -25.089 -14.481  0.00  0.00    +0.018 C 
ATOM      4  C   UNL     1      35.650 -24.668 -12.038  0.00  0.00    +0.039 C 
ATOM      5  C   UNL     1      37.369 -25.760 -13.339  0.00  0.00    +0.001 C 
ATOM      6  C   UNL     1      36.728 -25.549 -12.117  0.00  0.00    +0.003 C 
ENDROOT
BRANCH   1   8
ATOM      7  O   UNL     1      37.284 -22.236 -16.125  0.00  0.00    -0.270 OA
ATOM      8  N   UNL     1      35.423 -23.545 -15.553  0.00  0.00    -0.278 N 
ATOM      9  C   UNL     1      36.125 -22.622 -16.341  0.00  0.00    +0.250 C 
ATOM     10  H   UNL     1      34.508 -23.754 -15.851  0.00  0.00    +0.155 HD
BRANCH   9  11
ATOM     11  C   UNL     1      35.398 -22.074 -17.476  0.00  0.00    +0.055 C 
ATOM     12  C   UNL     1      36.036 -21.200 -18.355  0.00  0.00    +0.029 C 
ATOM     13  C   UNL     1      34.065 -22.426 -17.686  0.00  0.00    +0.005 C 
ATOM     14  C   UNL     1      35.339 -20.677 -19.446  0.00  0.00    +0.143 C 
ATOM     15  C   UNL     1      33.368 -21.903 -18.775  0.00  0.00    +0.002 C 
ATOM     16  C   UNL     1      34.006 -21.028 -19.654  0.00  0.00    +0.024 C 
BRANCH  14  19
ATOM     17  O   UNL     1      35.527 -19.650 -21.502  0.00  0.00    -0.126 OA
ATOM     18  O   UNL     1      37.003 -19.163 -19.953  0.00  0.00    -0.126 OA
ATOM     19  N   UNL     1      35.988 -19.787 -20.343  0.00  0.00    +0.058 N 
ENDBRANCH  14  19
ENDBRANCH   9  11
ENDBRANCH   1   8
BRANCH   2  20
ATOM     20  O   UNL     1      34.155 -23.142 -13.080  0.00  0.00    -0.452 OA
BRANCH  20  21
ATOM     21  C   UNL     1      32.914 -23.606 -13.483  0.00  0.00    +0.146 C 
ATOM     22  C   UNL     1      30.901 -23.303 -14.747  0.00  0.00    +0.085 C 
ATOM     23  C   UNL     1      32.151 -22.835 -14.341  0.00  0.00    +0.044 C 
ATOM     24  C   UNL     1      30.435 -24.534 -14.288  0.00  0.00    +0.082 C 
ATOM     25  C   UNL     1      32.468 -24.830 -13.017  0.00  0.00    +0.038 C 
ATOM     26  C   UNL     1      31.219 -25.298 -13.423  0.00  0.00    +0.010 C 
BRANCH  22  28
ATOM     27  O   UNL     1      30.403 -22.217 -16.819  0.00  0.00    -0.245 OA
ATOM     28  C   UNL     1      30.107 -22.481 -15.651  0.00  0.00    +0.338 C 
BRANCH  28  29
ATOM     29  O   UNL     1      28.970 -22.018 -15.067  0.00  0.00    -0.477 OA
ATOM     30  H   UNL     1      28.528 -21.275 -15.427  0.00  0.00    +0.295 HD
ENDBRANCH  28  29
ENDBRANCH  22  28
BRANCH  24  32
ATOM     31  O   UNL     1      28.633 -24.922 -15.813  0.00  0.00    -0.245 OA
ATOM     32  C   UNL     1      29.134 -25.050 -14.693  0.00  0.00    +0.338 C 
BRANCH  32  33
ATOM     33  O   UNL     1      28.503 -25.710 -13.685  0.00  0.00    -0.477 OA
ATOM     34  H   UNL     1      28.735 -25.537 -12.794  0.00  0.00    +0.295 HD
ENDBRANCH  32  33
ENDBRANCH  24  32
ENDBRANCH  20  21
ENDBRANCH   2  20
TORSDOF 9
ENDMDL
MODEL 8
REMARK VINA RESULT:     -10.2      2.500      5.749
REMARK  Name = 657140
REMARK  9 active torsions:
REMARK  status: ('A' for Active; 'I' for Inactive)
REMARK    1  A    between atoms: C_1  and  N_8
REMARK    2  A    between atoms: C_2  and  O_20
REMARK    3  A    between atoms: C_9  and  C_11
REMARK    4  A    between atoms: C_14  and  N_19
REMARK    5  A    between atoms: O_20  and  C_21
REMARK    6  A    between atoms: C_22  and  C_28
REMARK    7  A    between atoms: C_24  and  C_32
REMARK    8  A    between atoms: C_28  and  O_29
REMARK    9  A    between atoms: C_32  and  O_33
REMARK                            x       y       z     vdW  Elec       q    Type
REMARK                         _______ _______ _______ _____ _____    ______ ____
ROOT
ATOM      1  C   UNL     1      34.536 -22.191 -17.666  0.00  0.00    +0.086 C 
ATOM      2  C   UNL     1      35.715 -21.863 -17.019  0.00  0.00    +0.159 C 
ATOM      3  C   UNL     1      34.409 -22.071 -19.041  0.00  0.00    +0.018 C 
ATOM      4  C   UNL     1      36.798 -21.400 -17.767  0.00  0.00    +0.039 C 
ATOM      5  C   UNL     1      35.491 -21.608 -19.789  0.00  0.00    +0.001 C 
ATOM      6  C   UNL     1      36.687 -21.273 -19.151  0.00  0.00    +0.003 C 
ENDROOT
BRANCH   1   8
ATOM      7  O   UNL     1      31.610 -21.611 -17.966  0.00  0.00    -0.270 OA
ATOM      8  N   UNL     1      33.427 -22.665 -16.922  0.00  0.00    -0.278 N 
ATOM      9  C   UNL     1      32.068 -22.367 -17.095  0.00  0.00    +0.250 C 
ATOM     10  H   UNL     1      33.640 -23.283 -16.185  0.00  0.00    +0.155 HD
BRANCH   9  11
ATOM     11  C   UNL     1      31.157 -22.989 -16.148  0.00  0.00    +0.055 C 
ATOM     12  C   UNL     1      31.640 -23.479 -14.934  0.00  0.00    +0.029 C 
ATOM     13  C   UNL     1      29.800 -23.095 -16.452  0.00  0.00    +0.005 C 
ATOM     14  C   UNL     1      30.766 -24.074 -14.024  0.00  0.00    +0.143 C 
ATOM     15  C   UNL     1      28.925 -23.690 -15.543  0.00  0.00    +0.002 C 
ATOM     16  C   UNL     1      29.409 -24.180 -14.330  0.00  0.00    +0.024 C 
BRANCH  14  19
ATOM     17  O   UNL     1      32.439 -24.985 -12.725  0.00  0.00    -0.126 OA
ATOM     18  O   UNL     1      30.493 -24.583 -11.792  0.00  0.00    -0.126 OA
ATOM     19  N   UNL     1      31.256 -24.571 -12.788  0.00  0.00    +0.058 N 
ENDBRANCH  14  19
ENDBRANCH   9  11
ENDBRANCH   1   8
BRANCH   2  20
ATOM     20  O   UNL     1      35.846 -21.981 -15.668  0.00  0.00    -0.452 OA
BRANCH  20  21
ATOM     21  C   UNL     1      36.261 -23.203 -15.167  0.00  0.00    +0.146 C 
ATOM     22  C   UNL     1      38.032 -24.684 -14.525  0.00  0.00    +0.085 C 
ATOM     23  C   UNL     1      37.615 -23.452 -15.030  0.00  0.00    +0.044 C 
ATOM     24  C   UNL     1      37.089 -25.647 -14.166  0.00  0.00    +0.082 C 
ATOM     25  C   UNL     1      35.310 -24.146 -14.817  0.00  0.00    +0.038 C 
ATOM     26  C   UNL     1      35.728 -25.377 -14.312  0.00  0.00    +0.010 C 
BRANCH  22  28
ATOM     27  O   UNL     1      40.141 -24.643 -13.398  0.00  0.00    -0.245 OA
ATOM     28  C   UNL     1      39.460 -24.934 -14.385  0.00  0.00    +0.338 C 
BRANCH  28  29
ATOM     29  O   UNL     1      39.991 -25.539 -15.480  0.00  0.00    -0.477 OA
ATOM     30  H   UNL     1      39.780 -25.225 -16.337  0.00  0.00    +0.295 HD
ENDBRANCH  28  29
ENDBRANCH  22  28
BRANCH  24  32
ATOM     31  O   UNL     1      38.136 -27.796 -14.254  0.00  0.00    -0.245 OA
ATOM     32  C   UNL     1      37.492 -26.942 -13.637  0.00  0.00    +0.338 C 
BRANCH  32  33
ATOM     33  O   UNL     1      37.079 -27.129 -12.355  0.00  0.00    -0.477 OA
ATOM     34  H   UNL     1      36.239 -26.816 -12.082  0.00  0.00    +0.295 HD
ENDBRANCH  32  33
ENDBRANCH  24  32
ENDBRANCH  20  21
ENDBRANCH   2  20
TORSDOF 9
ENDMDL
MODEL 9
REMARK VINA RESULT:      -9.7      2.936      7.257
REMARK  Name = 657140
REMARK  9 active torsions:
REMARK  status: ('A' for Active; 'I' for Inactive)
REMARK    1  A    between atoms: C_1  and  N_8
REMARK    2  A    between atoms: C_2  and  O_20
REMARK    3  A    between atoms: C_9  and  C_11
REMARK    4  A    between atoms: C_14  and  N_19
REMARK    5  A    between atoms: O_20  and  C_21
REMARK    6  A    between atoms: C_22  and  C_28
REMARK    7  A    between atoms: C_24  and  C_32
REMARK    8  A    between atoms: C_28  and  O_29
REMARK    9  A    between atoms: C_32  and  O_33
REMARK                            x       y       z     vdW  Elec       q    Type
REMARK                         _______ _______ _______ _____ _____    ______ ____
ROOT
ATOM      1  C   UNL     1      35.947 -22.334 -17.206  0.00  0.00    +0.086 C 
ATOM      2  C   UNL     1      34.653 -22.744 -17.480  0.00  0.00    +0.159 C 
ATOM      3  C   UNL     1      36.563 -21.342 -17.952  0.00  0.00    +0.018 C 
ATOM      4  C   UNL     1      33.957 -22.149 -18.532  0.00  0.00    +0.039 C 
ATOM      5  C   UNL     1      35.867 -20.746 -19.003  0.00  0.00    +0.001 C 
ATOM      6  C   UNL     1      34.562 -21.150 -19.293  0.00  0.00    +0.003 C 
ENDROOT
BRANCH   1   8
ATOM      7  O   UNL     1      35.421 -22.300 -14.254  0.00  0.00    -0.270 OA
ATOM      8  N   UNL     1      36.667 -22.928 -16.140  0.00  0.00    -0.278 N 
ATOM      9  C   UNL     1      36.387 -22.887 -14.767  0.00  0.00    +0.250 C 
ATOM     10  H   UNL     1      37.471 -23.434 -16.398  0.00  0.00    +0.155 HD
BRANCH   9  11
ATOM     11  C   UNL     1      37.334 -23.575 -13.906  0.00  0.00    +0.055 C 
ATOM     12  C   UNL     1      38.334 -24.372 -14.465  0.00  0.00    +0.029 C 
ATOM     13  C   UNL     1      37.245 -23.438 -12.521  0.00  0.00    +0.005 C 
ATOM     14  C   UNL     1      39.245 -25.030 -13.638  0.00  0.00    +0.143 C 
ATOM     15  C   UNL     1      38.155 -24.097 -11.694  0.00  0.00    +0.002 C 
ATOM     16  C   UNL     1      39.154 -24.893 -12.253  0.00  0.00    +0.024 C 
BRANCH  14  19
ATOM     17  O   UNL     1      40.429 -25.826 -15.450  0.00  0.00    -0.126 OA
ATOM     18  O   UNL     1      40.971 -26.547 -13.449  0.00  0.00    -0.126 OA
ATOM     19  N   UNL     1      40.264 -25.840 -14.206  0.00  0.00    +0.058 N 
ENDBRANCH  14  19
ENDBRANCH   9  11
ENDBRANCH   1   8
BRANCH   2  20
ATOM     20  O   UNL     1      34.042 -23.718 -16.748  0.00  0.00    -0.452 OA
BRANCH  20  21
ATOM     21  C   UNL     1      32.766 -23.460 -16.276  0.00  0.00    +0.146 C 
ATOM     22  C   UNL     1      31.102 -23.701 -14.570  0.00  0.00    +0.085 C 
ATOM     23  C   UNL     1      32.387 -23.962 -15.044  0.00  0.00    +0.044 C 
ATOM     24  C   UNL     1      30.216 -22.943 -15.335  0.00  0.00    +0.082 C 
ATOM     25  C   UNL     1      31.902 -22.705 -17.050  0.00  0.00    +0.038 C 
ATOM     26  C   UNL     1      30.616 -22.445 -16.575  0.00  0.00    +0.010 C 
BRANCH  22  28
ATOM     27  O   UNL     1      30.979 -23.721 -12.181  0.00  0.00    -0.245 OA
ATOM     28  C   UNL     1      30.714 -24.236 -13.271  0.00  0.00    +0.338 C 
BRANCH  28  29
ATOM     29  O   UNL     1      30.009 -25.393 -13.376  0.00  0.00    -0.477 OA
ATOM     30  H   UNL     1      29.446 -25.664 -12.677  0.00  0.00    +0.295 HD
ENDBRANCH  28  29
ENDBRANCH  22  28
BRANCH  24  32
ATOM     31  O   UNL     1      28.516 -21.614 -14.301  0.00  0.00    -0.245 OA
ATOM     32  C   UNL     1      28.867 -22.653 -14.867  0.00  0.00    +0.338 C 
BRANCH  32  33
ATOM     33  O   UNL     1      28.001 -23.671 -15.122  0.00  0.00    -0.477 OA
ATOM     34  H   UNL     1      28.315 -24.471 -15.494  0.00  0.00    +0.295 HD
ENDBRANCH  32  33
ENDBRANCH  24  32
ENDBRANCH  20  21
ENDBRANCH   2  20
TORSDOF 9
ENDMDL
