MODEL 1
REMARK VINA RESULT:     -11.1      0.000      0.000
REMARK  Name = 445459
REMARK  7 active torsions:
REMARK  status: ('A' for Active; 'I' for Inactive)
REMARK    1  A    between atoms: C_1  and  C_7
REMARK    2  A    between atoms: C_1  and  N_13
REMARK    3  A    between atoms: C_1  and  C_27
REMARK    4  A    between atoms: C_4  and  C_9
REMARK    5  A    between atoms: C_9  and  O_10
REMARK    6  A    between atoms: C_14  and  C_18
REMARK    7  A    between atoms: C_27  and  C_28
REMARK                            x       y       z     vdW  Elec       q    Type
REMARK                         _______ _______ _______ _____ _____    ______ ____
ROOT
ATOM      1  C   UNL     1      32.909 -23.807 -14.209  0.00  0.00    +0.153 C 
ENDROOT
BRANCH   1   7
ATOM      2  O   UNL     1      31.542 -22.829 -12.511  0.00  0.00    -0.273 OA
ATOM      3  N   UNL     1      30.645 -23.071 -14.611  0.00  0.00    -0.277 N 
ATOM      4  C   UNL     1      29.245 -22.590 -16.024  0.00  0.00    +0.138 C 
ATOM      5  C   UNL     1      29.285 -22.582 -14.491  0.00  0.00    +0.106 C 
ATOM      6  C   UNL     1      30.536 -23.417 -16.014  0.00  0.00    +0.106 C 
ATOM      7  C   UNL     1      31.641 -23.190 -13.682  0.00  0.00    +0.244 C 
BRANCH   4   9
ATOM      8  O   UNL     1      27.815 -24.478 -16.801  0.00  0.00    -0.250 OA
ATOM      9  C   UNL     1      27.998 -23.269 -16.675  0.00  0.00    +0.317 C 
BRANCH   9  10
ATOM     10  O   UNL     1      27.084 -22.356 -17.104  0.00  0.00    -0.480 OA
ATOM     11  H   UNL     1      26.646 -21.804 -16.485  0.00  0.00    +0.295 HD
ENDBRANCH   9  10
ENDBRANCH   4   9
ENDBRANCH   1   7
BRANCH   1  13
ATOM     12  O   UNL     1      33.740 -24.735 -16.739  0.00  0.00    -0.269 OA
ATOM     13  N   UNL     1      33.259 -22.977 -15.341  0.00  0.00    -0.294 N 
ATOM     14  C   UNL     1      33.670 -23.491 -16.589  0.00  0.00    +0.260 C 
ATOM     15  H   UNL     1      33.208 -22.000 -15.234  0.00  0.00    +0.150 HD
BRANCH  14  18
ATOM     16 CL   UNL     1      36.246 -18.581 -21.886  0.00  0.00    -0.082 Cl
ATOM     17  N   UNL     1      32.992 -21.934 -18.379  0.00  0.00    -0.309 N 
ATOM     18  C   UNL     1      33.955 -22.546 -17.623  0.00  0.00    +0.102 C 
ATOM     19  C   UNL     1      35.181 -22.086 -18.045  0.00  0.00    +0.020 C 
ATOM     20  C   UNL     1      34.955 -21.158 -19.100  0.00  0.00    +0.016 C 
ATOM     21  C   UNL     1      33.574 -21.081 -19.289  0.00  0.00    +0.048 C 
ATOM     22  C   UNL     1      35.796 -20.374 -19.914  0.00  0.00    +0.013 C 
ATOM     23  C   UNL     1      32.989 -20.257 -20.257  0.00  0.00    +0.015 C 
ATOM     24  C   UNL     1      35.225 -19.544 -20.886  0.00  0.00    +0.058 C 
ATOM     25  C   UNL     1      33.843 -19.488 -21.053  0.00  0.00    +0.013 C 
ATOM     26  H   UNL     1      32.023 -22.083 -18.286  0.00  0.00    +0.152 HD
ENDBRANCH  14  18
ENDBRANCH   1  13
BRANCH   1  27
ATOM     27  C   UNL     1      33.990 -23.825 -13.130  0.00  0.00    +0.055 C 
BRANCH  27  28
ATOM     28  C   UNL     1      35.358 -24.140 -13.684  0.00  0.00    -0.020 C 
ATOM     29  C   UNL     1      36.270 -23.114 -13.871  0.00  0.00    -0.004 C 
ATOM     30  C   UNL     1      35.678 -25.453 -13.995  0.00  0.00    -0.004 C 
ATOM     31  C   UNL     1      37.534 -23.405 -14.382  0.00  0.00    -0.000 C 
ATOM     32  C   UNL     1      36.943 -25.745 -14.507  0.00  0.00    -0.000 C 
ATOM     33  C   UNL     1      37.871 -24.721 -14.700  0.00  0.00    -0.000 C 
ENDBRANCH  27  28
ENDBRANCH   1  27
TORSDOF 7
ENDMDL
MODEL 2
REMARK VINA RESULT:     -10.9      2.732      5.648
REMARK  Name = 445459
REMARK  7 active torsions:
REMARK  status: ('A' for Active; 'I' for Inactive)
REMARK    1  A    between atoms: C_1  and  C_7
REMARK    2  A    between atoms: C_1  and  N_13
REMARK    3  A    between atoms: C_1  and  C_27
REMARK    4  A    between atoms: C_4  and  C_9
REMARK    5  A    between atoms: C_9  and  O_10
REMARK    6  A    between atoms: C_14  and  C_18
REMARK    7  A    between atoms: C_27  and  C_28
REMARK                            x       y       z     vdW  Elec       q    Type
REMARK                         _______ _______ _______ _____ _____    ______ ____
ROOT
ATOM      1  C   UNL     1      34.739 -22.701 -15.461  0.00  0.00    +0.153 C 
ENDROOT
BRANCH   1   7
ATOM      2  O   UNL     1      37.051 -23.187 -15.827  0.00  0.00    -0.273 OA
ATOM      3  N   UNL     1      36.244 -23.337 -13.683  0.00  0.00    -0.277 N 
ATOM      4  C   UNL     1      36.545 -23.402 -11.659  0.00  0.00    +0.138 C 
ATOM      5  C   UNL     1      37.376 -23.778 -12.892  0.00  0.00    +0.106 C 
ATOM      6  C   UNL     1      35.315 -23.296 -12.570  0.00  0.00    +0.106 C 
ATOM      7  C   UNL     1      36.124 -23.098 -15.023  0.00  0.00    +0.244 C 
BRANCH   4   9
ATOM      8  O   UNL     1      36.444 -25.694 -10.685  0.00  0.00    -0.250 OA
ATOM      9  C   UNL     1      36.471 -24.475 -10.527  0.00  0.00    +0.317 C 
BRANCH   9  10
ATOM     10  O   UNL     1      36.444 -23.911  -9.288  0.00  0.00    -0.480 OA
ATOM     11  H   UNL     1      35.858 -23.201  -9.109  0.00  0.00    +0.295 HD
ENDBRANCH   9  10
ENDBRANCH   4   9
ENDBRANCH   1   7
BRANCH   1  13
ATOM     12  O   UNL     1      34.057 -23.342 -18.121  0.00  0.00    -0.269 OA
ATOM     13  N   UNL     1      34.964 -21.862 -16.617  0.00  0.00    -0.294 N 
ATOM     14  C   UNL     1      34.604 -22.229 -17.931  0.00  0.00    +0.260 C 
ATOM     15  H   UNL     1      35.393 -20.987 -16.479  0.00  0.00    +0.150 HD
BRANCH  14  18
ATOM     16 CL   UNL     1      34.946 -17.256 -23.757  0.00  0.00    -0.082 Cl
ATOM     17  N   UNL     1      36.087 -20.706 -19.183  0.00  0.00    -0.309 N 
ATOM     18  C   UNL     1      34.863 -21.281 -18.968  0.00  0.00    +0.102 C 
ATOM     19  C   UNL     1      33.990 -20.781 -19.906  0.00  0.00    +0.020 C 
ATOM     20  C   UNL     1      34.710 -19.865 -20.724  0.00  0.00    +0.016 C 
ATOM     21  C   UNL     1      36.023 -19.837 -20.248  0.00  0.00    +0.048 C 
ATOM     22  C   UNL     1      34.370 -19.056 -21.825  0.00  0.00    +0.013 C 
ATOM     23  C   UNL     1      37.016 -19.036 -20.822  0.00  0.00    +0.015 C 
ATOM     24  C   UNL     1      35.353 -18.249 -22.409  0.00  0.00    +0.058 C 
ATOM     25  C   UNL     1      36.656 -18.240 -21.913  0.00  0.00    +0.013 C 
ATOM     26  H   UNL     1      36.896 -20.887 -18.651  0.00  0.00    +0.152 HD
ENDBRANCH  14  18
ENDBRANCH   1  13
BRANCH   1  27
ATOM     27  C   UNL     1      33.900 -23.937 -15.780  0.00  0.00    +0.055 C 
BRANCH  27  28
ATOM     28  C   UNL     1      32.550 -23.912 -15.104  0.00  0.00    -0.020 C 
ATOM     29  C   UNL     1      31.518 -23.183 -15.673  0.00  0.00    -0.004 C 
ATOM     30  C   UNL     1      32.367 -24.619 -13.926  0.00  0.00    -0.004 C 
ATOM     31  C   UNL     1      30.271 -23.160 -15.050  0.00  0.00    -0.000 C 
ATOM     32  C   UNL     1      31.119 -24.596 -13.302  0.00  0.00    -0.000 C 
ATOM     33  C   UNL     1      30.072 -23.867 -13.864  0.00  0.00    -0.000 C 
ENDBRANCH  27  28
ENDBRANCH   1  27
TORSDOF 7
ENDMDL
MODEL 3
REMARK VINA RESULT:     -10.3      2.294      3.337
REMARK  Name = 445459
REMARK  7 active torsions:
REMARK  status: ('A' for Active; 'I' for Inactive)
REMARK    1  A    between atoms: C_1  and  C_7
REMARK    2  A    between atoms: C_1  and  N_13
REMARK    3  A    between atoms: C_1  and  C_27
REMARK    4  A    between atoms: C_4  and  C_9
REMARK    5  A    between atoms: C_9  and  O_10
REMARK    6  A    between atoms: C_14  and  C_18
REMARK    7  A    between atoms: C_27  and  C_28
REMARK                            x       y       z     vdW  Elec       q    Type
REMARK                         _______ _______ _______ _____ _____    ______ ____
ROOT
ATOM      1  C   UNL     1      36.055 -23.189 -15.729  0.00  0.00    +0.153 C 
ENDROOT
BRANCH   1   7
ATOM      2  O   UNL     1      35.474 -21.495 -14.147  0.00  0.00    -0.273 OA
ATOM      3  N   UNL     1      33.963 -23.182 -14.524  0.00  0.00    -0.277 N 
ATOM      4  C   UNL     1      32.063 -23.937 -14.421  0.00  0.00    +0.138 C 
ATOM      5  C   UNL     1      32.863 -22.901 -13.621  0.00  0.00    +0.106 C 
ATOM      6  C   UNL     1      33.376 -24.387 -15.075  0.00  0.00    +0.106 C 
ATOM      7  C   UNL     1      35.149 -22.532 -14.723  0.00  0.00    +0.244 C 
BRANCH   4   9
ATOM      8  O   UNL     1      31.503 -25.284 -12.401  0.00  0.00    -0.250 OA
ATOM      9  C   UNL     1      31.307 -25.016 -13.584  0.00  0.00    +0.317 C 
BRANCH   9  10
ATOM     10  O   UNL     1      30.358 -25.660 -14.318  0.00  0.00    -0.480 OA
ATOM     11  H   UNL     1      30.282 -25.493 -15.237  0.00  0.00    +0.295 HD
ENDBRANCH   9  10
ENDBRANCH   4   9
ENDBRANCH   1   7
BRANCH   1  13
ATOM     12  O   UNL     1      34.245 -23.206 -17.890  0.00  0.00    -0.269 OA
ATOM     13  N   UNL     1      36.064 -22.271 -16.846  0.00  0.00    -0.294 N 
ATOM     14  C   UNL     1      35.134 -22.320 -17.905  0.00  0.00    +0.260 C 
ATOM     15  H   UNL     1      36.758 -21.573 -16.868  0.00  0.00    +0.150 HD
BRANCH  14  18
ATOM     16 CL   UNL     1      34.716 -17.187 -23.586  0.00  0.00    -0.082 Cl
ATOM     17  N   UNL     1      36.405 -20.634 -19.182  0.00  0.00    -0.309 N 
ATOM     18  C   UNL     1      35.251 -21.326 -18.925  0.00  0.00    +0.102 C 
ATOM     19  C   UNL     1      34.288 -20.884 -19.803  0.00  0.00    +0.020 C 
ATOM     20  C   UNL     1      34.878 -19.885 -20.626  0.00  0.00    +0.016 C 
ATOM     21  C   UNL     1      36.205 -19.747 -20.216  0.00  0.00    +0.048 C 
ATOM     22  C   UNL     1      34.408 -19.082 -21.684  0.00  0.00    +0.013 C 
ATOM     23  C   UNL     1      37.091 -18.843 -20.813  0.00  0.00    +0.015 C 
ATOM     24  C   UNL     1      35.282 -18.173 -22.291  0.00  0.00    +0.058 C 
ATOM     25  C   UNL     1      36.602 -18.056 -21.861  0.00  0.00    +0.013 C 
ATOM     26  H   UNL     1      37.253 -20.753 -18.697  0.00  0.00    +0.152 HD
ENDBRANCH  14  18
ENDBRANCH   1  13
BRANCH   1  27
ATOM     27  C   UNL     1      37.444 -23.415 -15.137  0.00  0.00    +0.055 C 
BRANCH  27  28
ATOM     28  C   UNL     1      37.442 -24.436 -14.025  0.00  0.00    -0.020 C 
ATOM     29  C   UNL     1      37.702 -24.028 -12.726  0.00  0.00    -0.004 C 
ATOM     30  C   UNL     1      37.179 -25.765 -14.323  0.00  0.00    -0.004 C 
ATOM     31  C   UNL     1      37.699 -24.971 -11.698  0.00  0.00    -0.000 C 
ATOM     32  C   UNL     1      37.177 -26.708 -13.294  0.00  0.00    -0.000 C 
ATOM     33  C   UNL     1      37.437 -26.310 -11.983  0.00  0.00    -0.000 C 
ENDBRANCH  27  28
ENDBRANCH   1  27
TORSDOF 7
ENDMDL
MODEL 4
REMARK VINA RESULT:      -9.9      2.203      5.802
REMARK  Name = 445459
REMARK  7 active torsions:
REMARK  status: ('A' for Active; 'I' for Inactive)
REMARK    1  A    between atoms: C_1  and  C_7
REMARK    2  A    between atoms: C_1  and  N_13
REMARK    3  A    between atoms: C_1  and  C_27
REMARK    4  A    between atoms: C_4  and  C_9
REMARK    5  A    between atoms: C_9  and  O_10
REMARK    6  A    between atoms: C_14  and  C_18
REMARK    7  A    between atoms: C_27  and  C_28
REMARK                            x       y       z     vdW  Elec       q    Type
REMARK                         _______ _______ _______ _____ _____    ______ ____
ROOT
ATOM      1  C   UNL     1      33.617 -23.889 -14.658  0.00  0.00    +0.153 C 
ENDROOT
BRANCH   1   7
ATOM      2  O   UNL     1      35.009 -25.790 -15.057  0.00  0.00    -0.273 OA
ATOM      3  N   UNL     1      35.795 -24.155 -13.651  0.00  0.00    -0.277 N 
ATOM      4  C   UNL     1      37.334 -23.228 -12.670  0.00  0.00    +0.138 C 
ATOM      5  C   UNL     1      37.081 -24.647 -13.195  0.00  0.00    +0.106 C 
ATOM      6  C   UNL     1      35.845 -22.927 -12.882  0.00  0.00    +0.106 C 
ATOM      7  C   UNL     1      34.866 -24.712 -14.483  0.00  0.00    +0.244 C 
BRANCH   4   9
ATOM      8  O   UNL     1      37.158 -23.057 -10.189  0.00  0.00    -0.250 OA
ATOM      9  C   UNL     1      37.854 -23.122 -11.201  0.00  0.00    +0.317 C 
BRANCH   9  10
ATOM     10  O   UNL     1      39.214 -23.115 -11.138  0.00  0.00    -0.480 OA
ATOM     11  H   UNL     1      39.718 -23.403 -11.874  0.00  0.00    +0.295 HD
ENDBRANCH   9  10
ENDBRANCH   4   9
ENDBRANCH   1   7
BRANCH   1  13
ATOM     12  O   UNL     1      33.314 -24.485 -17.397  0.00  0.00    -0.269 OA
ATOM     13  N   UNL     1      33.934 -23.002 -15.756  0.00  0.00    -0.294 N 
ATOM     14  C   UNL     1      33.764 -23.348 -17.113  0.00  0.00    +0.260 C 
ATOM     15  H   UNL     1      34.288 -22.108 -15.544  0.00  0.00    +0.150 HD
BRANCH  14  18
ATOM     16 CL   UNL     1      36.566 -18.210 -22.067  0.00  0.00    -0.082 Cl
ATOM     17  N   UNL     1      33.161 -21.690 -18.838  0.00  0.00    -0.309 N 
ATOM     18  C   UNL     1      34.093 -22.355 -18.087  0.00  0.00    +0.102 C 
ATOM     19  C   UNL     1      35.337 -21.893 -18.448  0.00  0.00    +0.020 C 
ATOM     20  C   UNL     1      35.156 -20.908 -19.459  0.00  0.00    +0.016 C 
ATOM     21  C   UNL     1      33.782 -20.800 -19.685  0.00  0.00    +0.048 C 
ATOM     22  C   UNL     1      36.032 -20.096 -20.206  0.00  0.00    +0.013 C 
ATOM     23  C   UNL     1      33.238 -19.917 -20.624  0.00  0.00    +0.015 C 
ATOM     24  C   UNL     1      35.502 -19.208 -21.150  0.00  0.00    +0.058 C 
ATOM     25  C   UNL     1      34.126 -19.121 -21.354  0.00  0.00    +0.013 C 
ATOM     26  H   UNL     1      32.188 -21.829 -18.781  0.00  0.00    +0.152 HD
ENDBRANCH  14  18
ENDBRANCH   1  13
BRANCH   1  27
ATOM     27  C   UNL     1      32.416 -24.785 -14.947  0.00  0.00    +0.055 C 
BRANCH  27  28
ATOM     28  C   UNL     1      31.112 -24.025 -14.950  0.00  0.00    -0.020 C 
ATOM     29  C   UNL     1      31.021 -22.828 -14.258  0.00  0.00    -0.004 C 
ATOM     30  C   UNL     1      30.028 -24.538 -15.646  0.00  0.00    -0.004 C 
ATOM     31  C   UNL     1      29.816 -22.125 -14.261  0.00  0.00    -0.000 C 
ATOM     32  C   UNL     1      28.822 -23.835 -15.649  0.00  0.00    -0.000 C 
ATOM     33  C   UNL     1      28.717 -22.629 -14.956  0.00  0.00    -0.000 C 
ENDBRANCH  27  28
ENDBRANCH   1  27
TORSDOF 7
ENDMDL
MODEL 5
REMARK VINA RESULT:      -9.7      1.939      3.037
REMARK  Name = 445459
REMARK  7 active torsions:
REMARK  status: ('A' for Active; 'I' for Inactive)
REMARK    1  A    between atoms: C_1  and  C_7
REMARK    2  A    between atoms: C_1  and  N_13
REMARK    3  A    between atoms: C_1  and  C_27
REMARK    4  A    between atoms: C_4  and  C_9
REMARK    5  A    between atoms: C_9  and  O_10
REMARK    6  A    between atoms: C_14  and  C_18
REMARK    7  A    between atoms: C_27  and  C_28
REMARK                            x       y       z     vdW  Elec       q    Type
REMARK                         _______ _______ _______ _____ _____    ______ ____
ROOT
ATOM      1  C   UNL     1      33.421 -23.107 -16.442  0.00  0.00    +0.153 C 
ENDROOT
BRANCH   1   7
ATOM      2  O   UNL     1      31.389 -22.128 -17.233  0.00  0.00    -0.273 OA
ATOM      3  N   UNL     1      31.248 -23.720 -15.585  0.00  0.00    -0.277 N 
ATOM      4  C   UNL     1      30.175 -25.095 -14.514  0.00  0.00    +0.138 C 
ATOM      5  C   UNL     1      29.834 -23.809 -15.277  0.00  0.00    +0.106 C 
ATOM      6  C   UNL     1      31.657 -24.712 -14.610  0.00  0.00    +0.106 C 
ATOM      7  C   UNL     1      31.926 -22.927 -16.468  0.00  0.00    +0.244 C 
BRANCH   4   9
ATOM      8  O   UNL     1      30.147 -24.872 -12.032  0.00  0.00    -0.250 OA
ATOM      9  C   UNL     1      29.588 -25.214 -13.072  0.00  0.00    +0.317 C 
BRANCH   9  10
ATOM     10  O   UNL     1      28.337 -25.751 -13.071  0.00  0.00    -0.480 OA
ATOM     11  H   UNL     1      27.889 -25.898 -13.881  0.00  0.00    +0.295 HD
ENDBRANCH   9  10
ENDBRANCH   4   9
ENDBRANCH   1   7
BRANCH   1  13
ATOM     12  O   UNL     1      34.034 -23.537 -19.160  0.00  0.00    -0.269 OA
ATOM     13  N   UNL     1      33.910 -22.108 -17.366  0.00  0.00    -0.294 N 
ATOM     14  C   UNL     1      34.203 -22.374 -18.721  0.00  0.00    +0.260 C 
ATOM     15  H   UNL     1      34.046 -21.192 -17.032  0.00  0.00    +0.150 HD
BRANCH  14  18
ATOM     16 CL   UNL     1      35.569 -16.386 -23.311  0.00  0.00    -0.082 Cl
ATOM     17  N   UNL     1      35.954 -20.858 -19.572  0.00  0.00    -0.309 N 
ATOM     18  C   UNL     1      34.651 -21.277 -19.520  0.00  0.00    +0.102 C 
ATOM     19  C   UNL     1      33.911 -20.465 -20.348  0.00  0.00    +0.020 C 
ATOM     20  C   UNL     1      34.798 -19.514 -20.927  0.00  0.00    +0.016 C 
ATOM     21  C   UNL     1      36.072 -19.783 -20.424  0.00  0.00    +0.048 C 
ATOM     22  C   UNL     1      34.637 -18.449 -21.834  0.00  0.00    +0.013 C 
ATOM     23  C   UNL     1      37.199 -19.035 -20.783  0.00  0.00    +0.015 C 
ATOM     24  C   UNL     1      35.756 -17.692 -22.203  0.00  0.00    +0.058 C 
ATOM     25  C   UNL     1      37.016 -17.982 -21.684  0.00  0.00    +0.013 C 
ATOM     26  H   UNL     1      36.698 -21.266 -19.072  0.00  0.00    +0.152 HD
ENDBRANCH  14  18
ENDBRANCH   1  13
BRANCH   1  27
ATOM     27  C   UNL     1      33.962 -22.920 -15.026  0.00  0.00    +0.055 C 
BRANCH  27  28
ATOM     28  C   UNL     1      35.301 -23.587 -14.824  0.00  0.00    -0.020 C 
ATOM     29  C   UNL     1      35.347 -24.930 -14.487  0.00  0.00    -0.004 C 
ATOM     30  C   UNL     1      36.460 -22.843 -14.981  0.00  0.00    -0.004 C 
ATOM     31  C   UNL     1      36.584 -25.547 -14.301  0.00  0.00    -0.000 C 
ATOM     32  C   UNL     1      37.698 -23.460 -14.794  0.00  0.00    -0.000 C 
ATOM     33  C   UNL     1      37.759 -24.812 -14.454  0.00  0.00    -0.000 C 
ENDBRANCH  27  28
ENDBRANCH   1  27
TORSDOF 7
ENDMDL
MODEL 6
REMARK VINA RESULT:      -9.2      3.015      6.123
REMARK  Name = 445459
REMARK  7 active torsions:
REMARK  status: ('A' for Active; 'I' for Inactive)
REMARK    1  A    between atoms: C_1  and  C_7
REMARK    2  A    between atoms: C_1  and  N_13
REMARK    3  A    between atoms: C_1  and  C_27
REMARK    4  A    between atoms: C_4  and  C_9
REMARK    5  A    between atoms: C_9  and  O_10
REMARK    6  A    between atoms: C_14  and  C_18
REMARK    7  A    between atoms: C_27  and  C_28
REMARK                            x       y       z     vdW  Elec       q    Type
REMARK                         _______ _______ _______ _____ _____    ______ ____
ROOT
ATOM      1  C   UNL     1      33.124 -22.925 -16.044  0.00  0.00    +0.153 C 
ENDROOT
BRANCH   1   7
ATOM      2  O   UNL     1      32.591 -24.609 -14.433  0.00  0.00    -0.273 OA
ATOM      3  N   UNL     1      30.865 -23.385 -15.326  0.00  0.00    -0.277 N 
ATOM      4  C   UNL     1      28.934 -22.708 -15.265  0.00  0.00    +0.138 C 
ATOM      5  C   UNL     1      29.668 -23.942 -14.725  0.00  0.00    +0.106 C 
ATOM      6  C   UNL     1      30.163 -22.406 -16.131  0.00  0.00    +0.106 C 
ATOM      7  C   UNL     1      32.181 -23.728 -15.187  0.00  0.00    +0.244 C 
BRANCH   4   9
ATOM      8  O   UNL     1      27.487 -23.619 -17.077  0.00  0.00    -0.250 OA
ATOM      9  C   UNL     1      27.602 -22.982 -16.032  0.00  0.00    +0.317 C 
BRANCH   9  10
ATOM     10  O   UNL     1      26.528 -22.430 -15.406  0.00  0.00    -0.480 OA
ATOM     11  H   UNL     1      26.520 -21.514 -15.207  0.00  0.00    +0.295 HD
ENDBRANCH   9  10
ENDBRANCH   4   9
ENDBRANCH   1   7
BRANCH   1  13
ATOM     12  O   UNL     1      34.774 -22.232 -13.865  0.00  0.00    -0.269 OA
ATOM     13  N   UNL     1      34.424 -23.488 -15.756  0.00  0.00    -0.294 N 
ATOM     14  C   UNL     1      35.213 -23.107 -14.650  0.00  0.00    +0.260 C 
ATOM     15  H   UNL     1      34.778 -24.175 -16.366  0.00  0.00    +0.150 HD
BRANCH  14  18
ATOM     16 CL   UNL     1      41.421 -27.290 -12.989  0.00  0.00    -0.082 Cl
ATOM     17  N   UNL     1      37.594 -23.465 -15.191  0.00  0.00    -0.309 N 
ATOM     18  C   UNL     1      36.465 -23.775 -14.480  0.00  0.00    +0.102 C 
ATOM     19  C   UNL     1      36.775 -24.803 -13.620  0.00  0.00    +0.020 C 
ATOM     20  C   UNL     1      38.145 -25.133 -13.816  0.00  0.00    +0.016 C 
ATOM     21  C   UNL     1      38.635 -24.280 -14.806  0.00  0.00    +0.048 C 
ATOM     22  C   UNL     1      39.018 -26.079 -13.244  0.00  0.00    +0.013 C 
ATOM     23  C   UNL     1      39.960 -24.325 -15.255  0.00  0.00    +0.015 C 
ATOM     24  C   UNL     1      40.346 -26.137 -13.683  0.00  0.00    +0.058 C 
ATOM     25  C   UNL     1      40.807 -25.272 -14.673  0.00  0.00    +0.013 C 
ATOM     26  H   UNL     1      37.652 -22.763 -15.879  0.00  0.00    +0.152 HD
ENDBRANCH  14  18
ENDBRANCH   1  13
BRANCH   1  27
ATOM     27  C   UNL     1      32.742 -23.038 -17.518  0.00  0.00    +0.055 C 
BRANCH  27  28
ATOM     28  C   UNL     1      33.520 -22.085 -18.393  0.00  0.00    -0.020 C 
ATOM     29  C   UNL     1      32.837 -21.153 -19.158  0.00  0.00    -0.004 C 
ATOM     30  C   UNL     1      34.904 -22.160 -18.416  0.00  0.00    -0.004 C 
ATOM     31  C   UNL     1      33.556 -20.272 -19.967  0.00  0.00    -0.000 C 
ATOM     32  C   UNL     1      35.623 -21.279 -19.225  0.00  0.00    -0.000 C 
ATOM     33  C   UNL     1      34.948 -20.336 -20.000  0.00  0.00    -0.000 C 
ENDBRANCH  27  28
ENDBRANCH   1  27
TORSDOF 7
ENDMDL
MODEL 7
REMARK VINA RESULT:      -9.0      3.582      7.810
REMARK  Name = 445459
REMARK  7 active torsions:
REMARK  status: ('A' for Active; 'I' for Inactive)
REMARK    1  A    between atoms: C_1  and  C_7
REMARK    2  A    between atoms: C_1  and  N_13
REMARK    3  A    between atoms: C_1  and  C_27
REMARK    4  A    between atoms: C_4  and  C_9
REMARK    5  A    between atoms: C_9  and  O_10
REMARK    6  A    between atoms: C_14  and  C_18
REMARK    7  A    between atoms: C_27  and  C_28
REMARK                            x       y       z     vdW  Elec       q    Type
REMARK                         _______ _______ _______ _____ _____    ______ ____
ROOT
ATOM      1  C   UNL     1      36.470 -22.902 -15.799  0.00  0.00    +0.153 C 
ENDROOT
BRANCH   1   7
ATOM      2  O   UNL     1      36.384 -22.404 -13.462  0.00  0.00    -0.273 OA
ATOM      3  N   UNL     1      37.875 -24.000 -14.171  0.00  0.00    -0.277 N 
ATOM      4  C   UNL     1      39.106 -25.590 -13.791  0.00  0.00    +0.138 C 
ATOM      5  C   UNL     1      38.576 -24.409 -12.969  0.00  0.00    +0.106 C 
ATOM      6  C   UNL     1      38.610 -24.880 -15.057  0.00  0.00    +0.106 C 
ATOM      7  C   UNL     1      36.896 -23.066 -14.363  0.00  0.00    +0.244 C 
BRANCH   4   9
ATOM      8  O   UNL     1      41.183 -26.878 -13.299  0.00  0.00    -0.250 OA
ATOM      9  C   UNL     1      40.643 -25.851 -13.707  0.00  0.00    +0.317 C 
BRANCH   9  10
ATOM     10  O   UNL     1      41.368 -24.789 -14.155  0.00  0.00    -0.480 OA
ATOM     11  H   UNL     1      42.049 -24.428 -13.621  0.00  0.00    +0.295 HD
ENDBRANCH   9  10
ENDBRANCH   4   9
ENDBRANCH   1   7
BRANCH   1  13
ATOM     12  O   UNL     1      34.807 -25.088 -15.161  0.00  0.00    -0.269 OA
ATOM     13  N   UNL     1      35.026 -22.874 -15.734  0.00  0.00    -0.294 N 
ATOM     14  C   UNL     1      34.236 -23.998 -15.410  0.00  0.00    +0.260 C 
ATOM     15  H   UNL     1      34.568 -22.024 -15.928  0.00  0.00    +0.150 HD
BRANCH  14  18
ATOM     16 CL   UNL     1      26.794 -22.213 -15.880  0.00  0.00    -0.082 Cl
ATOM     17  N   UNL     1      31.987 -24.533 -14.547  0.00  0.00    -0.309 N 
ATOM     18  C   UNL     1      32.821 -23.809 -15.357  0.00  0.00    +0.102 C 
ATOM     19  C   UNL     1      32.051 -22.916 -16.067  0.00  0.00    +0.020 C 
ATOM     20  C   UNL     1      30.697 -23.104 -15.674  0.00  0.00    +0.016 C 
ATOM     21  C   UNL     1      30.684 -24.123 -14.720  0.00  0.00    +0.048 C 
ATOM     22  C   UNL     1      29.477 -22.502 -16.040  0.00  0.00    +0.013 C 
ATOM     23  C   UNL     1      29.508 -24.574 -14.111  0.00  0.00    +0.015 C 
ATOM     24  C   UNL     1      28.291 -22.943 -15.439  0.00  0.00    +0.058 C 
ATOM     25  C   UNL     1      28.309 -23.963 -14.490  0.00  0.00    +0.013 C 
ATOM     26  H   UNL     1      32.278 -25.244 -13.931  0.00  0.00    +0.152 HD
ENDBRANCH  14  18
ENDBRANCH   1  13
BRANCH   1  27
ATOM     27  C   UNL     1      37.061 -21.627 -16.394  0.00  0.00    +0.055 C 
BRANCH  27  28
ATOM     28  C   UNL     1      36.462 -21.281 -17.736  0.00  0.00    -0.020 C 
ATOM     29  C   UNL     1      35.277 -21.882 -18.127  0.00  0.00    -0.004 C 
ATOM     30  C   UNL     1      37.109 -20.366 -18.553  0.00  0.00    -0.004 C 
ATOM     31  C   UNL     1      34.723 -21.562 -19.366  0.00  0.00    -0.000 C 
ATOM     32  C   UNL     1      36.555 -20.047 -19.793  0.00  0.00    -0.000 C 
ATOM     33  C   UNL     1      35.362 -20.645 -20.199  0.00  0.00    -0.000 C 
ENDBRANCH  27  28
ENDBRANCH   1  27
TORSDOF 7
ENDMDL
MODEL 8
REMARK VINA RESULT:      -8.9      2.235      3.137
REMARK  Name = 445459
REMARK  7 active torsions:
REMARK  status: ('A' for Active; 'I' for Inactive)
REMARK    1  A    between atoms: C_1  and  C_7
REMARK    2  A    between atoms: C_1  and  N_13
REMARK    3  A    between atoms: C_1  and  C_27
REMARK    4  A    between atoms: C_4  and  C_9
REMARK    5  A    between atoms: C_9  and  O_10
REMARK    6  A    between atoms: C_14  and  C_18
REMARK    7  A    between atoms: C_27  and  C_28
REMARK                            x       y       z     vdW  Elec       q    Type
REMARK                         _______ _______ _______ _____ _____    ______ ____
ROOT
ATOM      1  C   UNL     1      35.674 -23.334 -15.214  0.00  0.00    +0.153 C 
ENDROOT
BRANCH   1   7
ATOM      2  O   UNL     1      34.856 -25.563 -15.481  0.00  0.00    -0.273 OA
ATOM      3  N   UNL     1      33.323 -23.881 -15.178  0.00  0.00    -0.277 N 
ATOM      4  C   UNL     1      31.441 -23.244 -14.685  0.00  0.00    +0.138 C 
ATOM      5  C   UNL     1      32.033 -24.539 -15.256  0.00  0.00    +0.106 C 
ATOM      6  C   UNL     1      32.780 -22.553 -14.972  0.00  0.00    +0.106 C 
ATOM      7  C   UNL     1      34.590 -24.375 -15.307  0.00  0.00    +0.244 C 
BRANCH   4   9
ATOM      8  O   UNL     1      30.129 -22.410 -16.633  0.00  0.00    -0.250 OA
ATOM      9  C   UNL     1      30.197 -22.668 -15.433  0.00  0.00    +0.317 C 
BRANCH   9  10
ATOM     10  O   UNL     1      29.141 -22.476 -14.596  0.00  0.00    -0.480 OA
ATOM     11  H   UNL     1      29.103 -21.710 -14.057  0.00  0.00    +0.295 HD
ENDBRANCH   9  10
ENDBRANCH   4   9
ENDBRANCH   1   7
BRANCH   1  13
ATOM     12  O   UNL     1      37.734 -22.012 -16.614  0.00  0.00    -0.269 OA
ATOM     13  N   UNL     1      35.510 -22.549 -16.417  0.00  0.00    -0.294 N 
ATOM     14  C   UNL     1      36.575 -21.905 -17.082  0.00  0.00    +0.260 C 
ATOM     15  H   UNL     1      34.604 -22.458 -16.792  0.00  0.00    +0.150 HD
BRANCH  14  18
ATOM     16 CL   UNL     1      33.960 -18.625 -23.501  0.00  0.00    -0.082 Cl
ATOM     17  N   UNL     1      37.084 -20.249 -18.839  0.00  0.00    -0.309 N 
ATOM     18  C   UNL     1      36.261 -21.188 -18.278  0.00  0.00    +0.102 C 
ATOM     19  C   UNL     1      35.135 -21.288 -19.063  0.00  0.00    +0.020 C 
ATOM     20  C   UNL     1      35.278 -20.373 -20.144  0.00  0.00    +0.016 C 
ATOM     21  C   UNL     1      36.509 -19.735 -19.979  0.00  0.00    +0.048 C 
ATOM     22  C   UNL     1      34.477 -20.027 -21.249  0.00  0.00    +0.013 C 
ATOM     23  C   UNL     1      36.980 -18.762 -20.868  0.00  0.00    +0.015 C 
ATOM     24  C   UNL     1      34.934 -19.055 -22.146  0.00  0.00    +0.058 C 
ATOM     25  C   UNL     1      36.167 -18.434 -21.957  0.00  0.00    +0.013 C 
ATOM     26  H   UNL     1      37.960 -19.980 -18.478  0.00  0.00    +0.152 HD
ENDBRANCH  14  18
ENDBRANCH   1  13
BRANCH   1  27
ATOM     27  C   UNL     1      35.518 -22.506 -13.940  0.00  0.00    +0.055 C 
BRANCH  27  28
ATOM     28  C   UNL     1      36.071 -23.206 -12.722  0.00  0.00    -0.020 C 
ATOM     29  C   UNL     1      37.441 -23.239 -12.520  0.00  0.00    -0.004 C 
ATOM     30  C   UNL     1      35.196 -23.803 -11.827  0.00  0.00    -0.004 C 
ATOM     31  C   UNL     1      37.952 -23.885 -11.394  0.00  0.00    -0.000 C 
ATOM     32  C   UNL     1      35.707 -24.450 -10.701  0.00  0.00    -0.000 C 
ATOM     33  C   UNL     1      37.084 -24.490 -10.485  0.00  0.00    -0.000 C 
ENDBRANCH  27  28
ENDBRANCH   1  27
TORSDOF 7
ENDMDL
MODEL 9
REMARK VINA RESULT:      -8.7      1.808      2.500
REMARK  Name = 445459
REMARK  7 active torsions:
REMARK  status: ('A' for Active; 'I' for Inactive)
REMARK    1  A    between atoms: C_1  and  C_7
REMARK    2  A    between atoms: C_1  and  N_13
REMARK    3  A    between atoms: C_1  and  C_27
REMARK    4  A    between atoms: C_4  and  C_9
REMARK    5  A    between atoms: C_9  and  O_10
REMARK    6  A    between atoms: C_14  and  C_18
REMARK    7  A    between atoms: C_27  and  C_28
REMARK                            x       y       z     vdW  Elec       q    Type
REMARK                         _______ _______ _______ _____ _____    ______ ____
ROOT
ATOM      1  C   UNL     1      35.361 -23.603 -15.487  0.00  0.00    +0.153 C 
ENDROOT
BRANCH   1   7
ATOM      2  O   UNL     1      34.632 -22.856 -13.337  0.00  0.00    -0.273 OA
ATOM      3  N   UNL     1      33.055 -23.089 -14.989  0.00  0.00    -0.277 N 
ATOM      4  C   UNL     1      31.202 -22.689 -15.761  0.00  0.00    +0.138 C 
ATOM      5  C   UNL     1      31.797 -22.752 -14.349  0.00  0.00    +0.106 C 
ATOM      6  C   UNL     1      32.470 -23.376 -16.283  0.00  0.00    +0.106 C 
ATOM      7  C   UNL     1      34.326 -23.147 -14.492  0.00  0.00    +0.244 C 
BRANCH   4   9
ATOM      8  O   UNL     1      29.593 -24.580 -15.540  0.00  0.00    -0.250 OA
ATOM      9  C   UNL     1      29.863 -23.463 -15.977  0.00  0.00    +0.317 C 
BRANCH   9  10
ATOM     10  O   UNL     1      28.974 -22.750 -16.723  0.00  0.00    -0.480 OA
ATOM     11  H   UNL     1      29.116 -21.836 -16.875  0.00  0.00    +0.295 HD
ENDBRANCH   9  10
ENDBRANCH   4   9
ENDBRANCH   1   7
BRANCH   1  13
ATOM     12  O   UNL     1      37.361 -22.193 -16.887  0.00  0.00    -0.269 OA
ATOM     13  N   UNL     1      35.147 -22.745 -16.631  0.00  0.00    -0.294 N 
ATOM     14  C   UNL     1      36.184 -22.059 -17.299  0.00  0.00    +0.260 C 
ATOM     15  H   UNL     1      34.226 -22.632 -16.962  0.00  0.00    +0.150 HD
BRANCH  14  18
ATOM     16 CL   UNL     1      35.286 -17.548 -23.433  0.00  0.00    -0.082 Cl
ATOM     17  N   UNL     1      34.547 -21.195 -18.930  0.00  0.00    -0.309 N 
ATOM     18  C   UNL     1      35.821 -21.270 -18.434  0.00  0.00    +0.102 C 
ATOM     19  C   UNL     1      36.628 -20.474 -19.214  0.00  0.00    +0.020 C 
ATOM     20  C   UNL     1      35.813 -19.892 -20.225  0.00  0.00    +0.016 C 
ATOM     21  C   UNL     1      34.513 -20.360 -20.025  0.00  0.00    +0.048 C 
ATOM     22  C   UNL     1      36.058 -19.009 -21.295  0.00  0.00    +0.013 C 
ATOM     23  C   UNL     1      33.441 -19.989 -20.844  0.00  0.00    +0.015 C 
ATOM     24  C   UNL     1      34.996 -18.628 -22.123  0.00  0.00    +0.058 C 
ATOM     25  C   UNL     1      33.708 -19.112 -21.899  0.00  0.00    +0.013 C 
ATOM     26  H   UNL     1      33.768 -21.670 -18.559  0.00  0.00    +0.152 HD
ENDBRANCH  14  18
ENDBRANCH   1  13
BRANCH   1  27
ATOM     27  C   UNL     1      36.765 -23.472 -14.903  0.00  0.00    +0.055 C 
BRANCH  27  28
ATOM     28  C   UNL     1      37.056 -24.516 -13.851  0.00  0.00    -0.020 C 
ATOM     29  C   UNL     1      36.824 -25.852 -14.136  0.00  0.00    -0.004 C 
ATOM     30  C   UNL     1      37.549 -24.118 -12.618  0.00  0.00    -0.004 C 
ATOM     31  C   UNL     1      37.093 -26.816 -13.165  0.00  0.00    -0.000 C 
ATOM     32  C   UNL     1      37.818 -25.083 -11.646  0.00  0.00    -0.000 C 
ATOM     33  C   UNL     1      37.590 -26.431 -11.921  0.00  0.00    -0.000 C 
ENDBRANCH  27  28
ENDBRANCH   1  27
TORSDOF 7
ENDMDL
