MODEL 1
REMARK VINA RESULT:     -11.4      0.000      0.000
REMARK  Name = 6918248
REMARK  5 active torsions:
REMARK  status: ('A' for Active; 'I' for Inactive)
REMARK    1  A    between atoms: N_1  and  C_18
REMARK    2  A    between atoms: N_2  and  C_8
REMARK    3  A    between atoms: C_11  and  C_17
REMARK    4  A    between atoms: C_18  and  C_19
REMARK    5  A    between atoms: C_19  and  N_21
REMARK                            x       y       z     vdW  Elec       q    Type
REMARK                         _______ _______ _______ _____ _____    ______ ____
ROOT
ATOM      1  N   UNL     1      34.594 -22.909 -17.209  0.00  0.00    +0.391 N 
ATOM      2  N   UNL     1      35.307 -20.959 -19.172  0.00  0.00    -0.312 N 
ATOM      3  C   UNL     1      33.553 -22.163 -17.926  0.00  0.00    -0.055 C 
ATOM      4  C   UNL     1      35.776 -22.058 -17.018  0.00  0.00    -0.055 C 
ATOM      5  C   UNL     1      34.051 -21.709 -19.300  0.00  0.00    +0.068 C 
ATOM      6  C   UNL     1      36.347 -21.600 -18.361  0.00  0.00    +0.068 C 
ATOM      7  H   UNL     1      34.862 -23.721 -17.766  0.00  0.00    -0.079 HD
ENDROOT
BRANCH   2   8
ATOM      8  C   UNL     1      35.669 -20.100 -20.215  0.00  0.00    +0.048 C 
ATOM      9  C   UNL     1      34.849 -19.951 -21.351  0.00  0.00    +0.018 C 
ATOM     10  C   UNL     1      36.866 -19.357 -20.161  0.00  0.00    +0.015 C 
ATOM     11  C   UNL     1      35.210 -19.095 -22.391  0.00  0.00    +0.073 C 
ATOM     12  C   UNL     1      37.227 -18.500 -21.200  0.00  0.00    +0.001 C 
ATOM     13  C   UNL     1      36.400 -18.369 -22.316  0.00  0.00    +0.004 C 
BRANCH  11  17
ATOM     14  F   UNL     1      32.998 -19.095 -23.300  0.00  0.00    -0.166 F 
ATOM     15  F   UNL     1      34.433 -17.742 -24.203  0.00  0.00    -0.166 F 
ATOM     16  F   UNL     1      34.595 -19.883 -24.548  0.00  0.00    -0.166 F 
ATOM     17  C   UNL     1      34.327 -18.955 -23.583  0.00  0.00    +0.419 C 
ENDBRANCH  11  17
ENDBRANCH   2   8
BRANCH   1  18
ATOM     18  C   UNL     1      34.090 -23.385 -15.921  0.00  0.00    -0.052 C 
BRANCH  18  19
ATOM     19  C   UNL     1      34.804 -22.677 -14.780  0.00  0.00    +0.088 C 
BRANCH  19  21
ATOM     20  O   UNL     1      33.219 -23.746 -12.443  0.00  0.00    -0.247 OA
ATOM     21  N   UNL     1      35.199 -23.606 -13.756  0.00  0.00    -0.282 N 
ATOM     22  N   UNL     1      35.183 -24.958 -11.930  0.00  0.00    -0.305 N 
ATOM     23  C   UNL     1      36.458 -24.218 -13.650  0.00  0.00    +0.079 A 
ATOM     24  C   UNL     1      34.377 -24.057 -12.683  0.00  0.00    +0.328 A 
ATOM     25  C   UNL     1      36.441 -25.045 -12.528  0.00  0.00    +0.076 A 
ATOM     26  C   UNL     1      37.581 -24.103 -14.443  0.00  0.00    +0.019 C 
ATOM     27  C   UNL     1      37.532 -25.793 -12.144  0.00  0.00    +0.019 C 
ATOM     28  C   UNL     1      38.702 -24.853 -14.073  0.00  0.00    +0.002 C 
ATOM     29  C   UNL     1      38.678 -25.688 -12.936  0.00  0.00    +0.002 C 
ATOM     30  H   UNL     1      34.899 -25.441 -11.120  0.00  0.00    +0.170 HD
ENDBRANCH  19  21
ENDBRANCH  18  19
ENDBRANCH   1  18
TORSDOF 5
ENDMDL
MODEL 2
REMARK VINA RESULT:     -11.2      8.598     13.556
REMARK  Name = 6918248
REMARK  5 active torsions:
REMARK  status: ('A' for Active; 'I' for Inactive)
REMARK    1  A    between atoms: N_1  and  C_18
REMARK    2  A    between atoms: N_2  and  C_8
REMARK    3  A    between atoms: C_11  and  C_17
REMARK    4  A    between atoms: C_18  and  C_19
REMARK    5  A    between atoms: C_19  and  N_21
REMARK                            x       y       z     vdW  Elec       q    Type
REMARK                         _______ _______ _______ _____ _____    ______ ____
ROOT
ATOM      1  N   UNL     1      33.352 -12.312 -24.110  0.00  0.00    +0.391 N 
ATOM      2  N   UNL     1      34.155 -15.034 -23.784  0.00  0.00    -0.312 N 
ATOM      3  C   UNL     1      33.457 -13.199 -25.274  0.00  0.00    -0.055 C 
ATOM      4  C   UNL     1      34.368 -12.674 -23.114  0.00  0.00    -0.055 C 
ATOM      5  C   UNL     1      33.243 -14.660 -24.873  0.00  0.00    +0.068 C 
ATOM      6  C   UNL     1      34.185 -14.117 -22.641  0.00  0.00    +0.068 C 
ATOM      7  H   UNL     1      32.428 -12.424 -23.692  0.00  0.00    -0.079 HD
ENDROOT
BRANCH   2   8
ATOM      8  C   UNL     1      34.428 -16.393 -23.593  0.00  0.00    +0.048 C 
ATOM      9  C   UNL     1      35.228 -16.829 -22.519  0.00  0.00    +0.018 C 
ATOM     10  C   UNL     1      33.909 -17.368 -24.470  0.00  0.00    +0.015 C 
ATOM     11  C   UNL     1      35.499 -18.184 -22.329  0.00  0.00    +0.073 C 
ATOM     12  C   UNL     1      34.179 -18.723 -24.279  0.00  0.00    +0.001 C 
ATOM     13  C   UNL     1      34.975 -19.131 -23.209  0.00  0.00    +0.004 C 
BRANCH  11  17
ATOM     14  F   UNL     1      36.088 -19.893 -20.762  0.00  0.00    -0.166 F 
ATOM     15  F   UNL     1      37.687 -18.607 -21.462  0.00  0.00    -0.166 F 
ATOM     16  F   UNL     1      36.196 -17.831 -20.083  0.00  0.00    -0.166 F 
ATOM     17  C   UNL     1      36.350 -18.621 -21.185  0.00  0.00    +0.419 C 
ENDBRANCH  11  17
ENDBRANCH   2   8
BRANCH   1  18
ATOM     18  C   UNL     1      33.503 -10.914 -24.514  0.00  0.00    -0.052 C 
BRANCH  18  19
ATOM     19  C   UNL     1      34.132 -10.104 -23.390  0.00  0.00    +0.088 C 
BRANCH  19  21
ATOM     20  O   UNL     1      31.945 -11.068 -21.546  0.00  0.00    -0.247 OA
ATOM     21  N   UNL     1      33.140  -9.349 -22.675  0.00  0.00    -0.282 N 
ATOM     22  N   UNL     1      31.392  -8.779 -21.338  0.00  0.00    -0.305 N 
ATOM     23  C   UNL     1      32.999  -7.951 -22.704  0.00  0.00    +0.079 A 
ATOM     24  C   UNL     1      32.138  -9.893 -21.820  0.00  0.00    +0.328 A 
ATOM     25  C   UNL     1      31.926  -7.610 -21.883  0.00  0.00    +0.076 A 
ATOM     26  C   UNL     1      33.723  -6.991 -23.381  0.00  0.00    +0.019 C 
ATOM     27  C   UNL     1      31.524  -6.306 -21.695  0.00  0.00    +0.019 C 
ATOM     28  C   UNL     1      33.334  -5.659 -23.205  0.00  0.00    +0.002 C 
ATOM     29  C   UNL     1      32.247  -5.320 -22.372  0.00  0.00    +0.002 C 
ATOM     30  H   UNL     1      30.627  -8.826 -20.722  0.00  0.00    +0.170 HD
ENDBRANCH  19  21
ENDBRANCH  18  19
ENDBRANCH   1  18
TORSDOF 5
ENDMDL
MODEL 3
REMARK VINA RESULT:     -11.2      5.941      8.599
REMARK  Name = 6918248
REMARK  5 active torsions:
REMARK  status: ('A' for Active; 'I' for Inactive)
REMARK    1  A    between atoms: N_1  and  C_18
REMARK    2  A    between atoms: N_2  and  C_8
REMARK    3  A    between atoms: C_11  and  C_17
REMARK    4  A    between atoms: C_18  and  C_19
REMARK    5  A    between atoms: C_19  and  N_21
REMARK                            x       y       z     vdW  Elec       q    Type
REMARK                         _______ _______ _______ _____ _____    ______ ____
ROOT
ATOM      1  N   UNL     1      35.491 -16.544 -22.705  0.00  0.00    +0.391 N 
ATOM      2  N   UNL     1      34.181 -14.007 -22.587  0.00  0.00    -0.312 N 
ATOM      3  C   UNL     1      34.618 -16.107 -23.802  0.00  0.00    -0.055 C 
ATOM      4  C   UNL     1      34.983 -16.027 -21.428  0.00  0.00    -0.055 C 
ATOM      5  C   UNL     1      34.562 -14.580 -23.885  0.00  0.00    +0.068 C 
ATOM      6  C   UNL     1      34.938 -14.498 -21.432  0.00  0.00    +0.068 C 
ATOM      7  H   UNL     1      36.428 -16.171 -22.861  0.00  0.00    -0.079 HD
ENDROOT
BRANCH   2   8
ATOM      8  C   UNL     1      33.649 -12.714 -22.571  0.00  0.00    +0.048 C 
ATOM      9  C   UNL     1      32.765 -12.305 -21.552  0.00  0.00    +0.018 C 
ATOM     10  C   UNL     1      33.981 -11.780 -23.573  0.00  0.00    +0.015 C 
ATOM     11  C   UNL     1      32.236 -11.014 -21.537  0.00  0.00    +0.073 C 
ATOM     12  C   UNL     1      33.452 -10.489 -23.557  0.00  0.00    +0.001 C 
ATOM     13  C   UNL     1      32.579 -10.106 -22.539  0.00  0.00    +0.004 C 
BRANCH  11  17
ATOM     14  F   UNL     1      30.008 -10.984 -20.667  0.00  0.00    -0.166 F 
ATOM     15  F   UNL     1      31.624 -11.123 -19.227  0.00  0.00    -0.166 F 
ATOM     16  F   UNL     1      31.261  -9.252 -20.273  0.00  0.00    -0.166 F 
ATOM     17  C   UNL     1      31.302 -10.605 -20.449  0.00  0.00    +0.419 C 
ENDBRANCH  11  17
ENDBRANCH   2   8
BRANCH   1  18
ATOM     18  C   UNL     1      35.580 -18.003 -22.670  0.00  0.00    -0.052 C 
BRANCH  18  19
ATOM     19  C   UNL     1      34.628 -18.566 -21.626  0.00  0.00    +0.088 C 
BRANCH  19  21
ATOM     20  O   UNL     1      37.561 -18.611 -20.917  0.00  0.00    -0.247 OA
ATOM     21  N   UNL     1      35.325 -19.387 -20.674  0.00  0.00    -0.282 N 
ATOM     22  N   UNL     1      36.959 -20.322 -19.400  0.00  0.00    -0.305 N 
ATOM     23  C   UNL     1      34.741 -20.369 -19.857  0.00  0.00    +0.079 A 
ATOM     24  C   UNL     1      36.724 -19.339 -20.404  0.00  0.00    +0.328 A 
ATOM     25  C   UNL     1      35.748 -20.937 -19.080  0.00  0.00    +0.076 A 
ATOM     26  C   UNL     1      33.429 -20.784 -19.753  0.00  0.00    +0.019 C 
ATOM     27  C   UNL     1      35.501 -21.939 -18.167  0.00  0.00    +0.019 C 
ATOM     28  C   UNL     1      33.153 -21.800 -18.832  0.00  0.00    +0.002 C 
ATOM     29  C   UNL     1      34.177 -22.371 -18.048  0.00  0.00    +0.002 C 
ATOM     30  H   UNL     1      37.832 -20.533 -18.999  0.00  0.00    +0.170 HD
ENDBRANCH  19  21
ENDBRANCH  18  19
ENDBRANCH   1  18
TORSDOF 5
ENDMDL
MODEL 4
REMARK VINA RESULT:     -11.1      6.075      8.734
REMARK  Name = 6918248
REMARK  5 active torsions:
REMARK  status: ('A' for Active; 'I' for Inactive)
REMARK    1  A    between atoms: N_1  and  C_18
REMARK    2  A    between atoms: N_2  and  C_8
REMARK    3  A    between atoms: C_11  and  C_17
REMARK    4  A    between atoms: C_18  and  C_19
REMARK    5  A    between atoms: C_19  and  N_21
REMARK                            x       y       z     vdW  Elec       q    Type
REMARK                         _______ _______ _______ _____ _____    ______ ____
ROOT
ATOM      1  N   UNL     1      35.524 -16.144 -22.232  0.00  0.00    +0.391 N 
ATOM      2  N   UNL     1      33.808 -13.896 -21.823  0.00  0.00    -0.312 N 
ATOM      3  C   UNL     1      34.560 -15.749 -23.266  0.00  0.00    -0.055 C 
ATOM      4  C   UNL     1      34.972 -15.862 -20.901  0.00  0.00    -0.055 C 
ATOM      5  C   UNL     1      34.244 -14.254 -23.179  0.00  0.00    +0.068 C 
ATOM      6  C   UNL     1      34.670 -14.371 -20.736  0.00  0.00    +0.068 C 
ATOM      7  H   UNL     1      36.380 -15.602 -22.354  0.00  0.00    -0.079 HD
ENDROOT
BRANCH   2   8
ATOM      8  C   UNL     1      33.066 -12.722 -21.660  0.00  0.00    +0.048 C 
ATOM      9  C   UNL     1      33.369 -11.562 -22.400  0.00  0.00    +0.018 C 
ATOM     10  C   UNL     1      31.991 -12.664 -20.750  0.00  0.00    +0.015 C 
ATOM     11  C   UNL     1      32.628 -10.392 -22.237  0.00  0.00    +0.073 C 
ATOM     12  C   UNL     1      31.249 -11.495 -20.588  0.00  0.00    +0.001 C 
ATOM     13  C   UNL     1      31.568 -10.358 -21.330  0.00  0.00    +0.004 C 
BRANCH  11  17
ATOM     14  F   UNL     1      33.618  -8.216 -22.308  0.00  0.00    -0.166 F 
ATOM     15  F   UNL     1      33.782  -9.430 -24.097  0.00  0.00    -0.166 F 
ATOM     16  F   UNL     1      31.866  -8.561 -23.548  0.00  0.00    -0.166 F 
ATOM     17  C   UNL     1      32.968  -9.176 -23.030  0.00  0.00    +0.419 C 
ENDBRANCH  11  17
ENDBRANCH   2   8
BRANCH   1  18
ATOM     18  C   UNL     1      35.860 -17.562 -22.359  0.00  0.00    -0.052 C 
BRANCH  18  19
ATOM     19  C   UNL     1      34.800 -18.418 -21.682  0.00  0.00    +0.088 C 
BRANCH  19  21
ATOM     20  O   UNL     1      37.689 -18.723 -20.861  0.00  0.00    -0.247 OA
ATOM     21  N   UNL     1      35.390 -19.317 -20.727  0.00  0.00    -0.282 N 
ATOM     22  N   UNL     1      36.888 -20.415 -19.417  0.00  0.00    -0.305 N 
ATOM     23  C   UNL     1      34.694 -20.267 -19.961  0.00  0.00    +0.079 A 
ATOM     24  C   UNL     1      36.775 -19.391 -20.401  0.00  0.00    +0.328 A 
ATOM     25  C   UNL     1      35.619 -20.936 -19.161  0.00  0.00    +0.076 A 
ATOM     26  C   UNL     1      33.349 -20.575 -19.919  0.00  0.00    +0.019 C 
ATOM     27  C   UNL     1      35.254 -21.936 -18.287  0.00  0.00    +0.019 C 
ATOM     28  C   UNL     1      32.955 -21.588 -19.038  0.00  0.00    +0.002 C 
ATOM     29  C   UNL     1      33.896 -22.261 -18.232  0.00  0.00    +0.002 C 
ATOM     30  H   UNL     1      37.725 -20.707 -18.988  0.00  0.00    +0.170 HD
ENDBRANCH  19  21
ENDBRANCH  18  19
ENDBRANCH   1  18
TORSDOF 5
ENDMDL
MODEL 5
REMARK VINA RESULT:     -11.0      6.308     11.496
REMARK  Name = 6918248
REMARK  5 active torsions:
REMARK  status: ('A' for Active; 'I' for Inactive)
REMARK    1  A    between atoms: N_1  and  C_18
REMARK    2  A    between atoms: N_2  and  C_8
REMARK    3  A    between atoms: C_11  and  C_17
REMARK    4  A    between atoms: C_18  and  C_19
REMARK    5  A    between atoms: C_19  and  N_21
REMARK                            x       y       z     vdW  Elec       q    Type
REMARK                         _______ _______ _______ _____ _____    ______ ____
ROOT
ATOM      1  N   UNL     1      34.453 -16.623 -23.503  0.00  0.00    +0.391 N 
ATOM      2  N   UNL     1      35.257 -18.555 -21.557  0.00  0.00    -0.312 N 
ATOM      3  C   UNL     1      34.564 -18.041 -23.866  0.00  0.00    -0.055 C 
ATOM      4  C   UNL     1      35.466 -16.286 -22.494  0.00  0.00    -0.055 C 
ATOM      5  C   UNL     1      34.349 -18.939 -22.645  0.00  0.00    +0.068 C 
ATOM      6  C   UNL     1      35.282 -17.126 -21.228  0.00  0.00    +0.068 C 
ATOM      7  H   UNL     1      33.528 -16.455 -23.108  0.00  0.00    -0.079 HD
ENDROOT
BRANCH   2   8
ATOM      8  C   UNL     1      35.530 -19.501 -20.563  0.00  0.00    +0.048 C 
ATOM      9  C   UNL     1      34.510 -20.321 -20.042  0.00  0.00    +0.018 C 
ATOM     10  C   UNL     1      36.834 -19.664 -20.054  0.00  0.00    +0.015 C 
ATOM     11  C   UNL     1      34.782 -21.265 -19.052  0.00  0.00    +0.073 C 
ATOM     12  C   UNL     1      37.107 -20.608 -19.065  0.00  0.00    +0.001 C 
ATOM     13  C   UNL     1      36.081 -21.409 -18.563  0.00  0.00    +0.004 C 
BRANCH  11  17
ATOM     14  F   UNL     1      32.456 -21.529 -18.562  0.00  0.00    -0.166 F 
ATOM     15  F   UNL     1      33.538 -23.303 -19.181  0.00  0.00    -0.166 F 
ATOM     16  F   UNL     1      33.878 -22.461 -17.206  0.00  0.00    -0.166 F 
ATOM     17  C   UNL     1      33.686 -22.121 -18.514  0.00  0.00    +0.419 C 
ENDBRANCH  11  17
ENDBRANCH   2   8
BRANCH   1  18
ATOM     18  C   UNL     1      34.605 -15.777 -24.686  0.00  0.00    -0.052 C 
BRANCH  18  19
ATOM     19  C   UNL     1      33.286 -15.101 -25.025  0.00  0.00    +0.088 C 
BRANCH  19  21
ATOM     20  O   UNL     1      34.076 -12.966 -27.008  0.00  0.00    -0.247 OA
ATOM     21  N   UNL     1      33.371 -13.676 -24.850  0.00  0.00    -0.282 N 
ATOM     22  N   UNL     1      33.696 -11.459 -25.226  0.00  0.00    -0.305 N 
ATOM     23  C   UNL     1      33.088 -12.981 -23.662  0.00  0.00    +0.079 A 
ATOM     24  C   UNL     1      33.756 -12.738 -25.850  0.00  0.00    +0.328 A 
ATOM     25  C   UNL     1      33.289 -11.623 -23.901  0.00  0.00    +0.076 A 
ATOM     26  C   UNL     1      32.679 -13.443 -22.428  0.00  0.00    +0.019 C 
ATOM     27  C   UNL     1      33.095 -10.665 -22.931  0.00  0.00    +0.019 C 
ATOM     28  C   UNL     1      32.475 -12.489 -21.426  0.00  0.00    +0.002 C 
ATOM     29  C   UNL     1      32.681 -11.115 -21.674  0.00  0.00    +0.002 C 
ATOM     30  H   UNL     1      33.906 -10.600 -25.659  0.00  0.00    +0.170 HD
ENDBRANCH  19  21
ENDBRANCH  18  19
ENDBRANCH   1  18
TORSDOF 5
ENDMDL
MODEL 6
REMARK VINA RESULT:     -11.0      9.500     12.835
REMARK  Name = 6918248
REMARK  5 active torsions:
REMARK  status: ('A' for Active; 'I' for Inactive)
REMARK    1  A    between atoms: N_1  and  C_18
REMARK    2  A    between atoms: N_2  and  C_8
REMARK    3  A    between atoms: C_11  and  C_17
REMARK    4  A    between atoms: C_18  and  C_19
REMARK    5  A    between atoms: C_19  and  N_21
REMARK                            x       y       z     vdW  Elec       q    Type
REMARK                         _______ _______ _______ _____ _____    ______ ____
ROOT
ATOM      1  N   UNL     1      33.358 -12.394 -22.488  0.00  0.00    +0.391 N 
ATOM      2  N   UNL     1      32.648  -9.629 -22.373  0.00  0.00    -0.312 N 
ATOM      3  C   UNL     1      33.576 -11.523 -23.649  0.00  0.00    -0.055 C 
ATOM      4  C   UNL     1      32.157 -11.964 -21.760  0.00  0.00    -0.055 C 
ATOM      5  C   UNL     1      33.768 -10.068 -23.216  0.00  0.00    +0.068 C 
ATOM      6  C   UNL     1      32.302 -10.523 -21.264  0.00  0.00    +0.068 C 
ATOM      7  H   UNL     1      34.163 -12.321 -21.865  0.00  0.00    -0.079 HD
ENDROOT
BRANCH   2   8
ATOM      8  C   UNL     1      32.411  -8.255 -22.258  0.00  0.00    +0.048 C 
ATOM      9  C   UNL     1      32.948  -7.345 -23.190  0.00  0.00    +0.018 C 
ATOM     10  C   UNL     1      31.627  -7.739 -21.206  0.00  0.00    +0.015 C 
ATOM     11  C   UNL     1      32.711  -5.975 -23.075  0.00  0.00    +0.073 C 
ATOM     12  C   UNL     1      31.390  -6.370 -21.091  0.00  0.00    +0.001 C 
ATOM     13  C   UNL     1      31.932  -5.487 -22.025  0.00  0.00    +0.004 C 
BRANCH  11  17
ATOM     14  F   UNL     1      32.863  -5.254 -25.350  0.00  0.00    -0.166 F 
ATOM     15  F   UNL     1      32.997  -3.721 -23.822  0.00  0.00    -0.166 F 
ATOM     16  F   UNL     1      34.653  -5.096 -24.127  0.00  0.00    -0.166 F 
ATOM     17  C   UNL     1      33.291  -5.031 -24.073  0.00  0.00    +0.419 C 
ENDBRANCH  11  17
ENDBRANCH   2   8
BRANCH   1  18
ATOM     18  C   UNL     1      33.231 -13.789 -22.909  0.00  0.00    -0.052 C 
BRANCH  18  19
ATOM     19  C   UNL     1      34.597 -14.367 -23.245  0.00  0.00    +0.088 C 
BRANCH  19  21
ATOM     20  O   UNL     1      33.665 -15.733 -25.769  0.00  0.00    -0.247 OA
ATOM     21  N   UNL     1      34.509 -15.770 -23.546  0.00  0.00    -0.282 N 
ATOM     22  N   UNL     1      34.140 -17.741 -24.615  0.00  0.00    -0.305 N 
ATOM     23  C   UNL     1      34.859 -16.816 -22.676  0.00  0.00    +0.079 A 
ATOM     24  C   UNL     1      34.053 -16.328 -24.775  0.00  0.00    +0.328 A 
ATOM     25  C   UNL     1      34.630 -18.020 -23.338  0.00  0.00    +0.076 A 
ATOM     26  C   UNL     1      35.348 -16.784 -21.386  0.00  0.00    +0.019 C 
ATOM     27  C   UNL     1      34.875 -19.244 -22.753  0.00  0.00    +0.019 C 
ATOM     28  C   UNL     1      35.604 -18.014 -20.771  0.00  0.00    +0.002 C 
ATOM     29  C   UNL     1      35.370 -19.230 -21.447  0.00  0.00    +0.002 C 
ATOM     30  H   UNL     1      33.895 -18.410 -25.293  0.00  0.00    +0.170 HD
ENDBRANCH  19  21
ENDBRANCH  18  19
ENDBRANCH   1  18
TORSDOF 5
ENDMDL
MODEL 7
REMARK VINA RESULT:     -10.9      5.478     10.466
REMARK  Name = 6918248
REMARK  5 active torsions:
REMARK  status: ('A' for Active; 'I' for Inactive)
REMARK    1  A    between atoms: N_1  and  C_18
REMARK    2  A    between atoms: N_2  and  C_8
REMARK    3  A    between atoms: C_11  and  C_17
REMARK    4  A    between atoms: C_18  and  C_19
REMARK    5  A    between atoms: C_19  and  N_21
REMARK                            x       y       z     vdW  Elec       q    Type
REMARK                         _______ _______ _______ _____ _____    ______ ____
ROOT
ATOM      1  N   UNL     1      34.792 -18.079 -22.553  0.00  0.00    +0.391 N 
ATOM      2  N   UNL     1      35.265 -19.919 -20.418  0.00  0.00    -0.312 N 
ATOM      3  C   UNL     1      33.945 -19.267 -22.395  0.00  0.00    -0.055 C 
ATOM      4  C   UNL     1      36.163 -18.384 -22.122  0.00  0.00    -0.055 C 
ATOM      5  C   UNL     1      33.904 -19.724 -20.935  0.00  0.00    +0.068 C 
ATOM      6  C   UNL     1      36.196 -18.812 -20.654  0.00  0.00    +0.068 C 
ATOM      7  H   UNL     1      34.423 -17.330 -21.966  0.00  0.00    -0.079 HD
ENDROOT
BRANCH   2   8
ATOM      8  C   UNL     1      35.431 -20.741 -19.298  0.00  0.00    +0.048 C 
ATOM      9  C   UNL     1      34.354 -21.488 -18.780  0.00  0.00    +0.018 C 
ATOM     10  C   UNL     1      36.680 -20.847 -18.655  0.00  0.00    +0.015 C 
ATOM     11  C   UNL     1      34.521 -22.307 -17.663  0.00  0.00    +0.073 C 
ATOM     12  C   UNL     1      36.847 -21.667 -17.539  0.00  0.00    +0.001 C 
ATOM     13  C   UNL     1      35.767 -22.397 -17.042  0.00  0.00    +0.004 C 
BRANCH  11  17
ATOM     14  F   UNL     1      32.162 -22.464 -17.296  0.00  0.00    -0.166 F 
ATOM     15  F   UNL     1      33.217 -24.311 -17.718  0.00  0.00    -0.166 F 
ATOM     16  F   UNL     1      33.471 -23.334 -15.793  0.00  0.00    -0.166 F 
ATOM     17  C   UNL     1      33.367 -23.087 -17.132  0.00  0.00    +0.419 C 
ENDBRANCH  11  17
ENDBRANCH   2   8
BRANCH   1  18
ATOM     18  C   UNL     1      34.780 -17.620 -23.941  0.00  0.00    -0.052 C 
BRANCH  18  19
ATOM     19  C   UNL     1      35.374 -16.224 -24.041  0.00  0.00    +0.088 C 
BRANCH  19  21
ATOM     20  O   UNL     1      33.592 -15.100 -26.203  0.00  0.00    -0.247 OA
ATOM     21  N   UNL     1      34.354 -15.215 -23.952  0.00  0.00    -0.282 N 
ATOM     22  N   UNL     1      32.692 -13.757 -24.479  0.00  0.00    -0.305 N 
ATOM     23  C   UNL     1      33.979 -14.532 -22.783  0.00  0.00    +0.079 A 
ATOM     24  C   UNL     1      33.556 -14.744 -25.035  0.00  0.00    +0.328 A 
ATOM     25  C   UNL     1      32.960 -13.641 -23.114  0.00  0.00    +0.076 A 
ATOM     26  C   UNL     1      34.455 -14.636 -21.492  0.00  0.00    +0.019 C 
ATOM     27  C   UNL     1      32.369 -12.815 -22.183  0.00  0.00    +0.019 C 
ATOM     28  C   UNL     1      33.870 -13.808 -20.529  0.00  0.00    +0.002 C 
ATOM     29  C   UNL     1      32.839 -12.908 -20.870  0.00  0.00    +0.002 C 
ATOM     30  H   UNL     1      32.016 -13.242 -24.976  0.00  0.00    +0.170 HD
ENDBRANCH  19  21
ENDBRANCH  18  19
ENDBRANCH   1  18
TORSDOF 5
ENDMDL
MODEL 8
REMARK VINA RESULT:     -10.7      4.827     10.131
REMARK  Name = 6918248
REMARK  5 active torsions:
REMARK  status: ('A' for Active; 'I' for Inactive)
REMARK    1  A    between atoms: N_1  and  C_18
REMARK    2  A    between atoms: N_2  and  C_8
REMARK    3  A    between atoms: C_11  and  C_17
REMARK    4  A    between atoms: C_18  and  C_19
REMARK    5  A    between atoms: C_19  and  N_21
REMARK                            x       y       z     vdW  Elec       q    Type
REMARK                         _______ _______ _______ _____ _____    ______ ____
ROOT
ATOM      1  N   UNL     1      34.753 -20.208 -21.024  0.00  0.00    +0.391 N 
ATOM      2  N   UNL     1      35.435 -21.268 -18.460  0.00  0.00    -0.312 N 
ATOM      3  C   UNL     1      36.009 -19.820 -20.370  0.00  0.00    -0.055 C 
ATOM      4  C   UNL     1      33.713 -20.435 -20.012  0.00  0.00    -0.055 C 
ATOM      5  C   UNL     1      36.493 -20.913 -19.416  0.00  0.00    +0.068 C 
ATOM      6  C   UNL     1      34.121 -21.549 -19.045  0.00  0.00    +0.068 C 
ATOM      7  H   UNL     1      34.904 -21.076 -21.539  0.00  0.00    -0.079 HD
ENDROOT
BRANCH   2   8
ATOM      8  C   UNL     1      35.812 -21.891 -17.265  0.00  0.00    +0.048 C 
ATOM      9  C   UNL     1      34.876 -22.608 -16.493  0.00  0.00    +0.018 C 
ATOM     10  C   UNL     1      37.140 -21.821 -16.797  0.00  0.00    +0.015 C 
ATOM     11  C   UNL     1      35.252 -23.229 -15.302  0.00  0.00    +0.073 C 
ATOM     12  C   UNL     1      37.516 -22.443 -15.607  0.00  0.00    +0.001 C 
ATOM     13  C   UNL     1      36.572 -23.146 -14.859  0.00  0.00    +0.004 C 
BRANCH  11  17
ATOM     14  F   UNL     1      34.077 -23.496 -13.236  0.00  0.00    -0.166 F 
ATOM     15  F   UNL     1      32.994 -23.975 -15.053  0.00  0.00    -0.166 F 
ATOM     16  F   UNL     1      34.570 -25.298 -14.350  0.00  0.00    -0.166 F 
ATOM     17  C   UNL     1      34.244 -23.981 -14.502  0.00  0.00    +0.419 C 
ENDBRANCH  11  17
ENDBRANCH   2   8
BRANCH   1  18
ATOM     18  C   UNL     1      34.329 -19.180 -21.973  0.00  0.00    -0.052 C 
BRANCH  18  19
ATOM     19  C   UNL     1      35.478 -18.228 -22.270  0.00  0.00    +0.088 C 
BRANCH  19  21
ATOM     20  O   UNL     1      35.405 -16.411 -19.861  0.00  0.00    -0.247 OA
ATOM     21  N   UNL     1      35.057 -16.857 -22.172  0.00  0.00    -0.282 N 
ATOM     22  N   UNL     1      34.562 -14.791 -21.364  0.00  0.00    -0.305 N 
ATOM     23  C   UNL     1      34.578 -16.071 -23.233  0.00  0.00    +0.079 A 
ATOM     24  C   UNL     1      35.056 -16.072 -20.983  0.00  0.00    +0.328 A 
ATOM     25  C   UNL     1      34.277 -14.807 -22.730  0.00  0.00    +0.076 A 
ATOM     26  C   UNL     1      34.394 -16.380 -24.566  0.00  0.00    +0.019 C 
ATOM     27  C   UNL     1      33.782 -13.794 -23.523  0.00  0.00    +0.019 C 
ATOM     28  C   UNL     1      33.892 -15.367 -25.390  0.00  0.00    +0.002 C 
ATOM     29  C   UNL     1      33.590 -14.089 -24.875  0.00  0.00    +0.002 C 
ATOM     30  H   UNL     1      34.442 -14.022 -20.763  0.00  0.00    +0.170 HD
ENDBRANCH  19  21
ENDBRANCH  18  19
ENDBRANCH   1  18
TORSDOF 5
ENDMDL
MODEL 9
REMARK VINA RESULT:     -10.7      5.233     10.025
REMARK  Name = 6918248
REMARK  5 active torsions:
REMARK  status: ('A' for Active; 'I' for Inactive)
REMARK    1  A    between atoms: N_1  and  C_18
REMARK    2  A    between atoms: N_2  and  C_8
REMARK    3  A    between atoms: C_11  and  C_17
REMARK    4  A    between atoms: C_18  and  C_19
REMARK    5  A    between atoms: C_19  and  N_21
REMARK                            x       y       z     vdW  Elec       q    Type
REMARK                         _______ _______ _______ _____ _____    ______ ____
ROOT
ATOM      1  N   UNL     1      34.618 -20.331 -20.969  0.00  0.00    +0.391 N 
ATOM      2  N   UNL     1      35.389 -21.342 -18.410  0.00  0.00    -0.312 N 
ATOM      3  C   UNL     1      35.865 -19.881 -20.337  0.00  0.00    -0.055 C 
ATOM      4  C   UNL     1      33.606 -20.599 -19.939  0.00  0.00    -0.055 C 
ATOM      5  C   UNL     1      36.413 -20.946 -19.385  0.00  0.00    +0.068 C 
ATOM      6  C   UNL     1      34.080 -21.687 -18.973  0.00  0.00    +0.068 C 
ATOM      7  H   UNL     1      34.801 -21.194 -21.482  0.00  0.00    -0.079 HD
ENDROOT
BRANCH   2   8
ATOM      8  C   UNL     1      35.812 -21.939 -17.218  0.00  0.00    +0.048 C 
ATOM      9  C   UNL     1      34.913 -22.664 -16.410  0.00  0.00    +0.018 C 
ATOM     10  C   UNL     1      37.151 -21.835 -16.789  0.00  0.00    +0.015 C 
ATOM     11  C   UNL     1      35.336 -23.260 -15.221  0.00  0.00    +0.073 C 
ATOM     12  C   UNL     1      37.574 -22.432 -15.602  0.00  0.00    +0.001 C 
ATOM     13  C   UNL     1      36.667 -23.144 -14.817  0.00  0.00    +0.004 C 
BRANCH  11  17
ATOM     14  F   UNL     1      34.657 -25.351 -14.281  0.00  0.00    -0.166 F 
ATOM     15  F   UNL     1      34.290 -23.574 -13.094  0.00  0.00    -0.166 F 
ATOM     16  F   UNL     1      33.092 -23.960 -14.866  0.00  0.00    -0.166 F 
ATOM     17  C   UNL     1      34.367 -24.021 -14.382  0.00  0.00    +0.419 C 
ENDBRANCH  11  17
ENDBRANCH   2   8
BRANCH   1  18
ATOM     18  C   UNL     1      34.133 -19.329 -21.917  0.00  0.00    -0.052 C 
BRANCH  18  19
ATOM     19  C   UNL     1      35.300 -18.559 -22.516  0.00  0.00    +0.088 C 
BRANCH  19  21
ATOM     20  O   UNL     1      34.483 -17.561 -25.245  0.00  0.00    -0.247 OA
ATOM     21  N   UNL     1      34.898 -17.240 -22.924  0.00  0.00    -0.282 N 
ATOM     22  N   UNL     1      34.211 -15.471 -24.174  0.00  0.00    -0.305 N 
ATOM     23  C   UNL     1      34.807 -16.116 -22.086  0.00  0.00    +0.079 A 
ATOM     24  C   UNL     1      34.527 -16.858 -24.246  0.00  0.00    +0.328 A 
ATOM     25  C   UNL     1      34.386 -15.036 -22.859  0.00  0.00    +0.076 A 
ATOM     26  C   UNL     1      35.061 -15.982 -20.737  0.00  0.00    +0.019 C 
ATOM     27  C   UNL     1      34.197 -13.778 -22.331  0.00  0.00    +0.019 C 
ATOM     28  C   UNL     1      34.876 -14.713 -20.178  0.00  0.00    +0.002 C 
ATOM     29  C   UNL     1      34.449 -13.624 -20.965  0.00  0.00    +0.002 C 
ATOM     30  H   UNL     1      33.917 -14.910 -24.928  0.00  0.00    +0.170 HD
ENDBRANCH  19  21
ENDBRANCH  18  19
ENDBRANCH   1  18
TORSDOF 5
ENDMDL
