MODEL 1
REMARK VINA RESULT:     -11.8      0.000      0.000
REMARK  Name = 216210
REMARK  9 active torsions:
REMARK  status: ('A' for Active; 'I' for Inactive)
REMARK    1  A    between atoms: C_4  and  C_26
REMARK    2  A    between atoms: C_6  and  C_13
REMARK    3  A    between atoms: N_12  and  C_20
REMARK    4  A    between atoms: C_20  and  C_21
REMARK    5  A    between atoms: C_21  and  C_23
REMARK    6  A    between atoms: C_23  and  O_24
REMARK    7  A    between atoms: C_26  and  N_27
REMARK    8  A    between atoms: N_27  and  C_29
REMARK    9  A    between atoms: C_34  and  C_37
REMARK                            x       y       z     vdW  Elec       q    Type
REMARK                         _______ _______ _______ _____ _____    ______ ____
ROOT
ATOM      1  N   UNL     1      34.134 -16.332 -24.072  0.00  0.00    -0.261 N 
ATOM      2  N   UNL     1      35.158 -15.597 -22.242  0.00  0.00    -0.388 NA
ATOM      3  C   UNL     1      33.959 -14.972 -23.956  0.00  0.00    +0.079 C 
ATOM      4  C   UNL     1      34.856 -16.673 -23.029  0.00  0.00    +0.184 C 
ATOM      5  C   UNL     1      34.593 -14.488 -22.815  0.00  0.00    +0.146 C 
ATOM      6  C   UNL     1      33.888 -12.264 -23.286  0.00  0.00    +0.039 C 
ATOM      7  C   UNL     1      34.581 -13.142 -22.445  0.00  0.00    +0.034 C 
ATOM      8  C   UNL     1      33.266 -14.076 -24.788  0.00  0.00    -0.004 C 
ATOM      9  C   UNL     1      33.242 -12.721 -24.437  0.00  0.00    +0.058 C 
ATOM     10  C   UNL     1      33.623 -17.176 -25.126  0.00  0.00    +0.120 C 
ENDROOT
BRANCH   6  13
ATOM     11  O   UNL     1      34.872 -10.202 -23.184  0.00  0.00    -0.270 OA
ATOM     12  N   UNL     1      32.646 -10.312 -22.403  0.00  0.00    -0.240 N 
ATOM     13  C   UNL     1      33.840 -10.848 -22.953  0.00  0.00    +0.250 C 
ATOM     14  N   UNL     1      33.127  -8.180 -23.415  0.00  0.00    -0.229 NA
ATOM     15  C   UNL     1      32.295  -8.926 -22.656  0.00  0.00    +0.138 C 
ATOM     16  C   UNL     1      31.120  -8.453 -22.096  0.00  0.00    +0.035 C 
ATOM     17  C   UNL     1      30.775  -7.126 -22.331  0.00  0.00    +0.004 C 
ATOM     18  C   UNL     1      32.760  -6.895 -23.622  0.00  0.00    +0.100 C 
ATOM     19  C   UNL     1      31.606  -6.326 -23.109  0.00  0.00    +0.021 C 
BRANCH  12  20
ATOM     20  C   UNL     1      31.760 -11.150 -21.579  0.00  0.00    +0.112 C 
BRANCH  20  21
ATOM     21  C   UNL     1      32.311 -11.354 -20.174  0.00  0.00    +0.131 C 
BRANCH  21  23
ATOM     22  O   UNL     1      32.748  -9.516 -18.633  0.00  0.00    -0.250 OA
ATOM     23  C   UNL     1      31.951 -10.227 -19.228  0.00  0.00    +0.316 C 
BRANCH  23  24
ATOM     24  O   UNL     1      30.604 -10.085 -19.119  0.00  0.00    -0.480 OA
ATOM     25  H   UNL     1      30.246  -9.472 -18.507  0.00  0.00    +0.295 HD
ENDBRANCH  23  24
ENDBRANCH  21  23
ENDBRANCH  20  21
ENDBRANCH  12  20
ENDBRANCH   6  13
BRANCH   4  26
ATOM     26  C   UNL     1      35.281 -18.063 -22.762  0.00  0.00    +0.164 C 
BRANCH  26  27
ATOM     27  N   UNL     1      35.645 -18.344 -21.379  0.00  0.00    -0.326 N 
ATOM     28  H   UNL     1      36.334 -17.784 -20.952  0.00  0.00    +0.147 HD
BRANCH  27  29
ATOM     29  C   UNL     1      35.075 -19.357 -20.639  0.00  0.00    +0.045 C 
ATOM     30  C   UNL     1      35.884 -20.238 -19.920  0.00  0.00    +0.014 C 
ATOM     31  C   UNL     1      33.687 -19.504 -20.611  0.00  0.00    +0.014 C 
ATOM     32  C   UNL     1      35.306 -21.264 -19.174  0.00  0.00    +0.004 C 
ATOM     33  C   UNL     1      33.110 -20.530 -19.864  0.00  0.00    +0.004 C 
ATOM     34  C   UNL     1      33.919 -21.411 -19.145  0.00  0.00    +0.031 C 
BRANCH  34  37
ATOM     35  N   UNL     1      32.171 -22.264 -17.602  0.00  0.00    -0.343 N 
ATOM     36  N   UNL     1      33.859 -23.684 -18.372  0.00  0.00    -0.285 NA
ATOM     37  C   UNL     1      33.317 -22.481 -18.366  0.00  0.00    +0.117 C 
ATOM     38  H   UNL     1      31.779 -23.004 -17.082  0.00  0.00    +0.144 HD
ATOM     39  H   UNL     1      31.753 -21.374 -17.583  0.00  0.00    +0.144 HD
ATOM     40  H   UNL     1      33.454 -24.410 -17.845  0.00  0.00    +0.188 HD
ENDBRANCH  34  37
ENDBRANCH  27  29
ENDBRANCH  26  27
ENDBRANCH   4  26
TORSDOF 9
ENDMDL
MODEL 2
REMARK VINA RESULT:     -11.0      6.047     12.979
REMARK  Name = 216210
REMARK  9 active torsions:
REMARK  status: ('A' for Active; 'I' for Inactive)
REMARK    1  A    between atoms: C_4  and  C_26
REMARK    2  A    between atoms: C_6  and  C_13
REMARK    3  A    between atoms: N_12  and  C_20
REMARK    4  A    between atoms: C_20  and  C_21
REMARK    5  A    between atoms: C_21  and  C_23
REMARK    6  A    between atoms: C_23  and  O_24
REMARK    7  A    between atoms: C_26  and  N_27
REMARK    8  A    between atoms: N_27  and  C_29
REMARK    9  A    between atoms: C_34  and  C_37
REMARK                            x       y       z     vdW  Elec       q    Type
REMARK                         _______ _______ _______ _____ _____    ______ ____
ROOT
ATOM      1  N   UNL     1      33.985 -20.876 -19.494  0.00  0.00    -0.261 N 
ATOM      2  N   UNL     1      36.118 -20.880 -18.868  0.00  0.00    -0.388 NA
ATOM      3  C   UNL     1      34.148 -21.697 -18.401  0.00  0.00    +0.079 C 
ATOM      4  C   UNL     1      35.185 -20.405 -19.747  0.00  0.00    +0.184 C 
ATOM      5  C   UNL     1      35.477 -21.716 -17.990  0.00  0.00    +0.146 C 
ATOM      6  C   UNL     1      34.978 -23.223 -16.217  0.00  0.00    +0.039 C 
ATOM      7  C   UNL     1      35.933 -22.465 -16.904  0.00  0.00    +0.034 C 
ATOM      8  C   UNL     1      33.202 -22.465 -17.701  0.00  0.00    -0.004 C 
ATOM      9  C   UNL     1      33.637 -23.224 -16.606  0.00  0.00    +0.058 C 
ATOM     10  C   UNL     1      32.750 -20.609 -20.191  0.00  0.00    +0.120 C 
ENDROOT
BRANCH   6  13
ATOM     11  O   UNL     1      36.271 -24.870 -15.297  0.00  0.00    -0.270 OA
ATOM     12  N   UNL     1      34.784 -23.789 -13.814  0.00  0.00    -0.240 N 
ATOM     13  C   UNL     1      35.392 -24.024 -15.075  0.00  0.00    +0.250 C 
ATOM     14  N   UNL     1      36.807 -24.473 -12.701  0.00  0.00    -0.229 NA
ATOM     15  C   UNL     1      35.536 -24.028 -12.596  0.00  0.00    +0.138 C 
ATOM     16  C   UNL     1      34.895 -23.783 -11.392  0.00  0.00    +0.035 C 
ATOM     17  C   UNL     1      35.606 -24.010 -10.219  0.00  0.00    +0.004 C 
ATOM     18  C   UNL     1      37.467 -24.683 -11.539  0.00  0.00    +0.100 C 
ATOM     19  C   UNL     1      36.918 -24.468 -10.286  0.00  0.00    +0.021 C 
BRANCH  12  20
ATOM     20  C   UNL     1      33.397 -23.305 -13.732  0.00  0.00    +0.112 C 
BRANCH  20  21
ATOM     21  C   UNL     1      32.402 -24.445 -13.558  0.00  0.00    +0.131 C 
BRANCH  21  23
ATOM     22  O   UNL     1      30.421 -23.034 -13.727  0.00  0.00    -0.250 OA
ATOM     23  C   UNL     1      31.011 -23.966 -13.198  0.00  0.00    +0.316 C 
BRANCH  23  24
ATOM     24  O   UNL     1      30.474 -24.714 -12.199  0.00  0.00    -0.480 OA
ATOM     25  H   UNL     1      31.017 -25.023 -11.501  0.00  0.00    +0.295 HD
ENDBRANCH  23  24
ENDBRANCH  21  23
ENDBRANCH  20  21
ENDBRANCH  12  20
ENDBRANCH   6  13
BRANCH   4  26
ATOM     26  C   UNL     1      35.467 -19.468 -20.855  0.00  0.00    +0.164 C 
BRANCH  26  27
ATOM     27  N   UNL     1      35.773 -18.102 -20.449  0.00  0.00    -0.326 N 
ATOM     28  H   UNL     1      36.330 -17.965 -19.649  0.00  0.00    +0.147 HD
BRANCH  27  29
ATOM     29  C   UNL     1      35.320 -16.993 -21.129  0.00  0.00    +0.045 C 
ATOM     30  C   UNL     1      34.953 -15.844 -20.427  0.00  0.00    +0.014 C 
ATOM     31  C   UNL     1      35.224 -17.019 -22.521  0.00  0.00    +0.014 C 
ATOM     32  C   UNL     1      34.492 -14.724 -21.116  0.00  0.00    +0.004 C 
ATOM     33  C   UNL     1      34.764 -15.898 -23.210  0.00  0.00    +0.004 C 
ATOM     34  C   UNL     1      34.397 -14.749 -22.507  0.00  0.00    +0.031 C 
BRANCH  34  37
ATOM     35  N   UNL     1      32.869 -13.672 -24.140  0.00  0.00    -0.343 N 
ATOM     36  N   UNL     1      34.479 -12.404 -23.019  0.00  0.00    -0.285 NA
ATOM     37  C   UNL     1      33.916 -13.580 -23.226  0.00  0.00    +0.117 C 
ATOM     38  H   UNL     1      32.559 -12.867 -24.616  0.00  0.00    +0.144 HD
ATOM     39  H   UNL     1      32.437 -14.540 -24.311  0.00  0.00    +0.144 HD
ATOM     40  H   UNL     1      34.156 -11.610 -23.504  0.00  0.00    +0.188 HD
ENDBRANCH  34  37
ENDBRANCH  27  29
ENDBRANCH  26  27
ENDBRANCH   4  26
TORSDOF 9
ENDMDL
MODEL 3
REMARK VINA RESULT:     -10.2      3.332     11.072
REMARK  Name = 216210
REMARK  9 active torsions:
REMARK  status: ('A' for Active; 'I' for Inactive)
REMARK    1  A    between atoms: C_4  and  C_26
REMARK    2  A    between atoms: C_6  and  C_13
REMARK    3  A    between atoms: N_12  and  C_20
REMARK    4  A    between atoms: C_20  and  C_21
REMARK    5  A    between atoms: C_21  and  C_23
REMARK    6  A    between atoms: C_23  and  O_24
REMARK    7  A    between atoms: C_26  and  N_27
REMARK    8  A    between atoms: N_27  and  C_29
REMARK    9  A    between atoms: C_34  and  C_37
REMARK                            x       y       z     vdW  Elec       q    Type
REMARK                         _______ _______ _______ _____ _____    ______ ____
ROOT
ATOM      1  N   UNL     1      33.436 -12.829 -22.827  0.00  0.00    -0.261 N 
ATOM      2  N   UNL     1      33.065 -13.606 -20.778  0.00  0.00    -0.388 NA
ATOM      3  C   UNL     1      34.119 -14.011 -22.647  0.00  0.00    +0.079 C 
ATOM      4  C   UNL     1      32.816 -12.617 -21.688  0.00  0.00    +0.184 C 
ATOM      5  C   UNL     1      33.901 -14.517 -21.369  0.00  0.00    +0.146 C 
ATOM      6  C   UNL     1      35.296 -16.397 -21.804  0.00  0.00    +0.039 C 
ATOM      7  C   UNL     1      34.471 -15.706 -20.909  0.00  0.00    +0.034 C 
ATOM      8  C   UNL     1      34.951 -14.717 -23.532  0.00  0.00    -0.004 C 
ATOM      9  C   UNL     1      35.532 -15.913 -23.093  0.00  0.00    +0.058 C 
ATOM     10  C   UNL     1      33.421 -12.021 -24.022  0.00  0.00    +0.120 C 
ENDROOT
BRANCH   6  13
ATOM     11  O   UNL     1      37.135 -17.591 -21.155  0.00  0.00    -0.270 OA
ATOM     12  N   UNL     1      35.111 -18.805 -21.257  0.00  0.00    -0.240 N 
ATOM     13  C   UNL     1      35.917 -17.643 -21.382  0.00  0.00    +0.250 C 
ATOM     14  N   UNL     1      36.552 -19.628 -19.512  0.00  0.00    -0.229 NA
ATOM     15  C   UNL     1      35.458 -19.821 -20.281  0.00  0.00    +0.138 C 
ATOM     16  C   UNL     1      34.639 -20.935 -20.200  0.00  0.00    +0.035 C 
ATOM     17  C   UNL     1      34.963 -21.915 -19.268  0.00  0.00    +0.004 C 
ATOM     18  C   UNL     1      36.837 -20.601 -18.618  0.00  0.00    +0.100 C 
ATOM     19  C   UNL     1      36.082 -21.752 -18.458  0.00  0.00    +0.021 C 
BRANCH  12  20
ATOM     20  C   UNL     1      33.926 -18.987 -22.110  0.00  0.00    +0.112 C 
BRANCH  20  21
ATOM     21  C   UNL     1      34.301 -19.369 -23.536  0.00  0.00    +0.131 C 
BRANCH  21  23
ATOM     22  O   UNL     1      32.316 -18.914 -24.877  0.00  0.00    -0.250 OA
ATOM     23  C   UNL     1      33.472 -18.648 -24.578  0.00  0.00    +0.316 C 
BRANCH  23  24
ATOM     24  O   UNL     1      34.173 -17.638 -25.156  0.00  0.00    -0.480 OA
ATOM     25  H   UNL     1      34.545 -17.753 -26.008  0.00  0.00    +0.295 HD
ENDBRANCH  23  24
ENDBRANCH  21  23
ENDBRANCH  20  21
ENDBRANCH  12  20
ENDBRANCH   6  13
BRANCH   4  26
ATOM     26  C   UNL     1      31.955 -11.441 -21.445  0.00  0.00    +0.164 C 
BRANCH  26  27
ATOM     27  N   UNL     1      32.663 -10.210 -21.118  0.00  0.00    -0.326 N 
ATOM     28  H   UNL     1      33.522 -10.277 -20.640  0.00  0.00    +0.147 HD
BRANCH  27  29
ATOM     29  C   UNL     1      32.189  -8.958 -21.441  0.00  0.00    +0.045 C 
ATOM     30  C   UNL     1      32.050  -7.986 -20.450  0.00  0.00    +0.014 C 
ATOM     31  C   UNL     1      31.846  -8.661 -22.761  0.00  0.00    +0.014 C 
ATOM     32  C   UNL     1      31.568  -6.720 -20.777  0.00  0.00    +0.004 C 
ATOM     33  C   UNL     1      31.365  -7.394 -23.088  0.00  0.00    +0.004 C 
ATOM     34  C   UNL     1      31.225  -6.423 -22.096  0.00  0.00    +0.031 C 
BRANCH  34  37
ATOM     35  N   UNL     1      29.957  -4.363 -21.539  0.00  0.00    -0.343 N 
ATOM     36  N   UNL     1      30.988  -4.583 -23.623  0.00  0.00    -0.285 NA
ATOM     37  C   UNL     1      30.723  -5.102 -22.438  0.00  0.00    +0.117 C 
ATOM     38  H   UNL     1      29.626  -3.470 -21.791  0.00  0.00    +0.144 HD
ATOM     39  H   UNL     1      29.745  -4.733 -20.651  0.00  0.00    +0.144 HD
ATOM     40  H   UNL     1      30.649  -3.689 -23.857  0.00  0.00    +0.188 HD
ENDBRANCH  34  37
ENDBRANCH  27  29
ENDBRANCH  26  27
ENDBRANCH   4  26
TORSDOF 9
ENDMDL
MODEL 4
REMARK VINA RESULT:     -10.1      3.774     10.693
REMARK  Name = 216210
REMARK  9 active torsions:
REMARK  status: ('A' for Active; 'I' for Inactive)
REMARK    1  A    between atoms: C_4  and  C_26
REMARK    2  A    between atoms: C_6  and  C_13
REMARK    3  A    between atoms: N_12  and  C_20
REMARK    4  A    between atoms: C_20  and  C_21
REMARK    5  A    between atoms: C_21  and  C_23
REMARK    6  A    between atoms: C_23  and  O_24
REMARK    7  A    between atoms: C_26  and  N_27
REMARK    8  A    between atoms: N_27  and  C_29
REMARK    9  A    between atoms: C_34  and  C_37
REMARK                            x       y       z     vdW  Elec       q    Type
REMARK                         _______ _______ _______ _____ _____    ______ ____
ROOT
ATOM      1  N   UNL     1      34.153 -15.537 -23.732  0.00  0.00    -0.261 N 
ATOM      2  N   UNL     1      34.464 -14.971 -21.606  0.00  0.00    -0.388 NA
ATOM      3  C   UNL     1      34.782 -16.564 -23.065  0.00  0.00    +0.079 C 
ATOM      4  C   UNL     1      33.979 -14.599 -22.829  0.00  0.00    +0.184 C 
ATOM      5  C   UNL     1      34.988 -16.233 -21.729  0.00  0.00    +0.146 C 
ATOM      6  C   UNL     1      36.026 -18.331 -21.299  0.00  0.00    +0.039 C 
ATOM      7  C   UNL     1      35.605 -17.087 -20.815  0.00  0.00    +0.034 C 
ATOM      8  C   UNL     1      35.211 -17.817 -23.536  0.00  0.00    -0.004 C 
ATOM      9  C   UNL     1      35.833 -18.691 -22.635  0.00  0.00    +0.058 C 
ATOM     10  C   UNL     1      33.777 -15.522 -25.126  0.00  0.00    +0.120 C 
ENDROOT
BRANCH   6  13
ATOM     11  O   UNL     1      37.877 -19.054 -20.166  0.00  0.00    -0.270 OA
ATOM     12  N   UNL     1      35.914 -20.327 -19.838  0.00  0.00    -0.240 N 
ATOM     13  C   UNL     1      36.676 -19.265 -20.393  0.00  0.00    +0.250 C 
ATOM     14  N   UNL     1      37.293 -20.296 -17.864  0.00  0.00    -0.229 NA
ATOM     15  C   UNL     1      36.251 -20.846 -18.526  0.00  0.00    +0.138 C 
ATOM     16  C   UNL     1      35.476 -21.882 -18.031  0.00  0.00    +0.035 C 
ATOM     17  C   UNL     1      35.791 -22.387 -16.774  0.00  0.00    +0.004 C 
ATOM     18  C   UNL     1      37.570 -20.813 -16.645  0.00  0.00    +0.100 C 
ATOM     19  C   UNL     1      36.857 -21.848 -16.062  0.00  0.00    +0.021 C 
BRANCH  12  20
ATOM     20  C   UNL     1      34.785 -20.905 -20.584  0.00  0.00    +0.112 C 
BRANCH  20  21
ATOM     21  C   UNL     1      33.462 -20.246 -20.219  0.00  0.00    +0.131 C 
BRANCH  21  23
ATOM     22  O   UNL     1      31.829 -20.647 -18.453  0.00  0.00    -0.250 OA
ATOM     23  C   UNL     1      32.627 -21.082 -19.271  0.00  0.00    +0.316 C 
BRANCH  23  24
ATOM     24  O   UNL     1      32.864 -22.409 -19.443  0.00  0.00    -0.480 OA
ATOM     25  H   UNL     1      33.677 -22.696 -19.811  0.00  0.00    +0.295 HD
ENDBRANCH  23  24
ENDBRANCH  21  23
ENDBRANCH  20  21
ENDBRANCH  12  20
ENDBRANCH   6  13
BRANCH   4  26
ATOM     26  C   UNL     1      33.329 -13.306 -23.123  0.00  0.00    +0.164 C 
BRANCH  26  27
ATOM     27  N   UNL     1      32.391 -12.839 -22.110  0.00  0.00    -0.326 N 
ATOM     28  H   UNL     1      31.741 -13.481 -21.742  0.00  0.00    +0.147 HD
BRANCH  27  29
ATOM     29  C   UNL     1      32.367 -11.543 -21.643  0.00  0.00    +0.045 C 
ATOM     30  C   UNL     1      32.713 -10.489 -22.489  0.00  0.00    +0.014 C 
ATOM     31  C   UNL     1      31.999 -11.284 -20.321  0.00  0.00    +0.014 C 
ATOM     32  C   UNL     1      32.692  -9.178 -22.015  0.00  0.00    +0.004 C 
ATOM     33  C   UNL     1      31.977  -9.973 -19.848  0.00  0.00    +0.004 C 
ATOM     34  C   UNL     1      32.324  -8.919 -20.695  0.00  0.00    +0.031 C 
BRANCH  34  37
ATOM     35  N   UNL     1      31.420  -6.607 -20.725  0.00  0.00    -0.343 N 
ATOM     36  N   UNL     1      33.129  -7.185 -19.240  0.00  0.00    -0.285 NA
ATOM     37  C   UNL     1      32.300  -7.552 -20.200  0.00  0.00    +0.117 C 
ATOM     38  H   UNL     1      31.421  -5.685 -20.375  0.00  0.00    +0.144 HD
ATOM     39  H   UNL     1      30.797  -6.859 -21.444  0.00  0.00    +0.144 HD
ATOM     40  H   UNL     1      33.115  -6.260 -18.903  0.00  0.00    +0.188 HD
ENDBRANCH  34  37
ENDBRANCH  27  29
ENDBRANCH  26  27
ENDBRANCH   4  26
TORSDOF 9
ENDMDL
MODEL 5
REMARK VINA RESULT:     -10.0      5.517     12.400
REMARK  Name = 216210
REMARK  9 active torsions:
REMARK  status: ('A' for Active; 'I' for Inactive)
REMARK    1  A    between atoms: C_4  and  C_26
REMARK    2  A    between atoms: C_6  and  C_13
REMARK    3  A    between atoms: N_12  and  C_20
REMARK    4  A    between atoms: C_20  and  C_21
REMARK    5  A    between atoms: C_21  and  C_23
REMARK    6  A    between atoms: C_23  and  O_24
REMARK    7  A    between atoms: C_26  and  N_27
REMARK    8  A    between atoms: N_27  and  C_29
REMARK    9  A    between atoms: C_34  and  C_37
REMARK                            x       y       z     vdW  Elec       q    Type
REMARK                         _______ _______ _______ _____ _____    ______ ____
ROOT
ATOM      1  N   UNL     1      34.627 -20.234 -20.242  0.00  0.00    -0.261 N 
ATOM      2  N   UNL     1      36.751 -19.929 -19.663  0.00  0.00    -0.388 NA
ATOM      3  C   UNL     1      34.910 -20.965 -19.110  0.00  0.00    +0.079 C 
ATOM      4  C   UNL     1      35.752 -19.627 -20.546  0.00  0.00    +0.184 C 
ATOM      5  C   UNL     1      36.237 -20.789 -18.728  0.00  0.00    +0.146 C 
ATOM      6  C   UNL     1      35.963 -22.246 -16.866  0.00  0.00    +0.039 C 
ATOM      7  C   UNL     1      36.801 -21.411 -17.613  0.00  0.00    +0.034 C 
ATOM      8  C   UNL     1      34.082 -21.808 -18.349  0.00  0.00    -0.004 C 
ATOM      9  C   UNL     1      34.627 -22.441 -17.225  0.00  0.00    +0.058 C 
ATOM     10  C   UNL     1      33.357 -20.168 -20.925  0.00  0.00    +0.120 C 
ENDROOT
BRANCH   6  13
ATOM     11  O   UNL     1      37.726 -23.049 -15.650  0.00  0.00    -0.270 OA
ATOM     12  N   UNL     1      35.591 -23.377 -14.694  0.00  0.00    -0.240 N 
ATOM     13  C   UNL     1      36.494 -22.922 -15.692  0.00  0.00    +0.250 C 
ATOM     14  N   UNL     1      37.279 -23.052 -13.007  0.00  0.00    -0.229 NA
ATOM     15  C   UNL     1      36.019 -23.436 -13.309  0.00  0.00    +0.138 C 
ATOM     16  C   UNL     1      35.100 -23.888 -12.376  0.00  0.00    +0.035 C 
ATOM     17  C   UNL     1      35.501 -23.949 -11.045  0.00  0.00    +0.004 C 
ATOM     18  C   UNL     1      37.634 -23.126 -11.704  0.00  0.00    +0.100 C 
ATOM     19  C   UNL     1      36.790 -23.562 -10.695  0.00  0.00    +0.021 C 
BRANCH  12  20
ATOM     20  C   UNL     1      34.225 -23.789 -15.054  0.00  0.00    +0.112 C 
BRANCH  20  21
ATOM     21  C   UNL     1      33.172 -23.050 -14.239  0.00  0.00    +0.131 C 
BRANCH  21  23
ATOM     22  O   UNL     1      30.807 -23.551 -13.924  0.00  0.00    -0.250 OA
ATOM     23  C   UNL     1      31.757 -23.371 -14.673  0.00  0.00    +0.316 C 
BRANCH  23  24
ATOM     24  O   UNL     1      31.656 -23.429 -16.027  0.00  0.00    -0.480 OA
ATOM     25  H   UNL     1      30.913 -23.052 -16.458  0.00  0.00    +0.295 HD
ENDBRANCH  23  24
ENDBRANCH  21  23
ENDBRANCH  20  21
ENDBRANCH  12  20
ENDBRANCH   6  13
BRANCH   4  26
ATOM     26  C   UNL     1      35.894 -18.726 -21.708  0.00  0.00    +0.164 C 
BRANCH  26  27
ATOM     27  N   UNL     1      35.835 -17.302 -21.400  0.00  0.00    -0.326 N 
ATOM     28  H   UNL     1      36.259 -16.985 -20.569  0.00  0.00    +0.147 HD
BRANCH  27  29
ATOM     29  C   UNL     1      35.214 -16.379 -22.212  0.00  0.00    +0.045 C 
ATOM     30  C   UNL     1      34.865 -15.126 -21.706  0.00  0.00    +0.014 C 
ATOM     31  C   UNL     1      34.931 -16.698 -23.541  0.00  0.00    +0.014 C 
ATOM     32  C   UNL     1      34.234 -14.194 -22.528  0.00  0.00    +0.004 C 
ATOM     33  C   UNL     1      34.300 -15.764 -24.362  0.00  0.00    +0.004 C 
ATOM     34  C   UNL     1      33.951 -14.512 -23.856  0.00  0.00    +0.031 C 
BRANCH  34  37
ATOM     35  N   UNL     1      33.626 -12.186 -24.662  0.00  0.00    -0.343 N 
ATOM     36  N   UNL     1      32.358 -13.931 -25.558  0.00  0.00    -0.285 NA
ATOM     37  C   UNL     1      33.293 -13.538 -24.713  0.00  0.00    +0.117 C 
ATOM     38  H   UNL     1      33.168 -11.543 -25.252  0.00  0.00    +0.144 HD
ATOM     39  H   UNL     1      34.319 -11.872 -24.037  0.00  0.00    +0.144 HD
ATOM     40  H   UNL     1      31.911 -13.275 -26.139  0.00  0.00    +0.188 HD
ENDBRANCH  34  37
ENDBRANCH  27  29
ENDBRANCH  26  27
ENDBRANCH   4  26
TORSDOF 9
ENDMDL
MODEL 6
REMARK VINA RESULT:      -9.9      2.699      4.887
REMARK  Name = 216210
REMARK  9 active torsions:
REMARK  status: ('A' for Active; 'I' for Inactive)
REMARK    1  A    between atoms: C_4  and  C_26
REMARK    2  A    between atoms: C_6  and  C_13
REMARK    3  A    between atoms: N_12  and  C_20
REMARK    4  A    between atoms: C_20  and  C_21
REMARK    5  A    between atoms: C_21  and  C_23
REMARK    6  A    between atoms: C_23  and  O_24
REMARK    7  A    between atoms: C_26  and  N_27
REMARK    8  A    between atoms: N_27  and  C_29
REMARK    9  A    between atoms: C_34  and  C_37
REMARK                            x       y       z     vdW  Elec       q    Type
REMARK                         _______ _______ _______ _____ _____    ______ ____
ROOT
ATOM      1  N   UNL     1      32.586 -12.236 -21.979  0.00  0.00    -0.261 N 
ATOM      2  N   UNL     1      33.620 -11.717 -23.876  0.00  0.00    -0.388 NA
ATOM      3  C   UNL     1      32.720 -10.869 -22.077  0.00  0.00    +0.079 C 
ATOM      4  C   UNL     1      33.136 -12.711 -23.073  0.00  0.00    +0.184 C 
ATOM      5  C   UNL     1      33.366 -10.519 -23.259  0.00  0.00    +0.146 C 
ATOM      6  C   UNL     1      33.227  -8.203 -22.728  0.00  0.00    +0.039 C 
ATOM      7  C   UNL     1      33.638  -9.199 -23.621  0.00  0.00    +0.034 C 
ATOM      8  C   UNL     1      32.314  -9.857 -21.191  0.00  0.00    -0.004 C 
ATOM      9  C   UNL     1      32.576  -8.524 -21.535  0.00  0.00    +0.058 C 
ATOM     10  C   UNL     1      31.966 -12.962 -20.896  0.00  0.00    +0.120 C 
ENDROOT
BRANCH   6  13
ATOM     11  O   UNL     1      34.572  -6.355 -22.674  0.00  0.00    -0.270 OA
ATOM     12  N   UNL     1      32.494  -6.075 -23.762  0.00  0.00    -0.240 N 
ATOM     13  C   UNL     1      33.482  -6.808 -23.051  0.00  0.00    +0.250 C 
ATOM     14  N   UNL     1      34.211  -4.718 -24.767  0.00  0.00    -0.229 NA
ATOM     15  C   UNL     1      32.895  -4.997 -24.646  0.00  0.00    +0.138 C 
ATOM     16  C   UNL     1      31.892  -4.314 -25.316  0.00  0.00    +0.035 C 
ATOM     17  C   UNL     1      32.265  -3.278 -26.165  0.00  0.00    +0.004 C 
ATOM     18  C   UNL     1      34.537  -3.704 -25.600  0.00  0.00    +0.100 C 
ATOM     19  C   UNL     1      33.611  -2.961 -26.315  0.00  0.00    +0.021 C 
BRANCH  12  20
ATOM     20  C   UNL     1      31.067  -6.403 -23.610  0.00  0.00    +0.112 C 
BRANCH  20  21
ATOM     21  C   UNL     1      30.538  -6.023 -22.233  0.00  0.00    +0.131 C 
BRANCH  21  23
ATOM     22  O   UNL     1      31.885  -4.337 -21.098  0.00  0.00    -0.250 OA
ATOM     23  C   UNL     1      30.935  -4.623 -21.813  0.00  0.00    +0.316 C 
BRANCH  23  24
ATOM     24  O   UNL     1      30.098  -3.692 -22.341  0.00  0.00    -0.480 OA
ATOM     25  H   UNL     1      30.448  -2.958 -22.807  0.00  0.00    +0.295 HD
ENDBRANCH  23  24
ENDBRANCH  21  23
ENDBRANCH  20  21
ENDBRANCH  12  20
ENDBRANCH   6  13
BRANCH   4  26
ATOM     26  C   UNL     1      33.208 -14.155 -23.378  0.00  0.00    +0.164 C 
BRANCH  26  27
ATOM     27  N   UNL     1      34.552 -14.720 -23.390  0.00  0.00    -0.326 N 
ATOM     28  H   UNL     1      35.231 -14.302 -23.969  0.00  0.00    +0.147 HD
BRANCH  27  29
ATOM     29  C   UNL     1      34.919 -15.812 -22.634  0.00  0.00    +0.045 C 
ATOM     30  C   UNL     1      35.018 -15.698 -21.247  0.00  0.00    +0.014 C 
ATOM     31  C   UNL     1      35.195 -17.030 -23.255  0.00  0.00    +0.014 C 
ATOM     32  C   UNL     1      35.392 -16.802 -20.482  0.00  0.00    +0.004 C 
ATOM     33  C   UNL     1      35.568 -18.134 -22.490  0.00  0.00    +0.004 C 
ATOM     34  C   UNL     1      35.667 -18.021 -21.103  0.00  0.00    +0.031 C 
BRANCH  34  37
ATOM     35  N   UNL     1      35.143 -20.176 -19.988  0.00  0.00    -0.343 N 
ATOM     36  N   UNL     1      37.296 -19.277 -19.863  0.00  0.00    -0.285 NA
ATOM     37  C   UNL     1      36.057 -19.173 -20.305  0.00  0.00    +0.117 C 
ATOM     38  H   UNL     1      35.429 -20.948 -19.446  0.00  0.00    +0.144 HD
ATOM     39  H   UNL     1      34.214 -20.115 -20.305  0.00  0.00    +0.144 HD
ATOM     40  H   UNL     1      37.563 -20.056 -19.323  0.00  0.00    +0.188 HD
ENDBRANCH  34  37
ENDBRANCH  27  29
ENDBRANCH  26  27
ENDBRANCH   4  26
TORSDOF 9
ENDMDL
MODEL 7
REMARK VINA RESULT:      -9.9      6.437     13.164
REMARK  Name = 216210
REMARK  9 active torsions:
REMARK  status: ('A' for Active; 'I' for Inactive)
REMARK    1  A    between atoms: C_4  and  C_26
REMARK    2  A    between atoms: C_6  and  C_13
REMARK    3  A    between atoms: N_12  and  C_20
REMARK    4  A    between atoms: C_20  and  C_21
REMARK    5  A    between atoms: C_21  and  C_23
REMARK    6  A    between atoms: C_23  and  O_24
REMARK    7  A    between atoms: C_26  and  N_27
REMARK    8  A    between atoms: N_27  and  C_29
REMARK    9  A    between atoms: C_34  and  C_37
REMARK                            x       y       z     vdW  Elec       q    Type
REMARK                         _______ _______ _______ _____ _____    ______ ____
ROOT
ATOM      1  N   UNL     1      34.285 -20.860 -19.757  0.00  0.00    -0.261 N 
ATOM      2  N   UNL     1      36.433 -20.354 -19.499  0.00  0.00    -0.388 NA
ATOM      3  C   UNL     1      34.761 -21.432 -18.600  0.00  0.00    +0.079 C 
ATOM      4  C   UNL     1      35.312 -20.223 -20.270  0.00  0.00    +0.184 C 
ATOM      5  C   UNL     1      36.107 -21.129 -18.416  0.00  0.00    +0.146 C 
ATOM      6  C   UNL     1      36.179 -22.370 -16.386  0.00  0.00    +0.039 C 
ATOM      7  C   UNL     1      36.851 -21.578 -17.324  0.00  0.00    +0.034 C 
ATOM      8  C   UNL     1      34.102 -22.230 -17.649  0.00  0.00    -0.004 C 
ATOM      9  C   UNL     1      34.829 -22.691 -16.544  0.00  0.00    +0.058 C 
ATOM     10  C   UNL     1      32.939 -20.955 -20.270  0.00  0.00    +0.120 C 
ENDROOT
BRANCH   6  13
ATOM     11  O   UNL     1      38.068 -22.466 -15.100  0.00  0.00    -0.270 OA
ATOM     12  N   UNL     1      36.243 -23.755 -14.334  0.00  0.00    -0.240 N 
ATOM     13  C   UNL     1      36.902 -22.868 -15.226  0.00  0.00    +0.250 C 
ATOM     14  N   UNL     1      37.563 -22.911 -12.505  0.00  0.00    -0.229 NA
ATOM     15  C   UNL     1      36.601 -23.760 -12.928  0.00  0.00    +0.138 C 
ATOM     16  C   UNL     1      35.927 -24.645 -12.101  0.00  0.00    +0.035 C 
ATOM     17  C   UNL     1      36.263 -24.659 -10.752  0.00  0.00    +0.004 C 
ATOM     18  C   UNL     1      37.864 -22.953 -11.187  0.00  0.00    +0.100 C 
ATOM     19  C   UNL     1      37.249 -23.799 -10.279  0.00  0.00    +0.021 C 
BRANCH  12  20
ATOM     20  C   UNL     1      35.199 -24.669 -14.825  0.00  0.00    +0.112 C 
BRANCH  20  21
ATOM     21  C   UNL     1      35.497 -26.120 -14.474  0.00  0.00    +0.131 C 
BRANCH  21  23
ATOM     22  O   UNL     1      37.918 -26.328 -14.680  0.00  0.00    -0.250 OA
ATOM     23  C   UNL     1      36.796 -26.617 -15.073  0.00  0.00    +0.316 C 
BRANCH  23  24
ATOM     24  O   UNL     1      36.570 -27.452 -16.121  0.00  0.00    -0.480 OA
ATOM     25  H   UNL     1      36.288 -27.105 -16.944  0.00  0.00    +0.295 HD
ENDBRANCH  23  24
ENDBRANCH  21  23
ENDBRANCH  20  21
ENDBRANCH  12  20
ENDBRANCH   6  13
BRANCH   4  26
ATOM     26  C   UNL     1      35.239 -19.458 -21.532  0.00  0.00    +0.164 C 
BRANCH  26  27
ATOM     27  N   UNL     1      35.847 -18.134 -21.491  0.00  0.00    -0.326 N 
ATOM     28  H   UNL     1      36.688 -18.020 -20.991  0.00  0.00    +0.147 HD
BRANCH  27  29
ATOM     29  C   UNL     1      35.302 -17.033 -22.115  0.00  0.00    +0.045 C 
ATOM     30  C   UNL     1      35.092 -15.856 -21.396  0.00  0.00    +0.014 C 
ATOM     31  C   UNL     1      34.956 -17.096 -23.465  0.00  0.00    +0.014 C 
ATOM     32  C   UNL     1      34.538 -14.743 -22.027  0.00  0.00    +0.004 C 
ATOM     33  C   UNL     1      34.403 -15.983 -24.096  0.00  0.00    +0.004 C 
ATOM     34  C   UNL     1      34.193 -14.806 -23.377  0.00  0.00    +0.031 C 
BRANCH  34  37
ATOM     35  N   UNL     1      33.972 -12.350 -23.665  0.00  0.00    -0.343 N 
ATOM     36  N   UNL     1      32.730 -13.809 -25.001  0.00  0.00    -0.285 NA
ATOM     37  C   UNL     1      33.615 -13.645 -24.036  0.00  0.00    +0.117 C 
ATOM     38  H   UNL     1      33.569 -11.577 -24.124  0.00  0.00    +0.144 HD
ATOM     39  H   UNL     1      34.628 -12.206 -22.945  0.00  0.00    +0.144 HD
ATOM     40  H   UNL     1      32.337 -13.025 -25.448  0.00  0.00    +0.188 HD
ENDBRANCH  34  37
ENDBRANCH  27  29
ENDBRANCH  26  27
ENDBRANCH   4  26
TORSDOF 9
ENDMDL
MODEL 8
REMARK VINA RESULT:      -9.9      3.331      6.459
REMARK  Name = 216210
REMARK  9 active torsions:
REMARK  status: ('A' for Active; 'I' for Inactive)
REMARK    1  A    between atoms: C_4  and  C_26
REMARK    2  A    between atoms: C_6  and  C_13
REMARK    3  A    between atoms: N_12  and  C_20
REMARK    4  A    between atoms: C_20  and  C_21
REMARK    5  A    between atoms: C_21  and  C_23
REMARK    6  A    between atoms: C_23  and  O_24
REMARK    7  A    between atoms: C_26  and  N_27
REMARK    8  A    between atoms: N_27  and  C_29
REMARK    9  A    between atoms: C_34  and  C_37
REMARK                            x       y       z     vdW  Elec       q    Type
REMARK                         _______ _______ _______ _____ _____    ______ ____
ROOT
ATOM      1  N   UNL     1      35.325 -21.052 -19.075  0.00  0.00    -0.261 N 
ATOM      2  N   UNL     1      33.383 -20.630 -20.070  0.00  0.00    -0.388 NA
ATOM      3  C   UNL     1      35.490 -20.060 -20.015  0.00  0.00    +0.079 C 
ATOM      4  C   UNL     1      34.052 -21.370 -19.135  0.00  0.00    +0.184 C 
ATOM      5  C   UNL     1      34.285 -19.778 -20.652  0.00  0.00    +0.146 C 
ATOM      6  C   UNL     1      35.314 -18.114 -22.008  0.00  0.00    +0.039 C 
ATOM      7  C   UNL     1      34.155 -18.814 -21.653  0.00  0.00    +0.034 C 
ATOM      8  C   UNL     1      36.644 -19.348 -20.384  0.00  0.00    -0.004 C 
ATOM      9  C   UNL     1      36.537 -18.375 -21.385  0.00  0.00    +0.058 C 
ATOM     10  C   UNL     1      36.349 -21.602 -18.220  0.00  0.00    +0.120 C 
ENDROOT
BRANCH   6  13
ATOM     11  O   UNL     1      35.472 -17.481 -24.200  0.00  0.00    -0.270 OA
ATOM     12  N   UNL     1      34.916 -15.763 -22.677  0.00  0.00    -0.240 N 
ATOM     13  C   UNL     1      35.241 -17.096 -23.044  0.00  0.00    +0.250 C 
ATOM     14  N   UNL     1      33.883 -15.413 -24.824  0.00  0.00    -0.229 NA
ATOM     15  C   UNL     1      34.212 -14.909 -23.615  0.00  0.00    +0.138 C 
ATOM     16  C   UNL     1      33.919 -13.618 -23.206  0.00  0.00    +0.035 C 
ATOM     17  C   UNL     1      33.245 -12.790 -24.098  0.00  0.00    +0.004 C 
ATOM     18  C   UNL     1      33.230 -14.580 -25.665  0.00  0.00    +0.100 C 
ATOM     19  C   UNL     1      32.890 -13.274 -25.353  0.00  0.00    +0.021 C 
BRANCH  12  20
ATOM     20  C   UNL     1      35.288 -15.242 -21.352  0.00  0.00    +0.112 C 
BRANCH  20  21
ATOM     21  C   UNL     1      34.179 -15.444 -20.327  0.00  0.00    +0.131 C 
BRANCH  21  23
ATOM     22  O   UNL     1      33.713 -13.051 -20.356  0.00  0.00    -0.250 OA
ATOM     23  C   UNL     1      33.365 -14.191 -20.082  0.00  0.00    +0.316 C 
BRANCH  23  24
ATOM     24  O   UNL     1      32.166 -14.484 -19.514  0.00  0.00    -0.480 OA
ATOM     25  H   UNL     1      31.665 -15.212 -19.826  0.00  0.00    +0.295 HD
ENDBRANCH  23  24
ENDBRANCH  21  23
ENDBRANCH  20  21
ENDBRANCH  12  20
ENDBRANCH   6  13
BRANCH   4  26
ATOM     26  C   UNL     1      33.438 -22.407 -18.280  0.00  0.00    +0.164 C 
BRANCH  26  27
ATOM     27  N   UNL     1      32.197 -22.015 -17.624  0.00  0.00    -0.326 N 
ATOM     28  H   UNL     1      31.740 -21.201 -17.936  0.00  0.00    +0.147 HD
BRANCH  27  29
ATOM     29  C   UNL     1      31.633 -22.728 -16.588  0.00  0.00    +0.045 C 
ATOM     30  C   UNL     1      30.245 -22.805 -16.468  0.00  0.00    +0.014 C 
ATOM     31  C   UNL     1      32.451 -23.369 -15.657  0.00  0.00    +0.014 C 
ATOM     32  C   UNL     1      29.676 -23.524 -15.418  0.00  0.00    +0.004 C 
ATOM     33  C   UNL     1      31.880 -24.088 -14.607  0.00  0.00    +0.004 C 
ATOM     34  C   UNL     1      30.492 -24.166 -14.487  0.00  0.00    +0.031 C 
BRANCH  34  37
ATOM     35  N   UNL     1      28.810 -25.762 -13.600  0.00  0.00    -0.343 N 
ATOM     36  N   UNL     1      30.386 -24.796 -12.171  0.00  0.00    -0.285 NA
ATOM     37  C   UNL     1      29.898 -24.916 -13.392  0.00  0.00    +0.117 C 
ATOM     38  H   UNL     1      28.423 -26.261 -12.844  0.00  0.00    +0.144 HD
ATOM     39  H   UNL     1      28.429 -25.863 -14.502  0.00  0.00    +0.144 HD
ATOM     40  H   UNL     1      29.985 -25.302 -11.428  0.00  0.00    +0.188 HD
ENDBRANCH  34  37
ENDBRANCH  27  29
ENDBRANCH  26  27
ENDBRANCH   4  26
TORSDOF 9
ENDMDL
MODEL 9
REMARK VINA RESULT:      -9.8      1.690      3.484
REMARK  Name = 216210
REMARK  9 active torsions:
REMARK  status: ('A' for Active; 'I' for Inactive)
REMARK    1  A    between atoms: C_4  and  C_26
REMARK    2  A    between atoms: C_6  and  C_13
REMARK    3  A    between atoms: N_12  and  C_20
REMARK    4  A    between atoms: C_20  and  C_21
REMARK    5  A    between atoms: C_21  and  C_23
REMARK    6  A    between atoms: C_23  and  O_24
REMARK    7  A    between atoms: C_26  and  N_27
REMARK    8  A    between atoms: N_27  and  C_29
REMARK    9  A    between atoms: C_34  and  C_37
REMARK                            x       y       z     vdW  Elec       q    Type
REMARK                         _______ _______ _______ _____ _____    ______ ____
ROOT
ATOM      1  N   UNL     1      34.517 -15.163 -21.092  0.00  0.00    -0.261 N 
ATOM      2  N   UNL     1      34.339 -14.280 -23.123  0.00  0.00    -0.388 NA
ATOM      3  C   UNL     1      33.802 -13.988 -21.027  0.00  0.00    +0.079 C 
ATOM      4  C   UNL     1      34.823 -15.306 -22.362  0.00  0.00    +0.184 C 
ATOM      5  C   UNL     1      33.677 -13.416 -22.290  0.00  0.00    +0.146 C 
ATOM      6  C   UNL     1      32.431 -11.588 -21.411  0.00  0.00    +0.039 C 
ATOM      7  C   UNL     1      33.000 -12.218 -22.524  0.00  0.00    +0.034 C 
ATOM      8  C   UNL     1      33.225 -13.342 -19.921  0.00  0.00    -0.004 C 
ATOM      9  C   UNL     1      32.540 -12.139 -20.132  0.00  0.00    +0.058 C 
ATOM     10  C   UNL     1      34.843 -16.031 -19.986  0.00  0.00    +0.120 C 
ENDROOT
BRANCH   6  13
ATOM     11  O   UNL     1      30.718 -10.173 -20.869  0.00  0.00    -0.270 OA
ATOM     12  N   UNL     1      32.184  -9.406 -22.555  0.00  0.00    -0.240 N 
ATOM     13  C   UNL     1      31.712 -10.336 -21.592  0.00  0.00    +0.250 C 
ATOM     14  N   UNL     1      31.324  -7.586 -21.232  0.00  0.00    -0.229 NA
ATOM     15  C   UNL     1      31.973  -7.985 -22.348  0.00  0.00    +0.138 C 
ATOM     16  C   UNL     1      32.453  -7.120 -23.318  0.00  0.00    +0.035 C 
ATOM     17  C   UNL     1      32.255  -5.756 -23.130  0.00  0.00    +0.004 C 
ATOM     18  C   UNL     1      31.148  -6.254 -21.083  0.00  0.00    +0.100 C 
ATOM     19  C   UNL     1      31.591  -5.307 -21.993  0.00  0.00    +0.021 C 
BRANCH  12  20
ATOM     20  C   UNL     1      32.888  -9.871 -23.761  0.00  0.00    +0.112 C 
BRANCH  20  21
ATOM     21  C   UNL     1      34.392  -9.649 -23.667  0.00  0.00    +0.131 C 
BRANCH  21  23
ATOM     22  O   UNL     1      36.234  -9.807 -25.255  0.00  0.00    -0.250 OA
ATOM     23  C   UNL     1      35.145 -10.199 -24.860  0.00  0.00    +0.316 C 
BRANCH  23  24
ATOM     24  O   UNL     1      34.461 -11.212 -25.453  0.00  0.00    -0.480 OA
ATOM     25  H   UNL     1      33.926 -11.781 -24.937  0.00  0.00    +0.295 HD
ENDBRANCH  23  24
ENDBRANCH  21  23
ENDBRANCH  20  21
ENDBRANCH  12  20
ENDBRANCH   6  13
BRANCH   4  26
ATOM     26  C   UNL     1      35.597 -16.452 -22.881  0.00  0.00    +0.164 C 
BRANCH  26  27
ATOM     27  N   UNL     1      34.915 -17.739 -22.823  0.00  0.00    -0.326 N 
ATOM     28  H   UNL     1      34.284 -17.968 -23.543  0.00  0.00    +0.147 HD
BRANCH  27  29
ATOM     29  C   UNL     1      35.108 -18.650 -21.807  0.00  0.00    +0.045 C 
ATOM     30  C   UNL     1      34.034 -19.404 -21.332  0.00  0.00    +0.014 C 
ATOM     31  C   UNL     1      36.377 -18.817 -21.252  0.00  0.00    +0.014 C 
ATOM     32  C   UNL     1      34.229 -20.324 -20.303  0.00  0.00    +0.004 C 
ATOM     33  C   UNL     1      36.571 -19.738 -20.223  0.00  0.00    +0.004 C 
ATOM     34  C   UNL     1      35.498 -20.492 -19.748  0.00  0.00    +0.031 C 
BRANCH  34  37
ATOM     35  N   UNL     1      36.677 -21.252 -17.700  0.00  0.00    -0.343 N 
ATOM     36  N   UNL     1      34.956 -22.540 -18.616  0.00  0.00    -0.285 NA
ATOM     37  C   UNL     1      35.701 -21.452 -18.675  0.00  0.00    +0.117 C 
ATOM     38  H   UNL     1      36.798 -21.916 -16.982  0.00  0.00    +0.144 HD
ATOM     39  H   UNL     1      37.245 -20.449 -17.728  0.00  0.00    +0.144 HD
ATOM     40  H   UNL     1      35.092 -23.192 -17.890  0.00  0.00    +0.188 HD
ENDBRANCH  34  37
ENDBRANCH  27  29
ENDBRANCH  26  27
ENDBRANCH   4  26
TORSDOF 9
ENDMDL
