MODEL 1
REMARK VINA RESULT:     -12.6      0.000      0.000
REMARK  Name = 24996872
REMARK  6 active torsions:
REMARK  status: ('A' for Active; 'I' for Inactive)
REMARK    1  A    between atoms: O_1  and  C_3
REMARK    2  A    between atoms: O_1  and  C_18
REMARK    3  A    between atoms: C_7  and  C_8
REMARK    4  A    between atoms: C_11  and  S_14
REMARK    5  A    between atoms: C_18  and  C_23
REMARK    6  A    between atoms: C_29  and  C_30
REMARK                            x       y       z     vdW  Elec       q    Type
REMARK                         _______ _______ _______ _____ _____    ______ ____
ROOT
ATOM      1  O   UNL     1      34.940 -15.952 -24.635  0.00  0.00    -0.474 OA
ENDROOT
BRANCH   1   3
ATOM      2  N   UNL     1      34.013 -19.021 -22.869  0.00  0.00    -0.241 NA
ATOM      3  C   UNL     1      34.826 -16.873 -23.623  0.00  0.00    +0.158 C 
ATOM      4  C   UNL     1      35.373 -16.631 -22.369  0.00  0.00    +0.040 C 
ATOM      5  C   UNL     1      34.161 -18.073 -23.821  0.00  0.00    +0.136 C 
ATOM      6  C   UNL     1      35.241 -17.582 -21.363  0.00  0.00    +0.022 C 
ATOM      7  C   UNL     1      34.558 -18.751 -21.662  0.00  0.00    +0.082 C 
BRANCH   7   8
ATOM      8  C   UNL     1      34.382 -19.782 -20.668  0.00  0.00    +0.018 C 
ATOM      9  C   UNL     1      35.493 -20.446 -20.146  0.00  0.00    +0.003 C 
ATOM     10  C   UNL     1      33.102 -20.116 -20.227  0.00  0.00    +0.003 C 
ATOM     11  C   UNL     1      34.042 -21.776 -18.746  0.00  0.00    +0.106 C 
ATOM     12  C   UNL     1      35.322 -21.443 -19.186  0.00  0.00    +0.018 C 
ATOM     13  C   UNL     1      32.931 -21.113 -19.267  0.00  0.00    +0.018 C 
BRANCH  11  14
ATOM     14  S   UNL     1      33.828 -23.023 -17.544  0.00  0.00    +0.010 S 
ATOM     15  O   UNL     1      33.664 -24.293 -18.239  0.00  0.00    -0.169 OA
ATOM     16  O   UNL     1      34.864 -22.885 -16.529  0.00  0.00    -0.169 OA
ATOM     17  C   UNL     1      32.280 -22.625 -16.762  0.00  0.00    +0.182 C 
ENDBRANCH  11  14
ENDBRANCH   7   8
ENDBRANCH   1   3
BRANCH   1  18
ATOM     18  C   UNL     1      33.808 -15.145 -24.902  0.00  0.00    +0.205 C 
BRANCH  18  23
ATOM     19  O   UNL     1      32.446  -8.990 -23.769  0.00  0.00    -0.296 OA
ATOM     20  N   UNL     1      33.098 -11.197 -23.333  0.00  0.00    -0.251 N 
ATOM     21  N   UNL     1      32.546  -9.549 -21.603  0.00  0.00    -0.300 NA
ATOM     22  N   UNL     1      32.076  -7.844 -23.053  0.00  0.00    -0.010 NA
ATOM     23  C   UNL     1      34.028 -13.776 -24.264  0.00  0.00    +0.047 C 
ATOM     24  C   UNL     1      33.201 -13.633 -22.982  0.00  0.00    +0.025 C 
ATOM     25  C   UNL     1      33.657 -12.653 -25.238  0.00  0.00    +0.025 C 
ATOM     26  C   UNL     1      33.381 -12.253 -22.351  0.00  0.00    +0.096 C 
ATOM     27  C   UNL     1      33.830 -11.274 -24.601  0.00  0.00    +0.096 C 
ATOM     28  C   UNL     1      32.705  -9.946 -22.840  0.00  0.00    +0.379 C 
ATOM     29  C   UNL     1      32.159  -8.254 -21.784  0.00  0.00    +0.104 C 
BRANCH  29  30
ATOM     30  C   UNL     1      31.852  -7.364 -20.660  0.00  0.00    +0.101 C 
ATOM     31  C   UNL     1      33.086  -7.045 -19.775  0.00  0.00    +0.017 C 
ATOM     32  C   UNL     1      31.191  -6.031 -21.093  0.00  0.00    +0.017 C 
ENDBRANCH  29  30
ENDBRANCH  18  23
ENDBRANCH   1  18
TORSDOF 6
ENDMDL
MODEL 2
REMARK VINA RESULT:     -12.2      3.094      5.175
REMARK  Name = 24996872
REMARK  6 active torsions:
REMARK  status: ('A' for Active; 'I' for Inactive)
REMARK    1  A    between atoms: O_1  and  C_3
REMARK    2  A    between atoms: O_1  and  C_18
REMARK    3  A    between atoms: C_7  and  C_8
REMARK    4  A    between atoms: C_11  and  S_14
REMARK    5  A    between atoms: C_18  and  C_23
REMARK    6  A    between atoms: C_29  and  C_30
REMARK                            x       y       z     vdW  Elec       q    Type
REMARK                         _______ _______ _______ _____ _____    ______ ____
ROOT
ATOM      1  O   UNL     1      34.092 -19.510 -21.413  0.00  0.00    -0.474 OA
ENDROOT
BRANCH   1   3
ATOM      2  N   UNL     1      36.147 -20.927 -18.735  0.00  0.00    -0.241 NA
ATOM      3  C   UNL     1      34.434 -20.217 -20.287  0.00  0.00    +0.158 C 
ATOM      4  C   UNL     1      33.478 -20.922 -19.566  0.00  0.00    +0.040 C 
ATOM      5  C   UNL     1      35.744 -20.251 -19.835  0.00  0.00    +0.136 C 
ATOM      6  C   UNL     1      33.854 -21.630 -18.429  0.00  0.00    +0.022 C 
ATOM      7  C   UNL     1      35.189 -21.600 -18.059  0.00  0.00    +0.082 C 
BRANCH   7   8
ATOM      8  C   UNL     1      35.651 -22.311 -16.891  0.00  0.00    +0.018 C 
ATOM      9  C   UNL     1      36.975 -22.175 -16.470  0.00  0.00    +0.003 C 
ATOM     10  C   UNL     1      34.776 -23.133 -16.183  0.00  0.00    +0.003 C 
ATOM     11  C   UNL     1      36.545 -23.685 -14.633  0.00  0.00    +0.106 C 
ATOM     12  C   UNL     1      37.421 -22.863 -15.342  0.00  0.00    +0.018 C 
ATOM     13  C   UNL     1      35.222 -23.821 -15.054  0.00  0.00    +0.018 C 
BRANCH  11  14
ATOM     14  S   UNL     1      37.104 -24.545 -13.221  0.00  0.00    +0.010 S 
ATOM     15  O   UNL     1      38.359 -23.941 -12.795  0.00  0.00    -0.169 OA
ATOM     16  O   UNL     1      36.003 -24.665 -12.274  0.00  0.00    -0.169 OA
ATOM     17  C   UNL     1      37.459 -26.184 -13.813  0.00  0.00    +0.182 C 
ENDBRANCH  11  14
ENDBRANCH   7   8
ENDBRANCH   1   3
BRANCH   1  18
ATOM     18  C   UNL     1      34.941 -19.643 -22.539  0.00  0.00    +0.205 C 
BRANCH  18  23
ATOM     19  O   UNL     1      33.072 -14.181 -25.314  0.00  0.00    -0.296 OA
ATOM     20  N   UNL     1      34.252 -15.607 -23.879  0.00  0.00    -0.251 N 
ATOM     21  N   UNL     1      34.205 -13.164 -23.671  0.00  0.00    -0.300 NA
ATOM     22  N   UNL     1      32.841 -12.808 -25.472  0.00  0.00    -0.010 NA
ATOM     23  C   UNL     1      35.153 -18.261 -23.152  0.00  0.00    +0.047 C 
ATOM     24  C   UNL     1      34.954 -17.162 -22.102  0.00  0.00    +0.025 C 
ATOM     25  C   UNL     1      34.192 -18.029 -24.322  0.00  0.00    +0.025 C 
ATOM     26  C   UNL     1      35.126 -15.771 -22.709  0.00  0.00    +0.096 C 
ATOM     27  C   UNL     1      34.361 -16.632 -24.922  0.00  0.00    +0.096 C 
ATOM     28  C   UNL     1      33.884 -14.303 -24.232  0.00  0.00    +0.379 C 
ATOM     29  C   UNL     1      33.542 -12.276 -24.467  0.00  0.00    +0.104 C 
BRANCH  29  30
ATOM     30  C   UNL     1      33.592 -10.829 -24.235  0.00  0.00    +0.101 C 
ATOM     31  C   UNL     1      33.122 -10.419 -22.815  0.00  0.00    +0.017 C 
ATOM     32  C   UNL     1      34.989 -10.213 -24.497  0.00  0.00    +0.017 C 
ENDBRANCH  29  30
ENDBRANCH  18  23
ENDBRANCH   1  18
TORSDOF 6
ENDMDL
MODEL 3
REMARK VINA RESULT:     -12.1      3.684     11.592
REMARK  Name = 24996872
REMARK  6 active torsions:
REMARK  status: ('A' for Active; 'I' for Inactive)
REMARK    1  A    between atoms: O_1  and  C_3
REMARK    2  A    between atoms: O_1  and  C_18
REMARK    3  A    between atoms: C_7  and  C_8
REMARK    4  A    between atoms: C_11  and  S_14
REMARK    5  A    between atoms: C_18  and  C_23
REMARK    6  A    between atoms: C_29  and  C_30
REMARK                            x       y       z     vdW  Elec       q    Type
REMARK                         _______ _______ _______ _____ _____    ______ ____
ROOT
ATOM      1  O   UNL     1      35.417 -18.169 -22.732  0.00  0.00    -0.474 OA
ENDROOT
BRANCH   1   3
ATOM      2  N   UNL     1      34.620 -14.781 -21.597  0.00  0.00    -0.241 NA
ATOM      3  C   UNL     1      34.982 -16.867 -22.765  0.00  0.00    +0.158 C 
ATOM      4  C   UNL     1      34.480 -16.308 -23.934  0.00  0.00    +0.040 C 
ATOM      5  C   UNL     1      35.031 -16.068 -21.633  0.00  0.00    +0.136 C 
ATOM      6  C   UNL     1      34.046 -14.987 -23.937  0.00  0.00    +0.022 C 
ATOM      7  C   UNL     1      34.138 -14.272 -22.753  0.00  0.00    +0.082 C 
BRANCH   7   8
ATOM      8  C   UNL     1      33.707 -12.896 -22.681  0.00  0.00    +0.018 C 
ATOM      9  C   UNL     1      34.204 -11.961 -23.590  0.00  0.00    +0.003 C 
ATOM     10  C   UNL     1      32.794 -12.501 -21.704  0.00  0.00    +0.003 C 
ATOM     11  C   UNL     1      32.874 -10.237 -22.543  0.00  0.00    +0.106 C 
ATOM     12  C   UNL     1      33.788 -10.632 -23.520  0.00  0.00    +0.018 C 
ATOM     13  C   UNL     1      32.377 -11.172 -21.634  0.00  0.00    +0.018 C 
BRANCH  11  14
ATOM     14  S   UNL     1      32.353  -8.574 -22.455  0.00  0.00    +0.010 S 
ATOM     15  O   UNL     1      33.177  -7.797 -23.372  0.00  0.00    -0.169 OA
ATOM     16  O   UNL     1      30.902  -8.526 -22.572  0.00  0.00    -0.169 OA
ATOM     17  C   UNL     1      32.757  -8.070 -20.798  0.00  0.00    +0.182 C 
ENDBRANCH  11  14
ENDBRANCH   7   8
ENDBRANCH   1   3
BRANCH   1  18
ATOM     18  C   UNL     1      36.102 -18.590 -21.567  0.00  0.00    +0.205 C 
BRANCH  18  23
ATOM     19  O   UNL     1      34.502 -22.771 -16.987  0.00  0.00    -0.296 OA
ATOM     20  N   UNL     1      34.246 -21.353 -18.833  0.00  0.00    -0.251 N 
ATOM     21  N   UNL     1      32.385 -22.338 -17.576  0.00  0.00    -0.300 NA
ATOM     22  N   UNL     1      33.694 -23.473 -16.083  0.00  0.00    -0.010 NA
ATOM     23  C   UNL     1      35.392 -19.819 -21.004  0.00  0.00    +0.047 C 
ATOM     24  C   UNL     1      34.057 -19.429 -20.360  0.00  0.00    +0.025 C 
ATOM     25  C   UNL     1      36.270 -20.530 -19.970  0.00  0.00    +0.025 C 
ATOM     26  C   UNL     1      33.352 -20.644 -19.758  0.00  0.00    +0.096 C 
ATOM     27  C   UNL     1      35.558 -21.740 -19.363  0.00  0.00    +0.096 C 
ATOM     28  C   UNL     1      33.652 -22.130 -17.831  0.00  0.00    +0.379 C 
ATOM     29  C   UNL     1      32.460 -23.167 -16.495  0.00  0.00    +0.104 C 
BRANCH  29  30
ATOM     30  C   UNL     1      31.265 -23.690 -15.826  0.00  0.00    +0.101 C 
ATOM     31  C   UNL     1      31.439 -23.845 -14.293  0.00  0.00    +0.017 C 
ATOM     32  C   UNL     1      29.990 -22.854 -16.102  0.00  0.00    +0.017 C 
ENDBRANCH  29  30
ENDBRANCH  18  23
ENDBRANCH   1  18
TORSDOF 6
ENDMDL
MODEL 4
REMARK VINA RESULT:     -11.9      1.043      1.910
REMARK  Name = 24996872
REMARK  6 active torsions:
REMARK  status: ('A' for Active; 'I' for Inactive)
REMARK    1  A    between atoms: O_1  and  C_3
REMARK    2  A    between atoms: O_1  and  C_18
REMARK    3  A    between atoms: C_7  and  C_8
REMARK    4  A    between atoms: C_11  and  S_14
REMARK    5  A    between atoms: C_18  and  C_23
REMARK    6  A    between atoms: C_29  and  C_30
REMARK                            x       y       z     vdW  Elec       q    Type
REMARK                         _______ _______ _______ _____ _____    ______ ____
ROOT
ATOM      1  O   UNL     1      35.251 -15.755 -24.006  0.00  0.00    -0.474 OA
ENDROOT
BRANCH   1   3
ATOM      2  N   UNL     1      35.177 -17.738 -20.930  0.00  0.00    -0.241 NA
ATOM      3  C   UNL     1      35.023 -16.809 -23.157  0.00  0.00    +0.158 C 
ATOM      4  C   UNL     1      34.434 -17.982 -23.613  0.00  0.00    +0.040 C 
ATOM      5  C   UNL     1      35.374 -16.737 -21.818  0.00  0.00    +0.136 C 
ATOM      6  C   UNL     1      34.216 -19.034 -22.730  0.00  0.00    +0.022 C 
ATOM      7  C   UNL     1      34.602 -18.862 -21.410  0.00  0.00    +0.082 C 
BRANCH   7   8
ATOM      8  C   UNL     1      34.406 -19.911 -20.437  0.00  0.00    +0.018 C 
ATOM      9  C   UNL     1      33.115 -20.275 -20.054  0.00  0.00    +0.003 C 
ATOM     10  C   UNL     1      35.507 -20.560 -19.880  0.00  0.00    +0.003 C 
ATOM     11  C   UNL     1      34.028 -21.937 -18.557  0.00  0.00    +0.106 C 
ATOM     12  C   UNL     1      32.927 -21.288 -19.114  0.00  0.00    +0.018 C 
ATOM     13  C   UNL     1      35.319 -21.573 -18.940  0.00  0.00    +0.018 C 
BRANCH  11  14
ATOM     14  S   UNL     1      33.793 -23.205 -17.381  0.00  0.00    +0.010 S 
ATOM     15  O   UNL     1      33.592 -24.455 -18.102  0.00  0.00    -0.169 OA
ATOM     16  O   UNL     1      34.839 -23.114 -16.371  0.00  0.00    -0.169 OA
ATOM     17  C   UNL     1      32.261 -22.786 -16.579  0.00  0.00    +0.182 C 
ENDBRANCH  11  14
ENDBRANCH   7   8
ENDBRANCH   1   3
BRANCH   1  18
ATOM     18  C   UNL     1      34.299 -15.536 -25.031  0.00  0.00    +0.205 C 
BRANCH  18  23
ATOM     19  O   UNL     1      32.868 -10.316 -21.608  0.00  0.00    -0.296 OA
ATOM     20  N   UNL     1      33.162 -11.677 -23.490  0.00  0.00    -0.251 N 
ATOM     21  N   UNL     1      32.829  -9.249 -23.577  0.00  0.00    -0.300 NA
ATOM     22  N   UNL     1      32.665  -8.961 -21.314  0.00  0.00    -0.010 NA
ATOM     23  C   UNL     1      33.475 -14.302 -24.672  0.00  0.00    +0.047 C 
ATOM     24  C   UNL     1      34.057 -13.047 -25.332  0.00  0.00    +0.025 C 
ATOM     25  C   UNL     1      33.424 -14.103 -23.153  0.00  0.00    +0.025 C 
ATOM     26  C   UNL     1      33.265 -11.797 -24.951  0.00  0.00    +0.096 C 
ATOM     27  C   UNL     1      32.639 -12.847 -22.776  0.00  0.00    +0.096 C 
ATOM     28  C   UNL     1      32.955 -10.398 -22.961  0.00  0.00    +0.379 C 
ATOM     29  C   UNL     1      32.654  -8.398 -22.526  0.00  0.00    +0.104 C 
BRANCH  29  30
ATOM     30  C   UNL     1      32.466  -6.955 -22.710  0.00  0.00    +0.101 C 
ATOM     31  C   UNL     1      31.035  -6.577 -23.172  0.00  0.00    +0.017 C 
ATOM     32  C   UNL     1      32.821  -6.124 -21.452  0.00  0.00    +0.017 C 
ENDBRANCH  29  30
ENDBRANCH  18  23
ENDBRANCH   1  18
TORSDOF 6
ENDMDL
MODEL 5
REMARK VINA RESULT:     -11.8      3.608      5.935
REMARK  Name = 24996872
REMARK  6 active torsions:
REMARK  status: ('A' for Active; 'I' for Inactive)
REMARK    1  A    between atoms: O_1  and  C_3
REMARK    2  A    between atoms: O_1  and  C_18
REMARK    3  A    between atoms: C_7  and  C_8
REMARK    4  A    between atoms: C_11  and  S_14
REMARK    5  A    between atoms: C_18  and  C_23
REMARK    6  A    between atoms: C_29  and  C_30
REMARK                            x       y       z     vdW  Elec       q    Type
REMARK                         _______ _______ _______ _____ _____    ______ ____
ROOT
ATOM      1  O   UNL     1      35.776 -20.402 -20.678  0.00  0.00    -0.474 OA
ENDROOT
BRANCH   1   3
ATOM      2  N   UNL     1      36.880 -21.546 -17.380  0.00  0.00    -0.241 NA
ATOM      3  C   UNL     1      35.746 -21.011 -19.448  0.00  0.00    +0.158 C 
ATOM      4  C   UNL     1      34.615 -21.691 -19.011  0.00  0.00    +0.040 C 
ATOM      5  C   UNL     1      36.843 -20.968 -18.602  0.00  0.00    +0.136 C 
ATOM      6  C   UNL     1      34.614 -22.299 -17.760  0.00  0.00    +0.022 C 
ATOM      7  C   UNL     1      35.762 -22.197 -16.990  0.00  0.00    +0.082 C 
BRANCH   7   8
ATOM      8  C   UNL     1      35.834 -22.802 -15.682  0.00  0.00    +0.018 C 
ATOM      9  C   UNL     1      34.673 -23.266 -15.063  0.00  0.00    +0.003 C 
ATOM     10  C   UNL     1      37.064 -22.925 -15.036  0.00  0.00    +0.003 C 
ATOM     11  C   UNL     1      35.973 -23.973 -13.153  0.00  0.00    +0.106 C 
ATOM     12  C   UNL     1      34.743 -23.851 -13.798  0.00  0.00    +0.018 C 
ATOM     13  C   UNL     1      37.135 -23.509 -13.772  0.00  0.00    +0.018 C 
BRANCH  11  14
ATOM     14  S   UNL     1      36.061 -24.705 -11.571  0.00  0.00    +0.010 S 
ATOM     15  O   UNL     1      34.703 -24.835 -11.061  0.00  0.00    -0.169 OA
ATOM     16  O   UNL     1      36.922 -25.878 -11.639  0.00  0.00    -0.169 OA
ATOM     17  C   UNL     1      36.906 -23.500 -10.572  0.00  0.00    +0.182 C 
ENDBRANCH  11  14
ENDBRANCH   7   8
ENDBRANCH   1   3
BRANCH   1  18
ATOM     18  C   UNL     1      34.611 -19.705 -21.079  0.00  0.00    +0.205 C 
BRANCH  18  23
ATOM     19  O   UNL     1      33.674 -14.360 -24.481  0.00  0.00    -0.296 OA
ATOM     20  N   UNL     1      34.488 -15.750 -22.781  0.00  0.00    -0.251 N 
ATOM     21  N   UNL     1      34.619 -13.301 -22.749  0.00  0.00    -0.300 NA
ATOM     22  N   UNL     1      33.588 -12.991 -24.767  0.00  0.00    -0.010 NA
ATOM     23  C   UNL     1      35.034 -18.395 -21.741  0.00  0.00    +0.047 C 
ATOM     24  C   UNL     1      34.768 -17.205 -20.813  0.00  0.00    +0.025 C 
ATOM     25  C   UNL     1      34.291 -18.188 -23.064  0.00  0.00    +0.025 C 
ATOM     26  C   UNL     1      35.151 -15.883 -21.477  0.00  0.00    +0.096 C 
ATOM     27  C   UNL     1      34.670 -16.860 -23.721  0.00  0.00    +0.096 C 
ATOM     28  C   UNL     1      34.293 -14.454 -23.276  0.00  0.00    +0.379 C 
ATOM     29  C   UNL     1      34.166 -12.433 -23.699  0.00  0.00    +0.104 C 
BRANCH  29  30
ATOM     30  C   UNL     1      34.303 -10.980 -23.560  0.00  0.00    +0.101 C 
ATOM     31  C   UNL     1      34.989 -10.309 -24.779  0.00  0.00    +0.017 C 
ATOM     32  C   UNL     1      32.959 -10.260 -23.284  0.00  0.00    +0.017 C 
ENDBRANCH  29  30
ENDBRANCH  18  23
ENDBRANCH   1  18
TORSDOF 6
ENDMDL
MODEL 6
REMARK VINA RESULT:     -11.6      3.246      4.546
REMARK  Name = 24996872
REMARK  6 active torsions:
REMARK  status: ('A' for Active; 'I' for Inactive)
REMARK    1  A    between atoms: O_1  and  C_3
REMARK    2  A    between atoms: O_1  and  C_18
REMARK    3  A    between atoms: C_7  and  C_8
REMARK    4  A    between atoms: C_11  and  S_14
REMARK    5  A    between atoms: C_18  and  C_23
REMARK    6  A    between atoms: C_29  and  C_30
REMARK                            x       y       z     vdW  Elec       q    Type
REMARK                         _______ _______ _______ _____ _____    ______ ____
ROOT
ATOM      1  O   UNL     1      34.981 -19.088 -21.688  0.00  0.00    -0.474 OA
ENDROOT
BRANCH   1   3
ATOM      2  N   UNL     1      36.663 -20.595 -18.807  0.00  0.00    -0.241 NA
ATOM      3  C   UNL     1      35.174 -19.841 -20.556  0.00  0.00    +0.158 C 
ATOM      4  C   UNL     1      34.140 -20.593 -20.011  0.00  0.00    +0.040 C 
ATOM      5  C   UNL     1      36.406 -19.875 -19.922  0.00  0.00    +0.136 C 
ATOM      6  C   UNL     1      34.365 -21.347 -18.864  0.00  0.00    +0.022 C 
ATOM      7  C   UNL     1      35.633 -21.313 -18.305  0.00  0.00    +0.082 C 
BRANCH   7   8
ATOM      8  C   UNL     1      35.940 -22.070 -17.115  0.00  0.00    +0.018 C 
ATOM      9  C   UNL     1      37.216 -22.003 -16.555  0.00  0.00    +0.003 C 
ATOM     10  C   UNL     1      34.960 -22.866 -16.523  0.00  0.00    +0.003 C 
ATOM     11  C   UNL     1      36.532 -23.531 -14.813  0.00  0.00    +0.106 C 
ATOM     12  C   UNL     1      37.512 -22.735 -15.405  0.00  0.00    +0.018 C 
ATOM     13  C   UNL     1      35.256 -23.598 -15.373  0.00  0.00    +0.018 C 
BRANCH  11  14
ATOM     14  S   UNL     1      36.902 -24.446 -13.374  0.00  0.00    +0.010 S 
ATOM     15  O   UNL     1      38.279 -24.153 -12.998  0.00  0.00    -0.169 OA
ATOM     16  O   UNL     1      35.833 -24.255 -12.404  0.00  0.00    -0.169 OA
ATOM     17  C   UNL     1      36.829 -26.144 -13.898  0.00  0.00    +0.182 C 
ENDBRANCH  11  14
ENDBRANCH   7   8
ENDBRANCH   1   3
BRANCH   1  18
ATOM     18  C   UNL     1      36.090 -18.351 -22.168  0.00  0.00    +0.205 C 
BRANCH  18  23
ATOM     19  O   UNL     1      32.430 -13.117 -22.651  0.00  0.00    -0.296 OA
ATOM     20  N   UNL     1      33.956 -14.635 -21.728  0.00  0.00    -0.251 N 
ATOM     21  N   UNL     1      32.914 -12.793 -20.488  0.00  0.00    -0.300 NA
ATOM     22  N   UNL     1      31.680 -12.005 -22.246  0.00  0.00    -0.010 NA
ATOM     23  C   UNL     1      35.781 -16.862 -22.026  0.00  0.00    +0.047 C 
ATOM     24  C   UNL     1      35.069 -16.578 -20.699  0.00  0.00    +0.025 C 
ATOM     25  C   UNL     1      34.911 -16.372 -23.188  0.00  0.00    +0.025 C 
ATOM     26  C   UNL     1      34.718 -15.096 -20.560  0.00  0.00    +0.096 C 
ATOM     27  C   UNL     1      34.556 -14.892 -23.041  0.00  0.00    +0.096 C 
ATOM     28  C   UNL     1      33.126 -13.520 -21.556  0.00  0.00    +0.379 C 
ATOM     29  C   UNL     1      32.020 -11.877 -20.960  0.00  0.00    +0.104 C 
BRANCH  29  30
ATOM     30  C   UNL     1      31.465 -10.818 -20.112  0.00  0.00    +0.101 C 
ATOM     31  C   UNL     1      32.188 -10.682 -18.747  0.00  0.00    +0.017 C 
ATOM     32  C   UNL     1      31.435  -9.430 -20.802  0.00  0.00    +0.017 C 
ENDBRANCH  29  30
ENDBRANCH  18  23
ENDBRANCH   1  18
TORSDOF 6
ENDMDL
MODEL 7
REMARK VINA RESULT:     -11.3      3.847     11.604
REMARK  Name = 24996872
REMARK  6 active torsions:
REMARK  status: ('A' for Active; 'I' for Inactive)
REMARK    1  A    between atoms: O_1  and  C_3
REMARK    2  A    between atoms: O_1  and  C_18
REMARK    3  A    between atoms: C_7  and  C_8
REMARK    4  A    between atoms: C_11  and  S_14
REMARK    5  A    between atoms: C_18  and  C_23
REMARK    6  A    between atoms: C_29  and  C_30
REMARK                            x       y       z     vdW  Elec       q    Type
REMARK                         _______ _______ _______ _____ _____    ______ ____
ROOT
ATOM      1  O   UNL     1      34.123 -16.812 -24.241  0.00  0.00    -0.474 OA
ENDROOT
BRANCH   1   3
ATOM      2  N   UNL     1      33.236 -13.279 -24.612  0.00  0.00    -0.241 NA
ATOM      3  C   UNL     1      34.024 -15.471 -23.962  0.00  0.00    +0.158 C 
ATOM      4  C   UNL     1      34.577 -14.937 -22.804  0.00  0.00    +0.040 C 
ATOM      5  C   UNL     1      33.370 -14.608 -24.826  0.00  0.00    +0.136 C 
ATOM      6  C   UNL     1      34.461 -13.575 -22.548  0.00  0.00    +0.022 C 
ATOM      7  C   UNL     1      33.786 -12.797 -23.475  0.00  0.00    +0.082 C 
BRANCH   7   8
ATOM      8  C   UNL     1      33.626 -11.376 -23.276  0.00  0.00    +0.018 C 
ATOM      9  C   UNL     1      32.675 -10.900 -22.373  0.00  0.00    +0.003 C 
ATOM     10  C   UNL     1      34.424 -10.478 -23.986  0.00  0.00    +0.003 C 
ATOM     11  C   UNL     1      33.319  -8.630 -22.891  0.00  0.00    +0.106 C 
ATOM     12  C   UNL     1      32.522  -9.527 -22.182  0.00  0.00    +0.018 C 
ATOM     13  C   UNL     1      34.270  -9.105 -23.794  0.00  0.00    +0.018 C 
BRANCH  11  14
ATOM     14  S   UNL     1      33.127  -6.912 -22.651  0.00  0.00    +0.010 S 
ATOM     15  O   UNL     1      33.497  -6.607 -21.275  0.00  0.00    -0.169 OA
ATOM     16  O   UNL     1      33.776  -6.205 -23.747  0.00  0.00    -0.169 OA
ATOM     17  C   UNL     1      31.378  -6.634 -22.820  0.00  0.00    +0.182 C 
ENDBRANCH  11  14
ENDBRANCH   7   8
ENDBRANCH   1   3
BRANCH   1  18
ATOM     18  C   UNL     1      35.316 -17.465 -23.846  0.00  0.00    +0.205 C 
BRANCH  18  23
ATOM     19  O   UNL     1      34.512 -21.849 -19.247  0.00  0.00    -0.296 OA
ATOM     20  N   UNL     1      35.350 -19.947 -20.325  0.00  0.00    -0.251 N 
ATOM     21  N   UNL     1      36.313 -20.921 -18.291  0.00  0.00    -0.300 NA
ATOM     22  N   UNL     1      34.806 -22.634 -18.123  0.00  0.00    -0.010 NA
ATOM     23  C   UNL     1      35.153 -17.942 -22.405  0.00  0.00    +0.047 C 
ATOM     24  C   UNL     1      36.504 -18.356 -21.811  0.00  0.00    +0.025 C 
ATOM     25  C   UNL     1      34.179 -19.122 -22.328  0.00  0.00    +0.025 C 
ATOM     26  C   UNL     1      36.351 -18.872 -20.381  0.00  0.00    +0.096 C 
ATOM     27  C   UNL     1      34.035 -19.642 -20.897  0.00  0.00    +0.096 C 
ATOM     28  C   UNL     1      35.447 -20.864 -19.271  0.00  0.00    +0.379 C 
ATOM     29  C   UNL     1      35.879 -22.023 -17.613  0.00  0.00    +0.104 C 
BRANCH  29  30
ATOM     30  C   UNL     1      36.547 -22.509 -16.402  0.00  0.00    +0.101 C 
ATOM     31  C   UNL     1      37.612 -21.525 -15.851  0.00  0.00    +0.017 C 
ATOM     32  C   UNL     1      35.563 -22.870 -15.261  0.00  0.00    +0.017 C 
ENDBRANCH  29  30
ENDBRANCH  18  23
ENDBRANCH   1  18
TORSDOF 6
ENDMDL
MODEL 8
REMARK VINA RESULT:     -10.7      3.522      5.928
REMARK  Name = 24996872
REMARK  6 active torsions:
REMARK  status: ('A' for Active; 'I' for Inactive)
REMARK    1  A    between atoms: O_1  and  C_3
REMARK    2  A    between atoms: O_1  and  C_18
REMARK    3  A    between atoms: C_7  and  C_8
REMARK    4  A    between atoms: C_11  and  S_14
REMARK    5  A    between atoms: C_18  and  C_23
REMARK    6  A    between atoms: C_29  and  C_30
REMARK                            x       y       z     vdW  Elec       q    Type
REMARK                         _______ _______ _______ _____ _____    ______ ____
ROOT
ATOM      1  O   UNL     1      35.114 -20.336 -20.881  0.00  0.00    -0.474 OA
ENDROOT
BRANCH   1   3
ATOM      2  N   UNL     1      32.623 -21.546 -18.487  0.00  0.00    -0.241 NA
ATOM      3  C   UNL     1      34.581 -20.949 -19.774  0.00  0.00    +0.158 C 
ATOM      4  C   UNL     1      35.396 -21.575 -18.839  0.00  0.00    +0.040 C 
ATOM      5  C   UNL     1      33.212 -20.962 -19.555  0.00  0.00    +0.136 C 
ATOM      6  C   UNL     1      34.827 -22.187 -17.727  0.00  0.00    +0.022 C 
ATOM      7  C   UNL     1      33.448 -22.145 -17.600  0.00  0.00    +0.082 C 
BRANCH   7   8
ATOM      8  C   UNL     1      32.787 -22.759 -16.472  0.00  0.00    +0.018 C 
ATOM      9  C   UNL     1      33.543 -23.324 -15.444  0.00  0.00    +0.003 C 
ATOM     10  C   UNL     1      31.395 -22.787 -16.410  0.00  0.00    +0.003 C 
ATOM     11  C   UNL     1      31.511 -23.944 -14.293  0.00  0.00    +0.106 C 
ATOM     12  C   UNL     1      32.904 -23.916 -14.355  0.00  0.00    +0.018 C 
ATOM     13  C   UNL     1      30.756 -23.380 -15.321  0.00  0.00    +0.018 C 
BRANCH  11  14
ATOM     14  S   UNL     1      30.712 -24.686 -12.930  0.00  0.00    +0.010 S 
ATOM     15  O   UNL     1      31.549 -25.783 -12.461  0.00  0.00    -0.169 OA
ATOM     16  O   UNL     1      30.300 -23.644 -11.999  0.00  0.00    -0.169 OA
ATOM     17  C   UNL     1      29.227 -25.386 -13.614  0.00  0.00    +0.182 C 
ENDBRANCH  11  14
ENDBRANCH   7   8
ENDBRANCH   1   3
BRANCH   1  18
ATOM     18  C   UNL     1      36.219 -19.476 -20.671  0.00  0.00    +0.205 C 
BRANCH  18  23
ATOM     19  O   UNL     1      33.335 -15.786 -25.040  0.00  0.00    -0.296 OA
ATOM     20  N   UNL     1      34.679 -16.354 -23.207  0.00  0.00    -0.251 N 
ATOM     21  N   UNL     1      33.994 -14.066 -23.766  0.00  0.00    -0.300 NA
ATOM     22  N   UNL     1      32.782 -14.637 -25.620  0.00  0.00    -0.010 NA
ATOM     23  C   UNL     1      36.139 -18.329 -21.676  0.00  0.00    +0.047 C 
ATOM     24  C   UNL     1      35.559 -17.071 -21.021  0.00  0.00    +0.025 C 
ATOM     25  C   UNL     1      35.280 -18.720 -22.882  0.00  0.00    +0.025 C 
ATOM     26  C   UNL     1      35.437 -15.924 -22.025  0.00  0.00    +0.096 C 
ATOM     27  C   UNL     1      35.152 -17.568 -23.880  0.00  0.00    +0.096 C 
ATOM     28  C   UNL     1      34.032 -15.361 -23.954  0.00  0.00    +0.379 C 
ATOM     29  C   UNL     1      33.215 -13.665 -24.812  0.00  0.00    +0.104 C 
BRANCH  29  30
ATOM     30  C   UNL     1      32.873 -12.257 -25.037  0.00  0.00    +0.101 C 
ATOM     31  C   UNL     1      33.974 -11.274 -24.559  0.00  0.00    +0.017 C 
ATOM     32  C   UNL     1      32.526 -11.938 -26.513  0.00  0.00    +0.017 C 
ENDBRANCH  29  30
ENDBRANCH  18  23
ENDBRANCH   1  18
TORSDOF 6
ENDMDL
MODEL 9
REMARK VINA RESULT:     -10.5      2.148      3.121
REMARK  Name = 24996872
REMARK  6 active torsions:
REMARK  status: ('A' for Active; 'I' for Inactive)
REMARK    1  A    between atoms: O_1  and  C_3
REMARK    2  A    between atoms: O_1  and  C_18
REMARK    3  A    between atoms: C_7  and  C_8
REMARK    4  A    between atoms: C_11  and  S_14
REMARK    5  A    between atoms: C_18  and  C_23
REMARK    6  A    between atoms: C_29  and  C_30
REMARK                            x       y       z     vdW  Elec       q    Type
REMARK                         _______ _______ _______ _____ _____    ______ ____
ROOT
ATOM      1  O   UNL     1      35.946 -18.005 -22.680  0.00  0.00    -0.474 OA
ENDROOT
BRANCH   1   3
ATOM      2  N   UNL     1      36.676 -19.860 -19.609  0.00  0.00    -0.241 NA
ATOM      3  C   UNL     1      35.777 -18.859 -21.618  0.00  0.00    +0.158 C 
ATOM      4  C   UNL     1      34.597 -19.575 -21.455  0.00  0.00    +0.040 C 
ATOM      5  C   UNL     1      36.778 -19.036 -20.676  0.00  0.00    +0.136 C 
ATOM      6  C   UNL     1      34.454 -20.434 -20.371  0.00  0.00    +0.022 C 
ATOM      7  C   UNL     1      35.513 -20.539 -19.484  0.00  0.00    +0.082 C 
BRANCH   7   8
ATOM      8  C   UNL     1      35.436 -21.410 -18.336  0.00  0.00    +0.018 C 
ATOM      9  C   UNL     1      34.254 -22.097 -18.059  0.00  0.00    +0.003 C 
ATOM     10  C   UNL     1      36.544 -21.566 -17.503  0.00  0.00    +0.003 C 
ATOM     11  C   UNL     1      35.289 -23.095 -16.116  0.00  0.00    +0.106 C 
ATOM     12  C   UNL     1      34.181 -22.939 -16.949  0.00  0.00    +0.018 C 
ATOM     13  C   UNL     1      36.471 -22.408 -16.393  0.00  0.00    +0.018 C 
BRANCH  11  14
ATOM     14  S   UNL     1      35.197 -24.148 -14.728  0.00  0.00    +0.010 S 
ATOM     15  O   UNL     1      33.798 -24.253 -14.336  0.00  0.00    -0.169 OA
ATOM     16  O   UNL     1      35.964 -25.357 -14.999  0.00  0.00    -0.169 OA
ATOM     17  C   UNL     1      36.058 -23.266 -13.445  0.00  0.00    +0.182 C 
ENDBRANCH  11  14
ENDBRANCH   7   8
ENDBRANCH   1   3
BRANCH   1  18
ATOM     18  C   UNL     1      34.780 -17.410 -23.220  0.00  0.00    +0.205 C 
BRANCH  18  23
ATOM     19  O   UNL     1      33.034 -11.357 -24.372  0.00  0.00    -0.296 OA
ATOM     20  N   UNL     1      33.985 -13.177 -23.246  0.00  0.00    -0.251 N 
ATOM     21  N   UNL     1      33.615 -10.969 -22.244  0.00  0.00    -0.300 NA
ATOM     22  N   UNL     1      32.695 -10.022 -24.112  0.00  0.00    -0.010 NA
ATOM     23  C   UNL     1      34.977 -15.896 -23.248  0.00  0.00    +0.047 C 
ATOM     24  C   UNL     1      34.408 -15.249 -21.982  0.00  0.00    +0.025 C 
ATOM     25  C   UNL     1      34.308 -15.282 -24.482  0.00  0.00    +0.025 C 
ATOM     26  C   UNL     1      34.564 -13.729 -22.013  0.00  0.00    +0.096 C 
ATOM     27  C   UNL     1      34.458 -13.761 -24.505  0.00  0.00    +0.096 C 
ATOM     28  C   UNL     1      33.569 -11.840 -23.220  0.00  0.00    +0.379 C 
ATOM     29  C   UNL     1      33.067  -9.870 -22.837  0.00  0.00    +0.104 C 
BRANCH  29  30
ATOM     30  C   UNL     1      32.896  -8.600 -22.125  0.00  0.00    +0.101 C 
ATOM     31  C   UNL     1      33.968  -7.541 -22.494  0.00  0.00    +0.017 C 
ATOM     32  C   UNL     1      31.491  -7.974 -22.313  0.00  0.00    +0.017 C 
ENDBRANCH  29  30
ENDBRANCH  18  23
ENDBRANCH   1  18
TORSDOF 6
ENDMDL
