MODEL 1
REMARK VINA RESULT:     -12.8      0.000      0.000
REMARK  Name = 448889
REMARK  5 active torsions:
REMARK  status: ('A' for Active; 'I' for Inactive)
REMARK    1  A    between atoms: C_1  and  N_2
REMARK    2  A    between atoms: C_1  and  C_16
REMARK    3  A    between atoms: C_6  and  C_10
REMARK    4  A    between atoms: C_16  and  C_17
REMARK    5  A    between atoms: C_17  and  C_21
REMARK                            x       y       z     vdW  Elec       q    Type
REMARK                         _______ _______ _______ _____ _____    ______ ____
ROOT
ATOM      1  C   UNL     1      35.074 -15.656 -24.434  0.00  0.00    -0.076 C 
ENDROOT
BRANCH   1   2
ATOM      2  N   UNL     1      35.279 -16.787 -23.531  0.00  0.00    +0.390 N 
ATOM      3  C   UNL     1      34.243 -17.806 -23.717  0.00  0.00    -0.072 C 
ATOM      4  C   UNL     1      34.578 -19.050 -22.880  0.00  0.00    +0.003 C 
ATOM      5  C   UNL     1      35.319 -16.336 -22.132  0.00  0.00    -0.051 C 
ATOM      6  C   UNL     1      34.951 -18.718 -21.452  0.00  0.00    -0.031 C 
ATOM      7  C   UNL     1      35.288 -17.455 -21.126  0.00  0.00    -0.053 C 
ATOM      8  H   UNL     1      36.180 -17.209 -23.759  0.00  0.00    -0.079 HD
BRANCH   6  10
ATOM      9  F   UNL     1      34.904 -22.852 -17.653  0.00  0.00    -0.204 F 
ATOM     10  C   UNL     1      34.938 -19.810 -20.450  0.00  0.00    -0.004 C 
ATOM     11  C   UNL     1      33.727 -20.375 -20.044  0.00  0.00    +0.002 C 
ATOM     12  C   UNL     1      36.137 -20.276 -19.907  0.00  0.00    +0.002 C 
ATOM     13  C   UNL     1      33.715 -21.403 -19.101  0.00  0.00    +0.030 C 
ATOM     14  C   UNL     1      36.125 -21.304 -18.964  0.00  0.00    +0.030 C 
ATOM     15  C   UNL     1      34.915 -21.867 -18.560  0.00  0.00    +0.140 C 
ENDBRANCH   6  10
ENDBRANCH   1   2
BRANCH   1  16
ATOM     16  C   UNL     1      33.734 -14.978 -24.136  0.00  0.00    -0.014 C 
BRANCH  16  17
ATOM     17  C   UNL     1      33.817 -13.462 -24.214  0.00  0.00    +0.074 C 
BRANCH  17  21
ATOM     18  O   UNL     1      32.066 -13.770 -19.865  0.00  0.00    -0.209 OA
ATOM     19  N   UNL     1      33.037 -11.474 -23.005  0.00  0.00    -0.290 N 
ATOM     20  N   UNL     1      32.921 -13.627 -21.987  0.00  0.00    -0.322 NA
ATOM     21  C   UNL     1      33.219 -12.837 -22.978  0.00  0.00    +0.173 C 
ATOM     22  C   UNL     1      32.487 -10.841 -21.889  0.00  0.00    +0.058 C 
ATOM     23  C   UNL     1      32.138 -11.615 -20.774  0.00  0.00    +0.108 C 
ATOM     24  C   UNL     1      32.280  -9.459 -21.855  0.00  0.00    -0.008 C 
ATOM     25  C   UNL     1      32.372 -13.087 -20.836  0.00  0.00    +0.207 C 
ATOM     26  C   UNL     1      31.587 -11.019 -19.636  0.00  0.00    +0.014 C 
ATOM     27  C   UNL     1      31.729  -8.861 -20.720  0.00  0.00    -0.003 C 
ATOM     28  C   UNL     1      31.383  -9.640 -19.615  0.00  0.00    +0.001 C 
ATOM     29  C   UNL     1      32.635  -8.588 -23.016  0.00  0.00    +0.032 C 
ATOM     30  H   UNL     1      33.291 -10.953 -23.800  0.00  0.00    +0.154 HD
ENDBRANCH  17  21
ENDBRANCH  16  17
ENDBRANCH   1  16
TORSDOF 5
ENDMDL
MODEL 2
REMARK VINA RESULT:     -12.6      1.578      2.415
REMARK  Name = 448889
REMARK  5 active torsions:
REMARK  status: ('A' for Active; 'I' for Inactive)
REMARK    1  A    between atoms: C_1  and  N_2
REMARK    2  A    between atoms: C_1  and  C_16
REMARK    3  A    between atoms: C_6  and  C_10
REMARK    4  A    between atoms: C_16  and  C_17
REMARK    5  A    between atoms: C_17  and  C_21
REMARK                            x       y       z     vdW  Elec       q    Type
REMARK                         _______ _______ _______ _____ _____    ______ ____
ROOT
ATOM      1  C   UNL     1      34.953 -15.878 -24.215  0.00  0.00    -0.076 C 
ENDROOT
BRANCH   1   2
ATOM      2  N   UNL     1      34.648 -16.803 -23.126  0.00  0.00    +0.390 N 
ATOM      3  C   UNL     1      35.740 -16.847 -22.148  0.00  0.00    -0.072 C 
ATOM      4  C   UNL     1      35.321 -17.694 -20.937  0.00  0.00    +0.003 C 
ATOM      5  C   UNL     1      34.366 -18.149 -23.649  0.00  0.00    -0.051 C 
ATOM      6  C   UNL     1      34.710 -19.022 -21.327  0.00  0.00    -0.031 C 
ATOM      7  C   UNL     1      34.277 -19.213 -22.588  0.00  0.00    -0.053 C 
ATOM      8  H   UNL     1      33.813 -16.462 -22.650  0.00  0.00    -0.079 HD
BRANCH   6  10
ATOM      9  F   UNL     1      34.308 -23.023 -17.408  0.00  0.00    -0.204 F 
ATOM     10  C   UNL     1      34.603 -20.078 -20.293  0.00  0.00    -0.004 C 
ATOM     11  C   UNL     1      33.349 -20.512 -19.861  0.00  0.00    +0.002 C 
ATOM     12  C   UNL     1      35.758 -20.644 -19.748  0.00  0.00    +0.002 C 
ATOM     13  C   UNL     1      33.248 -21.507 -18.887  0.00  0.00    +0.030 C 
ATOM     14  C   UNL     1      35.658 -21.638 -18.775  0.00  0.00    +0.030 C 
ATOM     15  C   UNL     1      34.403 -22.069 -18.344  0.00  0.00    +0.140 C 
ENDBRANCH   6  10
ENDBRANCH   1   2
BRANCH   1  16
ATOM     16  C   UNL     1      33.844 -14.831 -24.346  0.00  0.00    -0.014 C 
BRANCH  16  17
ATOM     17  C   UNL     1      33.444 -14.235 -23.006  0.00  0.00    +0.074 C 
BRANCH  17  21
ATOM     18  O   UNL     1      35.047 -10.210 -24.822  0.00  0.00    -0.209 OA
ATOM     19  N   UNL     1      32.652 -12.059 -22.193  0.00  0.00    -0.290 N 
ATOM     20  N   UNL     1      34.270 -12.177 -23.940  0.00  0.00    -0.322 NA
ATOM     21  C   UNL     1      33.474 -12.728 -23.069  0.00  0.00    +0.173 C 
ATOM     22  C   UNL     1      32.638 -10.663 -22.206  0.00  0.00    +0.058 C 
ATOM     23  C   UNL     1      33.463  -9.986 -23.115  0.00  0.00    +0.108 C 
ATOM     24  C   UNL     1      31.823  -9.927 -21.342  0.00  0.00    -0.008 C 
ATOM     25  C   UNL     1      34.321 -10.796 -24.027  0.00  0.00    +0.207 C 
ATOM     26  C   UNL     1      33.477  -8.589 -23.161  0.00  0.00    +0.014 C 
ATOM     27  C   UNL     1      31.835  -8.532 -21.386  0.00  0.00    -0.003 C 
ATOM     28  C   UNL     1      32.661  -7.866 -22.292  0.00  0.00    +0.001 C 
ATOM     29  C   UNL     1      30.924 -10.599 -20.355  0.00  0.00    +0.032 C 
ATOM     30  H   UNL     1      32.082 -12.558 -21.565  0.00  0.00    +0.154 HD
ENDBRANCH  17  21
ENDBRANCH  16  17
ENDBRANCH   1  16
TORSDOF 5
ENDMDL
MODEL 3
REMARK VINA RESULT:     -12.3      1.185      1.887
REMARK  Name = 448889
REMARK  5 active torsions:
REMARK  status: ('A' for Active; 'I' for Inactive)
REMARK    1  A    between atoms: C_1  and  N_2
REMARK    2  A    between atoms: C_1  and  C_16
REMARK    3  A    between atoms: C_6  and  C_10
REMARK    4  A    between atoms: C_16  and  C_17
REMARK    5  A    between atoms: C_17  and  C_21
REMARK                            x       y       z     vdW  Elec       q    Type
REMARK                         _______ _______ _______ _____ _____    ______ ____
ROOT
ATOM      1  C   UNL     1      35.355 -16.086 -23.984  0.00  0.00    -0.076 C 
ENDROOT
BRANCH   1   2
ATOM      2  N   UNL     1      35.417 -17.230 -23.077  0.00  0.00    +0.390 N 
ATOM      3  C   UNL     1      34.331 -18.177 -23.347  0.00  0.00    -0.072 C 
ATOM      4  C   UNL     1      34.520 -19.443 -22.497  0.00  0.00    +0.003 C 
ATOM      5  C   UNL     1      35.382 -16.786 -21.675  0.00  0.00    -0.051 C 
ATOM      6  C   UNL     1      34.806 -19.140 -21.043  0.00  0.00    -0.031 C 
ATOM      7  C   UNL     1      35.202 -17.903 -20.683  0.00  0.00    -0.053 C 
ATOM      8  H   UNL     1      36.301 -17.711 -23.240  0.00  0.00    -0.079 HD
BRANCH   6  10
ATOM      9  F   UNL     1      34.193 -23.273 -17.291  0.00  0.00    -0.204 F 
ATOM     10  C   UNL     1      34.645 -20.231 -20.052  0.00  0.00    -0.004 C 
ATOM     11  C   UNL     1      35.769 -20.823 -19.472  0.00  0.00    +0.002 C 
ATOM     12  C   UNL     1      33.368 -20.669 -19.695  0.00  0.00    +0.002 C 
ATOM     13  C   UNL     1      35.617 -21.849 -18.539  0.00  0.00    +0.030 C 
ATOM     14  C   UNL     1      33.216 -21.696 -18.763  0.00  0.00    +0.030 C 
ATOM     15  C   UNL     1      34.340 -22.286 -18.185  0.00  0.00    +0.140 C 
ENDBRANCH   6  10
ENDBRANCH   1   2
BRANCH   1  16
ATOM     16  C   UNL     1      34.884 -14.839 -23.231  0.00  0.00    -0.014 C 
BRANCH  16  17
ATOM     17  C   UNL     1      33.466 -14.435 -23.602  0.00  0.00    +0.074 C 
BRANCH  17  21
ATOM     18  O   UNL     1      31.162 -11.586 -20.662  0.00  0.00    -0.209 OA
ATOM     19  N   UNL     1      33.810 -12.006 -23.642  0.00  0.00    -0.290 N 
ATOM     20  N   UNL     1      32.282 -12.981 -22.094  0.00  0.00    -0.322 NA
ATOM     21  C   UNL     1      33.150 -13.063 -23.061  0.00  0.00    +0.173 C 
ATOM     22  C   UNL     1      33.558 -10.712 -23.182  0.00  0.00    +0.058 C 
ATOM     23  C   UNL     1      32.638 -10.531 -22.140  0.00  0.00    +0.108 C 
ATOM     24  C   UNL     1      34.198  -9.598 -23.730  0.00  0.00    -0.008 C 
ATOM     25  C   UNL     1      31.970 -11.738 -21.572  0.00  0.00    +0.207 C 
ATOM     26  C   UNL     1      32.358  -9.253 -21.649  0.00  0.00    +0.014 C 
ATOM     27  C   UNL     1      33.920  -8.319 -23.242  0.00  0.00    -0.003 C 
ATOM     28  C   UNL     1      33.002  -8.148 -22.206  0.00  0.00    +0.001 C 
ATOM     29  C   UNL     1      35.187  -9.735 -24.842  0.00  0.00    +0.032 C 
ATOM     30  H   UNL     1      34.451 -12.160 -24.372  0.00  0.00    +0.154 HD
ENDBRANCH  17  21
ENDBRANCH  16  17
ENDBRANCH   1  16
TORSDOF 5
ENDMDL
MODEL 4
REMARK VINA RESULT:     -12.3      1.388      2.202
REMARK  Name = 448889
REMARK  5 active torsions:
REMARK  status: ('A' for Active; 'I' for Inactive)
REMARK    1  A    between atoms: C_1  and  N_2
REMARK    2  A    between atoms: C_1  and  C_16
REMARK    3  A    between atoms: C_6  and  C_10
REMARK    4  A    between atoms: C_16  and  C_17
REMARK    5  A    between atoms: C_17  and  C_21
REMARK                            x       y       z     vdW  Elec       q    Type
REMARK                         _______ _______ _______ _____ _____    ______ ____
ROOT
ATOM      1  C   UNL     1      34.689 -15.699 -24.951  0.00  0.00    -0.076 C 
ENDROOT
BRANCH   1   2
ATOM      2  N   UNL     1      34.994 -16.770 -24.005  0.00  0.00    +0.390 N 
ATOM      3  C   UNL     1      33.975 -17.824 -24.054  0.00  0.00    -0.072 C 
ATOM      4  C   UNL     1      34.408 -19.008 -23.175  0.00  0.00    +0.003 C 
ATOM      5  C   UNL     1      35.125 -16.237 -22.640  0.00  0.00    -0.051 C 
ATOM      6  C   UNL     1      34.877 -18.584 -21.801  0.00  0.00    -0.031 C 
ATOM      7  C   UNL     1      35.201 -17.297 -21.574  0.00  0.00    -0.053 C 
ATOM      8  H   UNL     1      35.886 -17.182 -24.276  0.00  0.00    -0.079 HD
BRANCH   6  10
ATOM      9  F   UNL     1      35.231 -22.489 -17.782  0.00  0.00    -0.204 F 
ATOM     10  C   UNL     1      34.969 -19.615 -20.741  0.00  0.00    -0.004 C 
ATOM     11  C   UNL     1      33.812 -20.219 -20.246  0.00  0.00    +0.002 C 
ATOM     12  C   UNL     1      36.216 -19.987 -20.233  0.00  0.00    +0.002 C 
ATOM     13  C   UNL     1      33.899 -21.189 -19.247  0.00  0.00    +0.030 C 
ATOM     14  C   UNL     1      36.304 -20.957 -19.235  0.00  0.00    +0.030 C 
ATOM     15  C   UNL     1      35.146 -21.558 -18.741  0.00  0.00    +0.140 C 
ENDBRANCH   6  10
ENDBRANCH   1   2
BRANCH   1  16
ATOM     16  C   UNL     1      33.684 -14.721 -24.338  0.00  0.00    -0.014 C 
BRANCH  16  17
ATOM     17  C   UNL     1      33.775 -13.332 -24.948  0.00  0.00    +0.074 C 
BRANCH  17  21
ATOM     18  O   UNL     1      33.025  -8.863 -23.709  0.00  0.00    -0.209 OA
ATOM     19  N   UNL     1      32.975 -12.743 -22.704  0.00  0.00    -0.290 N 
ATOM     20  N   UNL     1      33.393 -11.041 -24.320  0.00  0.00    -0.322 NA
ATOM     21  C   UNL     1      33.358 -12.286 -23.943  0.00  0.00    +0.173 C 
ATOM     22  C   UNL     1      32.579 -11.821 -21.734  0.00  0.00    +0.058 C 
ATOM     23  C   UNL     1      32.584 -10.457 -22.054  0.00  0.00    +0.108 C 
ATOM     24  C   UNL     1      32.177 -12.223 -20.457  0.00  0.00    -0.008 C 
ATOM     25  C   UNL     1      33.015 -10.055 -23.424  0.00  0.00    +0.207 C 
ATOM     26  C   UNL     1      32.193  -9.501 -21.111  0.00  0.00    +0.014 C 
ATOM     27  C   UNL     1      31.787 -11.271 -19.513  0.00  0.00    -0.003 C 
ATOM     28  C   UNL     1      31.796  -9.915 -19.840  0.00  0.00    +0.001 C 
ATOM     29  C   UNL     1      32.153 -13.665 -20.064  0.00  0.00    +0.032 C 
ATOM     30  H   UNL     1      32.981 -13.707 -22.504  0.00  0.00    +0.154 HD
ENDBRANCH  17  21
ENDBRANCH  16  17
ENDBRANCH   1  16
TORSDOF 5
ENDMDL
MODEL 5
REMARK VINA RESULT:     -12.1      3.940      9.885
REMARK  Name = 448889
REMARK  5 active torsions:
REMARK  status: ('A' for Active; 'I' for Inactive)
REMARK    1  A    between atoms: C_1  and  N_2
REMARK    2  A    between atoms: C_1  and  C_16
REMARK    3  A    between atoms: C_6  and  C_10
REMARK    4  A    between atoms: C_16  and  C_17
REMARK    5  A    between atoms: C_17  and  C_21
REMARK                            x       y       z     vdW  Elec       q    Type
REMARK                         _______ _______ _______ _____ _____    ______ ____
ROOT
ATOM      1  C   UNL     1      36.536 -18.160 -22.057  0.00  0.00    -0.076 C 
ENDROOT
BRANCH   1   2
ATOM      2  N   UNL     1      36.002 -16.804 -21.954  0.00  0.00    +0.390 N 
ATOM      3  C   UNL     1      35.200 -16.642 -20.738  0.00  0.00    -0.072 C 
ATOM      4  C   UNL     1      34.795 -15.169 -20.573  0.00  0.00    +0.003 C 
ATOM      5  C   UNL     1      35.212 -16.463 -23.147  0.00  0.00    -0.051 C 
ATOM      6  C   UNL     1      34.230 -14.566 -21.839  0.00  0.00    -0.031 C 
ATOM      7  C   UNL     1      34.432 -15.182 -23.020  0.00  0.00    -0.053 C 
ATOM      8  H   UNL     1      36.792 -16.160 -21.898  0.00  0.00    -0.079 HD
BRANCH   6  10
ATOM      9  F   UNL     1      31.348  -9.762 -21.454  0.00  0.00    -0.204 F 
ATOM     10  C   UNL     1      33.469 -13.298 -21.737  0.00  0.00    -0.004 C 
ATOM     11  C   UNL     1      32.573 -13.101 -20.684  0.00  0.00    +0.002 C 
ATOM     12  C   UNL     1      33.647 -12.295 -22.693  0.00  0.00    +0.002 C 
ATOM     13  C   UNL     1      31.857 -11.907 -20.588  0.00  0.00    +0.030 C 
ATOM     14  C   UNL     1      32.932 -11.102 -22.596  0.00  0.00    +0.030 C 
ATOM     15  C   UNL     1      32.036 -10.908 -21.545  0.00  0.00    +0.140 C 
ENDBRANCH   6  10
ENDBRANCH   1   2
BRANCH   1  16
ATOM     16  C   UNL     1      35.737 -19.111 -21.162  0.00  0.00    -0.014 C 
BRANCH  16  17
ATOM     17  C   UNL     1      36.621 -19.881 -20.194  0.00  0.00    +0.074 C 
BRANCH  17  21
ATOM     18  O   UNL     1      32.621 -22.129 -19.183  0.00  0.00    -0.209 OA
ATOM     19  N   UNL     1      36.375 -21.191 -18.133  0.00  0.00    -0.290 N 
ATOM     20  N   UNL     1      34.569 -21.030 -19.682  0.00  0.00    -0.322 NA
ATOM     21  C   UNL     1      35.782 -20.756 -19.296  0.00  0.00    +0.173 C 
ATOM     22  C   UNL     1      35.646 -22.003 -17.263  0.00  0.00    +0.058 C 
ATOM     23  C   UNL     1      34.331 -22.350 -17.601  0.00  0.00    +0.108 C 
ATOM     24  C   UNL     1      36.193 -22.479 -16.068  0.00  0.00    -0.008 C 
ATOM     25  C   UNL     1      33.772 -21.831 -18.883  0.00  0.00    +0.207 C 
ATOM     26  C   UNL     1      33.568 -23.163 -16.758  0.00  0.00    +0.014 C 
ATOM     27  C   UNL     1      35.433 -23.290 -15.223  0.00  0.00    -0.003 C 
ATOM     28  C   UNL     1      34.125 -23.630 -15.567  0.00  0.00    +0.001 C 
ATOM     29  C   UNL     1      37.590 -22.139 -15.660  0.00  0.00    +0.032 C 
ATOM     30  H   UNL     1      37.300 -20.933 -17.919  0.00  0.00    +0.154 HD
ENDBRANCH  17  21
ENDBRANCH  16  17
ENDBRANCH   1  16
TORSDOF 5
ENDMDL
MODEL 6
REMARK VINA RESULT:     -11.8      4.003     10.017
REMARK  Name = 448889
REMARK  5 active torsions:
REMARK  status: ('A' for Active; 'I' for Inactive)
REMARK    1  A    between atoms: C_1  and  N_2
REMARK    2  A    between atoms: C_1  and  C_16
REMARK    3  A    between atoms: C_6  and  C_10
REMARK    4  A    between atoms: C_16  and  C_17
REMARK    5  A    between atoms: C_17  and  C_21
REMARK                            x       y       z     vdW  Elec       q    Type
REMARK                         _______ _______ _______ _____ _____    ______ ____
ROOT
ATOM      1  C   UNL     1      33.649 -14.495 -23.797  0.00  0.00    -0.076 C 
ENDROOT
BRANCH   1   2
ATOM      2  N   UNL     1      33.675 -13.148 -23.232  0.00  0.00    +0.390 N 
ATOM      3  C   UNL     1      32.473 -12.886 -22.435  0.00  0.00    -0.072 C 
ATOM      4  C   UNL     1      32.605 -11.533 -21.720  0.00  0.00    +0.003 C 
ATOM      5  C   UNL     1      33.823 -12.140 -24.293  0.00  0.00    -0.051 C 
ATOM      6  C   UNL     1      33.061 -10.421 -22.638  0.00  0.00    -0.031 C 
ATOM      7  C   UNL     1      33.620 -10.724 -23.826  0.00  0.00    -0.053 C 
ATOM      8  H   UNL     1      34.483 -13.084 -22.613  0.00  0.00    -0.079 HD
BRANCH   6  10
ATOM      9  F   UNL     1      32.378  -5.112 -20.946  0.00  0.00    -0.204 F 
ATOM     10  C   UNL     1      32.881  -9.020 -22.190  0.00  0.00    -0.004 C 
ATOM     11  C   UNL     1      31.850  -8.693 -21.307  0.00  0.00    +0.002 C 
ATOM     12  C   UNL     1      33.742  -8.022 -22.651  0.00  0.00    +0.002 C 
ATOM     13  C   UNL     1      31.680  -7.374 -20.886  0.00  0.00    +0.030 C 
ATOM     14  C   UNL     1      33.572  -6.703 -22.230  0.00  0.00    +0.030 C 
ATOM     15  C   UNL     1      32.541  -6.378 -21.348  0.00  0.00    +0.140 C 
ENDBRANCH   6  10
ENDBRANCH   1   2
BRANCH   1  16
ATOM     16  C   UNL     1      34.572 -15.420 -23.001  0.00  0.00    -0.014 C 
BRANCH  16  17
ATOM     17  C   UNL     1      34.533 -16.855 -23.502  0.00  0.00    +0.074 C 
BRANCH  17  21
ATOM     18  O   UNL     1      38.195 -18.646 -21.167  0.00  0.00    -0.209 OA
ATOM     19  N   UNL     1      34.236 -18.591 -21.793  0.00  0.00    -0.290 N 
ATOM     20  N   UNL     1      36.413 -17.769 -22.310  0.00  0.00    -0.322 NA
ATOM     21  C   UNL     1      35.122 -17.789 -22.474  0.00  0.00    +0.173 C 
ATOM     22  C   UNL     1      34.724 -19.475 -20.829  0.00  0.00    +0.058 C 
ATOM     23  C   UNL     1      36.103 -19.518 -20.585  0.00  0.00    +0.108 C 
ATOM     24  C   UNL     1      33.874 -20.314 -20.102  0.00  0.00    -0.008 C 
ATOM     25  C   UNL     1      36.987 -18.611 -21.373  0.00  0.00    +0.207 C 
ATOM     26  C   UNL     1      36.632 -20.388 -19.628  0.00  0.00    +0.014 C 
ATOM     27  C   UNL     1      34.399 -21.185 -19.146  0.00  0.00    -0.003 C 
ATOM     28  C   UNL     1      35.774 -21.222 -18.910  0.00  0.00    +0.001 C 
ATOM     29  C   UNL     1      32.396 -20.308 -20.323  0.00  0.00    +0.032 C 
ATOM     30  H   UNL     1      33.272 -18.541 -21.983  0.00  0.00    +0.154 HD
ENDBRANCH  17  21
ENDBRANCH  16  17
ENDBRANCH   1  16
TORSDOF 5
ENDMDL
MODEL 7
REMARK VINA RESULT:     -11.8      4.978     10.509
REMARK  Name = 448889
REMARK  5 active torsions:
REMARK  status: ('A' for Active; 'I' for Inactive)
REMARK    1  A    between atoms: C_1  and  N_2
REMARK    2  A    between atoms: C_1  and  C_16
REMARK    3  A    between atoms: C_6  and  C_10
REMARK    4  A    between atoms: C_16  and  C_17
REMARK    5  A    between atoms: C_17  and  C_21
REMARK                            x       y       z     vdW  Elec       q    Type
REMARK                         _______ _______ _______ _____ _____    ______ ____
ROOT
ATOM      1  C   UNL     1      36.456 -21.341 -18.988  0.00  0.00    -0.076 C 
ENDROOT
BRANCH   1   2
ATOM      2  N   UNL     1      35.974 -20.144 -19.672  0.00  0.00    +0.390 N 
ATOM      3  C   UNL     1      34.945 -20.479 -20.662  0.00  0.00    -0.072 C 
ATOM      4  C   UNL     1      34.341 -19.192 -21.243  0.00  0.00    +0.003 C 
ATOM      5  C   UNL     1      37.088 -19.422 -20.306  0.00  0.00    -0.051 C 
ATOM      6  C   UNL     1      35.389 -18.188 -21.671  0.00  0.00    -0.031 C 
ATOM      7  C   UNL     1      36.655 -18.314 -21.228  0.00  0.00    -0.053 C 
ATOM      8  H   UNL     1      35.551 -19.533 -18.974  0.00  0.00    -0.079 HD
BRANCH   6  10
ATOM      9  F   UNL     1      33.834 -14.004 -25.078  0.00  0.00    -0.204 F 
ATOM     10  C   UNL     1      34.979 -17.083 -22.570  0.00  0.00    -0.004 C 
ATOM     11  C   UNL     1      35.037 -15.760 -22.127  0.00  0.00    +0.002 C 
ATOM     12  C   UNL     1      34.533 -17.362 -23.864  0.00  0.00    +0.002 C 
ATOM     13  C   UNL     1      34.652 -14.720 -22.973  0.00  0.00    +0.030 C 
ATOM     14  C   UNL     1      34.148 -16.322 -24.710  0.00  0.00    +0.030 C 
ATOM     15  C   UNL     1      34.206 -15.002 -24.265  0.00  0.00    +0.140 C 
ENDBRANCH   6  10
ENDBRANCH   1   2
BRANCH   1  16
ATOM     16  C   UNL     1      35.474 -21.752 -17.887  0.00  0.00    -0.014 C 
BRANCH  16  17
ATOM     17  C   UNL     1      34.234 -22.437 -18.438  0.00  0.00    +0.074 C 
BRANCH  17  21
ATOM     18  O   UNL     1      29.887 -22.376 -16.657  0.00  0.00    -0.209 OA
ATOM     19  N   UNL     1      33.762 -23.294 -16.188  0.00  0.00    -0.290 N 
ATOM     20  N   UNL     1      32.005 -22.403 -17.531  0.00  0.00    -0.322 NA
ATOM     21  C   UNL     1      33.251 -22.720 -17.329  0.00  0.00    +0.173 C 
ATOM     22  C   UNL     1      32.899 -23.578 -15.127  0.00  0.00    +0.058 C 
ATOM     23  C   UNL     1      31.538 -23.271 -15.260  0.00  0.00    +0.108 C 
ATOM     24  C   UNL     1      33.356 -24.162 -13.943  0.00  0.00    -0.008 C 
ATOM     25  C   UNL     1      31.077 -22.650 -16.535  0.00  0.00    +0.207 C 
ATOM     26  C   UNL     1      30.641 -23.542 -14.223  0.00  0.00    +0.014 C 
ATOM     27  C   UNL     1      32.462 -24.433 -12.905  0.00  0.00    -0.003 C 
ATOM     28  C   UNL     1      31.110 -24.123 -13.045  0.00  0.00    +0.001 C 
ATOM     29  C   UNL     1      34.796 -24.510 -13.750  0.00  0.00    +0.032 C 
ATOM     30  H   UNL     1      34.721 -23.500 -16.119  0.00  0.00    +0.154 HD
ENDBRANCH  17  21
ENDBRANCH  16  17
ENDBRANCH   1  16
TORSDOF 5
ENDMDL
MODEL 8
REMARK VINA RESULT:     -11.8      3.124      5.772
REMARK  Name = 448889
REMARK  5 active torsions:
REMARK  status: ('A' for Active; 'I' for Inactive)
REMARK    1  A    between atoms: C_1  and  N_2
REMARK    2  A    between atoms: C_1  and  C_16
REMARK    3  A    between atoms: C_6  and  C_10
REMARK    4  A    between atoms: C_16  and  C_17
REMARK    5  A    between atoms: C_17  and  C_21
REMARK                            x       y       z     vdW  Elec       q    Type
REMARK                         _______ _______ _______ _____ _____    ______ ____
ROOT
ATOM      1  C   UNL     1      35.772 -20.096 -20.506  0.00  0.00    -0.076 C 
ENDROOT
BRANCH   1   2
ATOM      2  N   UNL     1      35.206 -20.619 -19.265  0.00  0.00    +0.390 N 
ATOM      3  C   UNL     1      36.112 -21.586 -18.636  0.00  0.00    -0.072 C 
ATOM      4  C   UNL     1      35.568 -21.989 -17.257  0.00  0.00    +0.003 C 
ATOM      5  C   UNL     1      33.888 -21.226 -19.510  0.00  0.00    -0.051 C 
ATOM      6  C   UNL     1      34.101 -22.358 -17.285  0.00  0.00    -0.031 C 
ATOM      7  C   UNL     1      33.342 -21.997 -18.338  0.00  0.00    -0.053 C 
ATOM      8  H   UNL     1      35.085 -19.837 -18.622  0.00  0.00    -0.079 HD
BRANCH   6  10
ATOM      9  F   UNL     1      31.980 -25.198 -12.931  0.00  0.00    -0.204 F 
ATOM     10  C   UNL     1      33.542 -23.107 -16.135  0.00  0.00    -0.004 C 
ATOM     11  C   UNL     1      34.395 -23.696 -15.200  0.00  0.00    +0.002 C 
ATOM     12  C   UNL     1      32.159 -23.226 -15.983  0.00  0.00    +0.002 C 
ATOM     13  C   UNL     1      33.869 -24.401 -14.117  0.00  0.00    +0.030 C 
ATOM     14  C   UNL     1      31.632 -23.931 -14.901  0.00  0.00    +0.030 C 
ATOM     15  C   UNL     1      32.486 -24.520 -13.969  0.00  0.00    +0.140 C 
ENDBRANCH   6  10
ENDBRANCH   1   2
BRANCH   1  16
ATOM     16  C   UNL     1      34.710 -19.316 -21.285  0.00  0.00    -0.014 C 
BRANCH  16  17
ATOM     17  C   UNL     1      35.116 -19.060 -22.728  0.00  0.00    +0.074 C 
BRANCH  17  21
ATOM     18  O   UNL     1      33.653 -15.968 -25.948  0.00  0.00    -0.209 OA
ATOM     19  N   UNL     1      34.789 -16.692 -22.172  0.00  0.00    -0.290 N 
ATOM     20  N   UNL     1      34.367 -17.481 -24.382  0.00  0.00    -0.322 NA
ATOM     21  C   UNL     1      34.727 -17.663 -23.144  0.00  0.00    +0.173 C 
ATOM     22  C   UNL     1      34.441 -15.381 -22.500  0.00  0.00    +0.058 C 
ATOM     23  C   UNL     1      34.038 -15.094 -23.812  0.00  0.00    +0.108 C 
ATOM     24  C   UNL     1      34.481 -14.350 -21.557  0.00  0.00    -0.008 C 
ATOM     25  C   UNL     1      34.002 -16.213 -24.798  0.00  0.00    +0.207 C 
ATOM     26  C   UNL     1      33.680 -13.795 -24.181  0.00  0.00    +0.014 C 
ATOM     27  C   UNL     1      34.125 -13.051 -21.922  0.00  0.00    -0.003 C 
ATOM     28  C   UNL     1      33.726 -12.775 -23.230  0.00  0.00    +0.001 C 
ATOM     29  C   UNL     1      34.903 -14.602 -20.145  0.00  0.00    +0.032 C 
ATOM     30  H   UNL     1      35.075 -16.919 -21.259  0.00  0.00    +0.154 HD
ENDBRANCH  17  21
ENDBRANCH  16  17
ENDBRANCH   1  16
TORSDOF 5
ENDMDL
MODEL 9
REMARK VINA RESULT:     -11.8      2.974      5.450
REMARK  Name = 448889
REMARK  5 active torsions:
REMARK  status: ('A' for Active; 'I' for Inactive)
REMARK    1  A    between atoms: C_1  and  N_2
REMARK    2  A    between atoms: C_1  and  C_16
REMARK    3  A    between atoms: C_6  and  C_10
REMARK    4  A    between atoms: C_16  and  C_17
REMARK    5  A    between atoms: C_17  and  C_21
REMARK                            x       y       z     vdW  Elec       q    Type
REMARK                         _______ _______ _______ _____ _____    ______ ____
ROOT
ATOM      1  C   UNL     1      34.518 -19.864 -20.901  0.00  0.00    -0.076 C 
ENDROOT
BRANCH   1   2
ATOM      2  N   UNL     1      34.772 -20.381 -19.558  0.00  0.00    +0.390 N 
ATOM      3  C   UNL     1      36.112 -20.967 -19.462  0.00  0.00    -0.072 C 
ATOM      4  C   UNL     1      36.411 -21.348 -18.004  0.00  0.00    +0.003 C 
ATOM      5  C   UNL     1      33.746 -21.364 -19.176  0.00  0.00    -0.051 C 
ATOM      6  C   UNL     1      35.287 -22.123 -17.353  0.00  0.00    -0.031 C 
ATOM      7  C   UNL     1      34.062 -22.119 -17.913  0.00  0.00    -0.053 C 
ATOM      8  H   UNL     1      34.724 -19.597 -18.907  0.00  0.00    -0.079 HD
BRANCH   6  10
ATOM      9  F   UNL     1      36.381 -24.925 -12.612  0.00  0.00    -0.204 F 
ATOM     10  C   UNL     1      35.575 -22.863 -16.101  0.00  0.00    -0.004 C 
ATOM     11  C   UNL     1      34.567 -23.594 -15.471  0.00  0.00    +0.002 C 
ATOM     12  C   UNL     1      36.858 -22.832 -15.550  0.00  0.00    +0.002 C 
ATOM     13  C   UNL     1      34.838 -24.291 -14.293  0.00  0.00    +0.030 C 
ATOM     14  C   UNL     1      37.130 -23.529 -14.372  0.00  0.00    +0.030 C 
ATOM     15  C   UNL     1      36.120 -24.258 -13.743  0.00  0.00    +0.140 C 
ENDBRANCH   6  10
ENDBRANCH   1   2
BRANCH   1  16
ATOM     16  C   UNL     1      35.577 -18.824 -21.276  0.00  0.00    -0.014 C 
BRANCH  16  17
ATOM     17  C   UNL     1      35.701 -18.635 -22.779  0.00  0.00    +0.074 C 
BRANCH  17  21
ATOM     18  O   UNL     1      33.665 -15.877 -25.991  0.00  0.00    -0.209 OA
ATOM     19  N   UNL     1      34.999 -16.346 -22.240  0.00  0.00    -0.290 N 
ATOM     20  N   UNL     1      34.659 -17.227 -24.429  0.00  0.00    -0.322 NA
ATOM     21  C   UNL     1      35.075 -17.328 -23.200  0.00  0.00    +0.173 C 
ATOM     22  C   UNL     1      34.429 -15.116 -22.572  0.00  0.00    +0.058 C 
ATOM     23  C   UNL     1      33.952 -14.920 -23.875  0.00  0.00    +0.108 C 
ATOM     24  C   UNL     1      34.320 -14.080 -21.640  0.00  0.00    -0.008 C 
ATOM     25  C   UNL     1      34.078 -16.043 -24.848  0.00  0.00    +0.207 C 
ATOM     26  C   UNL     1      33.373 -13.704 -24.248  0.00  0.00    +0.014 C 
ATOM     27  C   UNL     1      33.743 -12.863 -22.010  0.00  0.00    -0.003 C 
ATOM     28  C   UNL     1      33.272 -12.676 -23.309  0.00  0.00    +0.001 C 
ATOM     29  C   UNL     1      34.812 -14.236 -20.238  0.00  0.00    +0.032 C 
ATOM     30  H   UNL     1      35.341 -16.509 -21.332  0.00  0.00    +0.154 HD
ENDBRANCH  17  21
ENDBRANCH  16  17
ENDBRANCH   1  16
TORSDOF 5
ENDMDL
