MODEL 1
REMARK VINA RESULT:     -12.8      0.000      0.000
REMARK  Name = 11581936
REMARK  5 active torsions:
REMARK  status: ('A' for Active; 'I' for Inactive)
REMARK    1  A    between atoms: C_1  and  C_9
REMARK    2  A    between atoms: C_4  and  O_19
REMARK    3  A    between atoms: C_10  and  C_14
REMARK    4  A    between atoms: O_19  and  C_20
REMARK    5  A    between atoms: C_20  and  C_22
REMARK                            x       y       z     vdW  Elec       q    Type
REMARK                         _______ _______ _______ _____ _____    ______ ____
ROOT
ATOM      1  C   UNL     1      33.971 -22.706 -16.874  0.00  0.00    +0.019 C 
ATOM      2  C   UNL     1      35.339 -22.436 -16.870  0.00  0.00    +0.005 C 
ATOM      3  C   UNL     1      33.196 -22.363 -17.982  0.00  0.00    +0.005 C 
ATOM      4  C   UNL     1      35.153 -21.483 -19.073  0.00  0.00    +0.139 C 
ATOM      5  C   UNL     1      35.932 -21.822 -17.973  0.00  0.00    +0.037 C 
ATOM      6  C   UNL     1      33.788 -21.750 -19.086  0.00  0.00    +0.037 C 
ENDROOT
BRANCH   1   9
ATOM      7  N   UNL     1      31.836 -24.065 -14.483  0.00  0.00    -0.208 N 
ATOM      8  N   UNL     1      32.027 -23.431 -15.653  0.00  0.00    -0.178 NA
ATOM      9  C   UNL     1      33.360 -23.338 -15.738  0.00  0.00    +0.100 C 
ATOM     10  C   UNL     1      34.010 -23.912 -14.626  0.00  0.00    +0.036 C 
ATOM     11  C   UNL     1      32.992 -24.376 -13.830  0.00  0.00    +0.086 C 
ATOM     12  C   UNL     1      30.495 -24.352 -14.036  0.00  0.00    +0.140 C 
BRANCH  10  14
ATOM     13  N   UNL     1      38.107 -24.293 -13.639  0.00  0.00    -0.242 NA
ATOM     14  C   UNL     1      35.396 -24.041 -14.291  0.00  0.00    +0.006 C 
ATOM     15  C   UNL     1      36.105 -25.181 -14.662  0.00  0.00    +0.021 C 
ATOM     16  C   UNL     1      36.047 -23.028 -13.593  0.00  0.00    +0.021 C 
ATOM     17  C   UNL     1      37.444 -25.257 -14.316  0.00  0.00    +0.099 C 
ATOM     18  C   UNL     1      37.389 -23.200 -13.294  0.00  0.00    +0.099 C 
ENDBRANCH  10  14
ENDBRANCH   1   9
BRANCH   4  19
ATOM     19  O   UNL     1      35.735 -20.881 -20.158  0.00  0.00    -0.468 OA
BRANCH  19  20
ATOM     20  C   UNL     1      36.544 -19.740 -19.899  0.00  0.00    +0.264 C 
BRANCH  20  22
ATOM     21  N   UNL     1      35.681 -17.485 -20.076  0.00  0.00    -0.406 NA
ATOM     22  C   UNL     1      36.072 -18.599 -20.738  0.00  0.00    +0.152 C 
ATOM     23  C   UNL     1      35.194 -16.473 -22.208  0.00  0.00    +0.026 C 
ATOM     24  C   UNL     1      35.248 -16.435 -20.800  0.00  0.00    +0.113 C 
ATOM     25  C   UNL     1      36.054 -18.729 -22.112  0.00  0.00    +0.031 C 
ATOM     26  C   UNL     1      35.608 -17.645 -22.854  0.00  0.00    +0.005 C 
ATOM     27  C   UNL     1      34.736 -15.358 -22.931  0.00  0.00    +0.002 C 
ATOM     28  C   UNL     1      34.837 -15.269 -20.159  0.00  0.00    +0.085 C 
ATOM     29  C   UNL     1      34.330 -14.204 -22.265  0.00  0.00    -0.004 C 
ATOM     30  C   UNL     1      34.381 -14.160 -20.877  0.00  0.00    -0.019 C 
ENDBRANCH  20  22
ENDBRANCH  19  20
ENDBRANCH   4  19
TORSDOF 5
ENDMDL
MODEL 2
REMARK VINA RESULT:     -12.4      1.014      1.534
REMARK  Name = 11581936
REMARK  5 active torsions:
REMARK  status: ('A' for Active; 'I' for Inactive)
REMARK    1  A    between atoms: C_1  and  C_9
REMARK    2  A    between atoms: C_4  and  O_19
REMARK    3  A    between atoms: C_10  and  C_14
REMARK    4  A    between atoms: O_19  and  C_20
REMARK    5  A    between atoms: C_20  and  C_22
REMARK                            x       y       z     vdW  Elec       q    Type
REMARK                         _______ _______ _______ _____ _____    ______ ____
ROOT
ATOM      1  C   UNL     1      34.224 -22.825 -16.462  0.00  0.00    +0.019 C 
ATOM      2  C   UNL     1      35.525 -22.324 -16.469  0.00  0.00    +0.005 C 
ATOM      3  C   UNL     1      33.451 -22.777 -17.622  0.00  0.00    +0.005 C 
ATOM      4  C   UNL     1      35.278 -21.730 -18.789  0.00  0.00    +0.139 C 
ATOM      5  C   UNL     1      36.054 -21.775 -17.637  0.00  0.00    +0.037 C 
ATOM      6  C   UNL     1      33.980 -22.228 -18.791  0.00  0.00    +0.037 C 
ENDROOT
BRANCH   1   9
ATOM      7  N   UNL     1      32.260 -23.838 -13.771  0.00  0.00    -0.208 N 
ATOM      8  N   UNL     1      32.401 -23.166 -14.926  0.00  0.00    -0.178 NA
ATOM      9  C   UNL     1      33.679 -23.390 -15.260  0.00  0.00    +0.100 C 
ATOM     10  C   UNL     1      34.344 -24.202 -14.317  0.00  0.00    +0.036 C 
ATOM     11  C   UNL     1      33.395 -24.477 -13.363  0.00  0.00    +0.086 C 
ATOM     12  C   UNL     1      30.988 -23.832 -13.090  0.00  0.00    +0.140 C 
BRANCH  10  14
ATOM     13  N   UNL     1      38.316 -25.649 -14.139  0.00  0.00    -0.242 NA
ATOM     14  C   UNL     1      35.688 -24.692 -14.258  0.00  0.00    +0.006 C 
ATOM     15  C   UNL     1      36.701 -23.897 -13.728  0.00  0.00    +0.021 C 
ATOM     16  C   UNL     1      35.992 -25.966 -14.728  0.00  0.00    +0.021 C 
ATOM     17  C   UNL     1      37.985 -24.417 -13.692  0.00  0.00    +0.099 C 
ATOM     18  C   UNL     1      37.308 -26.394 -14.647  0.00  0.00    +0.099 C 
ENDBRANCH  10  14
ENDBRANCH   1   9
BRANCH   4  19
ATOM     19  O   UNL     1      35.799 -21.191 -19.937  0.00  0.00    -0.468 OA
BRANCH  19  20
ATOM     20  C   UNL     1      36.162 -19.817 -19.892  0.00  0.00    +0.264 C 
BRANCH  20  22
ATOM     21  N   UNL     1      35.669 -17.772 -21.090  0.00  0.00    -0.406 NA
ATOM     22  C   UNL     1      35.629 -19.125 -21.102  0.00  0.00    +0.152 C 
ATOM     23  C   UNL     1      34.668 -17.791 -23.282  0.00  0.00    +0.026 C 
ATOM     24  C   UNL     1      35.196 -17.112 -22.165  0.00  0.00    +0.113 C 
ATOM     25  C   UNL     1      35.131 -19.875 -22.148  0.00  0.00    +0.031 C 
ATOM     26  C   UNL     1      34.645 -19.192 -23.253  0.00  0.00    +0.005 C 
ATOM     27  C   UNL     1      34.182 -17.070 -24.386  0.00  0.00    +0.002 C 
ATOM     28  C   UNL     1      35.220 -15.721 -22.194  0.00  0.00    +0.085 C 
ATOM     29  C   UNL     1      34.217 -15.678 -24.390  0.00  0.00    -0.004 C 
ATOM     30  C   UNL     1      34.736 -15.003 -23.292  0.00  0.00    -0.019 C 
ENDBRANCH  20  22
ENDBRANCH  19  20
ENDBRANCH   4  19
TORSDOF 5
ENDMDL
MODEL 3
REMARK VINA RESULT:     -12.4      1.407      2.282
REMARK  Name = 11581936
REMARK  5 active torsions:
REMARK  status: ('A' for Active; 'I' for Inactive)
REMARK    1  A    between atoms: C_1  and  C_9
REMARK    2  A    between atoms: C_4  and  O_19
REMARK    3  A    between atoms: C_10  and  C_14
REMARK    4  A    between atoms: O_19  and  C_20
REMARK    5  A    between atoms: C_20  and  C_22
REMARK                            x       y       z     vdW  Elec       q    Type
REMARK                         _______ _______ _______ _____ _____    ______ ____
ROOT
ATOM      1  C   UNL     1      33.624 -21.939 -18.108  0.00  0.00    +0.019 C 
ATOM      2  C   UNL     1      32.851 -21.099 -18.909  0.00  0.00    +0.005 C 
ATOM      3  C   UNL     1      34.985 -22.096 -18.371  0.00  0.00    +0.005 C 
ATOM      4  C   UNL     1      34.796 -20.578 -20.230  0.00  0.00    +0.139 C 
ATOM      5  C   UNL     1      33.439 -20.417 -19.974  0.00  0.00    +0.037 C 
ATOM      6  C   UNL     1      35.573 -21.413 -19.435  0.00  0.00    +0.037 C 
ENDROOT
BRANCH   1   9
ATOM      7  N   UNL     1      31.506 -23.508 -15.834  0.00  0.00    -0.208 N 
ATOM      8  N   UNL     1      31.694 -22.833 -16.980  0.00  0.00    -0.178 NA
ATOM      9  C   UNL     1      33.019 -22.642 -17.011  0.00  0.00    +0.100 C 
ATOM     10  C   UNL     1      33.667 -23.195 -15.887  0.00  0.00    +0.036 C 
ATOM     11  C   UNL     1      32.656 -23.752 -15.142  0.00  0.00    +0.086 C 
ATOM     12  C   UNL     1      30.173 -23.903 -15.446  0.00  0.00    +0.140 C 
BRANCH  10  14
ATOM     13  N   UNL     1      37.740 -23.307 -14.749  0.00  0.00    -0.242 NA
ATOM     14  C   UNL     1      35.045 -23.233 -15.501  0.00  0.00    +0.006 C 
ATOM     15  C   UNL     1      35.591 -24.394 -14.961  0.00  0.00    +0.021 C 
ATOM     16  C   UNL     1      35.850 -22.109 -15.664  0.00  0.00    +0.021 C 
ATOM     17  C   UNL     1      36.930 -24.379 -14.604  0.00  0.00    +0.099 C 
ATOM     18  C   UNL     1      37.177 -22.196 -15.276  0.00  0.00    +0.099 C 
ENDBRANCH  10  14
ENDBRANCH   1   9
BRANCH   4  19
ATOM     19  O   UNL     1      35.374 -19.906 -21.276  0.00  0.00    -0.468 OA
BRANCH  19  20
ATOM     20  C   UNL     1      36.196 -18.794 -20.946  0.00  0.00    +0.264 C 
BRANCH  20  22
ATOM     21  N   UNL     1      35.306 -17.547 -22.821  0.00  0.00    -0.406 NA
ATOM     22  C   UNL     1      35.585 -17.548 -21.497  0.00  0.00    +0.152 C 
ATOM     23  C   UNL     1      34.468 -15.301 -22.573  0.00  0.00    +0.026 C 
ATOM     24  C   UNL     1      34.754 -16.440 -23.353  0.00  0.00    +0.113 C 
ATOM     25  C   UNL     1      35.342 -16.483 -20.654  0.00  0.00    +0.031 C 
ATOM     26  C   UNL     1      34.773 -15.344 -21.206  0.00  0.00    +0.005 C 
ATOM     27  C   UNL     1      33.893 -14.163 -23.162  0.00  0.00    +0.002 C 
ATOM     28  C   UNL     1      34.449 -16.397 -24.712  0.00  0.00    +0.085 C 
ATOM     29  C   UNL     1      33.598 -14.146 -24.523  0.00  0.00    -0.004 C 
ATOM     30  C   UNL     1      33.878 -15.264 -25.298  0.00  0.00    -0.019 C 
ENDBRANCH  20  22
ENDBRANCH  19  20
ENDBRANCH   4  19
TORSDOF 5
ENDMDL
MODEL 4
REMARK VINA RESULT:     -12.1      1.293      3.332
REMARK  Name = 11581936
REMARK  5 active torsions:
REMARK  status: ('A' for Active; 'I' for Inactive)
REMARK    1  A    between atoms: C_1  and  C_9
REMARK    2  A    between atoms: C_4  and  O_19
REMARK    3  A    between atoms: C_10  and  C_14
REMARK    4  A    between atoms: O_19  and  C_20
REMARK    5  A    between atoms: C_20  and  C_22
REMARK                            x       y       z     vdW  Elec       q    Type
REMARK                         _______ _______ _______ _____ _____    ______ ____
ROOT
ATOM      1  C   UNL     1      34.836 -22.751 -16.769  0.00  0.00    +0.019 C 
ATOM      2  C   UNL     1      33.657 -22.675 -17.510  0.00  0.00    +0.005 C 
ATOM      3  C   UNL     1      35.970 -22.055 -17.188  0.00  0.00    +0.005 C 
ATOM      4  C   UNL     1      34.746 -21.210 -19.081  0.00  0.00    +0.139 C 
ATOM      5  C   UNL     1      33.612 -21.901 -18.670  0.00  0.00    +0.037 C 
ATOM      6  C   UNL     1      35.925 -21.281 -18.347  0.00  0.00    +0.037 C 
ENDROOT
BRANCH   1   9
ATOM      7  N   UNL     1      35.691 -24.763 -14.059  0.00  0.00    -0.208 N 
ATOM      8  N   UNL     1      36.032 -24.115 -15.186  0.00  0.00    -0.178 NA
ATOM      9  C   UNL     1      34.883 -23.547 -15.575  0.00  0.00    +0.100 C 
ATOM     10  C   UNL     1      33.819 -23.836 -14.695  0.00  0.00    +0.036 C 
ATOM     11  C   UNL     1      34.377 -24.626 -13.721  0.00  0.00    +0.086 C 
ATOM     12  C   UNL     1      36.689 -25.511 -13.333  0.00  0.00    +0.140 C 
BRANCH  10  14
ATOM     13  N   UNL     1      29.741 -22.710 -14.733  0.00  0.00    -0.242 NA
ATOM     14  C   UNL     1      32.439 -23.454 -14.708  0.00  0.00    +0.006 C 
ATOM     15  C   UNL     1      31.618 -23.826 -15.770  0.00  0.00    +0.021 C 
ATOM     16  C   UNL     1      31.906 -22.709 -13.659  0.00  0.00    +0.021 C 
ATOM     17  C   UNL     1      30.290 -23.432 -15.735  0.00  0.00    +0.099 C 
ATOM     18  C   UNL     1      30.566 -22.366 -13.719  0.00  0.00    +0.099 C 
ENDBRANCH  10  14
ENDBRANCH   1   9
BRANCH   4  19
ATOM     19  O   UNL     1      34.701 -20.449 -20.220  0.00  0.00    -0.468 OA
BRANCH  19  20
ATOM     20  C   UNL     1      35.912 -19.818 -20.616  0.00  0.00    +0.264 C 
BRANCH  20  22
ATOM     21  N   UNL     1      35.345 -17.472 -20.423  0.00  0.00    -0.406 NA
ATOM     22  C   UNL     1      35.598 -18.506 -21.257  0.00  0.00    +0.152 C 
ATOM     23  C   UNL     1      35.015 -16.078 -22.361  0.00  0.00    +0.026 C 
ATOM     24  C   UNL     1      35.058 -16.273 -20.965  0.00  0.00    +0.113 C 
ATOM     25  C   UNL     1      35.579 -18.412 -22.634  0.00  0.00    +0.031 C 
ATOM     26  C   UNL     1      35.283 -17.176 -23.189  0.00  0.00    +0.005 C 
ATOM     27  C   UNL     1      34.711 -14.813 -22.892  0.00  0.00    +0.002 C 
ATOM     28  C   UNL     1      34.792 -15.181 -20.142  0.00  0.00    +0.085 C 
ATOM     29  C   UNL     1      34.448 -13.738 -22.047  0.00  0.00    -0.004 C 
ATOM     30  C   UNL     1      34.489 -13.923 -20.670  0.00  0.00    -0.019 C 
ENDBRANCH  20  22
ENDBRANCH  19  20
ENDBRANCH   4  19
TORSDOF 5
ENDMDL
MODEL 5
REMARK VINA RESULT:     -12.0      3.559     11.350
REMARK  Name = 11581936
REMARK  5 active torsions:
REMARK  status: ('A' for Active; 'I' for Inactive)
REMARK    1  A    between atoms: C_1  and  C_9
REMARK    2  A    between atoms: C_4  and  O_19
REMARK    3  A    between atoms: C_10  and  C_14
REMARK    4  A    between atoms: O_19  and  C_20
REMARK    5  A    between atoms: C_20  and  C_22
REMARK                            x       y       z     vdW  Elec       q    Type
REMARK                         _______ _______ _______ _____ _____    ______ ____
ROOT
ATOM      1  C   UNL     1      33.752 -13.685 -21.726  0.00  0.00    +0.019 C 
ATOM      2  C   UNL     1      33.931 -14.283 -22.973  0.00  0.00    +0.005 C 
ATOM      3  C   UNL     1      34.273 -14.288 -20.581  0.00  0.00    +0.005 C 
ATOM      4  C   UNL     1      35.150 -16.079 -21.930  0.00  0.00    +0.139 C 
ATOM      5  C   UNL     1      34.632 -15.484 -23.075  0.00  0.00    +0.037 C 
ATOM      6  C   UNL     1      34.975 -15.489 -20.683  0.00  0.00    +0.037 C 
ENDROOT
BRANCH   1   9
ATOM      7  N   UNL     1      31.725 -11.001 -20.826  0.00  0.00    -0.208 N 
ATOM      8  N   UNL     1      32.207 -12.232 -20.586  0.00  0.00    -0.178 NA
ATOM      9  C   UNL     1      33.030 -12.448 -21.620  0.00  0.00    +0.100 C 
ATOM     10  C   UNL     1      33.067 -11.355 -22.512  0.00  0.00    +0.036 C 
ATOM     11  C   UNL     1      32.209 -10.432 -21.967  0.00  0.00    +0.086 C 
ATOM     12  C   UNL     1      30.783 -10.409 -19.907  0.00  0.00    +0.140 C 
BRANCH  10  14
ATOM     13  N   UNL     1      35.196 -10.722 -26.113  0.00  0.00    -0.242 NA
ATOM     14  C   UNL     1      33.788 -11.141 -23.730  0.00  0.00    +0.006 C 
ATOM     15  C   UNL     1      33.505 -11.908 -24.857  0.00  0.00    +0.021 C 
ATOM     16  C   UNL     1      34.777 -10.164 -23.799  0.00  0.00    +0.021 C 
ATOM     17  C   UNL     1      34.230 -11.662 -26.012  0.00  0.00    +0.099 C 
ATOM     18  C   UNL     1      35.445  -9.995 -25.000  0.00  0.00    +0.099 C 
ENDBRANCH  10  14
ENDBRANCH   1   9
BRANCH   4  19
ATOM     19  O   UNL     1      35.839 -17.260 -22.031  0.00  0.00    -0.468 OA
BRANCH  19  20
ATOM     20  C   UNL     1      35.070 -18.433 -22.261  0.00  0.00    +0.264 C 
BRANCH  20  22
ATOM     21  N   UNL     1      34.109 -19.972 -20.658  0.00  0.00    -0.406 NA
ATOM     22  C   UNL     1      35.232 -19.365 -21.106  0.00  0.00    +0.152 C 
ATOM     23  C   UNL     1      35.455 -21.082 -18.995  0.00  0.00    +0.026 C 
ATOM     24  C   UNL     1      34.217 -20.820 -19.617  0.00  0.00    +0.113 C 
ATOM     25  C   UNL     1      36.486 -19.558 -20.562  0.00  0.00    +0.031 C 
ATOM     26  C   UNL     1      36.593 -20.432 -19.490  0.00  0.00    +0.005 C 
ATOM     27  C   UNL     1      35.530 -21.972 -17.910  0.00  0.00    +0.002 C 
ATOM     28  C   UNL     1      33.086 -21.466 -19.125  0.00  0.00    +0.085 C 
ATOM     29  C   UNL     1      34.383 -22.605 -17.437  0.00  0.00    -0.004 C 
ATOM     30  C   UNL     1      33.160 -22.352 -18.046  0.00  0.00    -0.019 C 
ENDBRANCH  20  22
ENDBRANCH  19  20
ENDBRANCH   4  19
TORSDOF 5
ENDMDL
MODEL 6
REMARK VINA RESULT:     -11.8      1.866      3.953
REMARK  Name = 11581936
REMARK  5 active torsions:
REMARK  status: ('A' for Active; 'I' for Inactive)
REMARK    1  A    between atoms: C_1  and  C_9
REMARK    2  A    between atoms: C_4  and  O_19
REMARK    3  A    between atoms: C_10  and  C_14
REMARK    4  A    between atoms: O_19  and  C_20
REMARK    5  A    between atoms: C_20  and  C_22
REMARK                            x       y       z     vdW  Elec       q    Type
REMARK                         _______ _______ _______ _____ _____    ______ ____
ROOT
ATOM      1  C   UNL     1      34.357 -23.001 -15.848  0.00  0.00    +0.019 C 
ATOM      2  C   UNL     1      33.262 -23.017 -16.711  0.00  0.00    +0.005 C 
ATOM      3  C   UNL     1      35.561 -22.430 -16.259  0.00  0.00    +0.005 C 
ATOM      4  C   UNL     1      34.575 -21.895 -18.389  0.00  0.00    +0.139 C 
ATOM      5  C   UNL     1      33.372 -22.462 -17.986  0.00  0.00    +0.037 C 
ATOM      6  C   UNL     1      35.671 -21.874 -17.533  0.00  0.00    +0.037 C 
ENDROOT
BRANCH   1   9
ATOM      7  N   UNL     1      34.850 -24.339 -12.672  0.00  0.00    -0.208 N 
ATOM      8  N   UNL     1      35.342 -23.820 -13.809  0.00  0.00    -0.178 NA
ATOM      9  C   UNL     1      34.244 -23.572 -14.535  0.00  0.00    +0.100 C 
ATOM     10  C   UNL     1      33.060 -23.933 -13.857  0.00  0.00    +0.036 C 
ATOM     11  C   UNL     1      33.489 -24.427 -12.649  0.00  0.00    +0.086 C 
ATOM     12  C   UNL     1      35.752 -24.740 -11.619  0.00  0.00    +0.140 C 
BRANCH  10  14
ATOM     13  N   UNL     1      28.985 -23.696 -14.967  0.00  0.00    -0.242 NA
ATOM     14  C   UNL     1      31.681 -23.852 -14.233  0.00  0.00    +0.006 C 
ATOM     15  C   UNL     1      30.996 -24.996 -14.634  0.00  0.00    +0.021 C 
ATOM     16  C   UNL     1      31.015 -22.631 -14.201  0.00  0.00    +0.021 C 
ATOM     17  C   UNL     1      29.662 -24.866 -14.987  0.00  0.00    +0.099 C 
ATOM     18  C   UNL     1      29.681 -22.606 -14.573  0.00  0.00    +0.099 C 
ENDBRANCH  10  14
ENDBRANCH   1   9
BRANCH   4  19
ATOM     19  O   UNL     1      34.683 -21.349 -19.642  0.00  0.00    -0.468 OA
BRANCH  19  20
ATOM     20  C   UNL     1      35.907 -20.695 -19.952  0.00  0.00    +0.264 C 
BRANCH  20  22
ATOM     21  N   UNL     1      34.940 -19.768 -21.968  0.00  0.00    -0.406 NA
ATOM     22  C   UNL     1      35.631 -19.521 -20.831  0.00  0.00    +0.152 C 
ATOM     23  C   UNL     1      35.092 -17.420 -22.489  0.00  0.00    +0.026 C 
ATOM     24  C   UNL     1      34.672 -18.733 -22.787  0.00  0.00    +0.113 C 
ATOM     25  C   UNL     1      36.083 -18.272 -20.456  0.00  0.00    +0.031 C 
ATOM     26  C   UNL     1      35.805 -17.208 -21.302  0.00  0.00    +0.005 C 
ATOM     27  C   UNL     1      34.796 -16.364 -23.368  0.00  0.00    +0.002 C 
ATOM     28  C   UNL     1      33.963 -18.943 -23.967  0.00  0.00    +0.085 C 
ATOM     29  C   UNL     1      34.085 -16.601 -24.541  0.00  0.00    -0.004 C 
ATOM     30  C   UNL     1      33.669 -17.892 -24.841  0.00  0.00    -0.019 C 
ENDBRANCH  20  22
ENDBRANCH  19  20
ENDBRANCH   4  19
TORSDOF 5
ENDMDL
MODEL 7
REMARK VINA RESULT:     -10.3      2.662     10.520
REMARK  Name = 11581936
REMARK  5 active torsions:
REMARK  status: ('A' for Active; 'I' for Inactive)
REMARK    1  A    between atoms: C_1  and  C_9
REMARK    2  A    between atoms: C_4  and  O_19
REMARK    3  A    between atoms: C_10  and  C_14
REMARK    4  A    between atoms: O_19  and  C_20
REMARK    5  A    between atoms: C_20  and  C_22
REMARK                            x       y       z     vdW  Elec       q    Type
REMARK                         _______ _______ _______ _____ _____    ______ ____
ROOT
ATOM      1  C   UNL     1      34.477 -16.350 -23.557  0.00  0.00    +0.019 C 
ATOM      2  C   UNL     1      33.904 -17.542 -24.002  0.00  0.00    +0.005 C 
ATOM      3  C   UNL     1      35.351 -16.359 -22.470  0.00  0.00    +0.005 C 
ATOM      4  C   UNL     1      35.079 -18.744 -22.277  0.00  0.00    +0.139 C 
ATOM      5  C   UNL     1      34.206 -18.742 -23.359  0.00  0.00    +0.037 C 
ATOM      6  C   UNL     1      35.654 -17.560 -21.828  0.00  0.00    +0.037 C 
ENDROOT
BRANCH   1   9
ATOM      7  N   UNL     1      34.000 -13.714 -25.780  0.00  0.00    -0.208 N 
ATOM      8  N   UNL     1      34.409 -14.968 -25.527  0.00  0.00    -0.178 NA
ATOM      9  C   UNL     1      34.167 -15.114 -24.218  0.00  0.00    +0.100 C 
ATOM     10  C   UNL     1      33.605 -13.954 -23.645  0.00  0.00    +0.036 C 
ATOM     11  C   UNL     1      33.509 -13.063 -24.686  0.00  0.00    +0.086 C 
ATOM     12  C   UNL     1      34.106 -13.182 -27.117  0.00  0.00    +0.140 C 
BRANCH  10  14
ATOM     13  N   UNL     1      32.381 -13.068 -19.693  0.00  0.00    -0.242 NA
ATOM     14  C   UNL     1      33.192 -13.653 -22.308  0.00  0.00    +0.006 C 
ATOM     15  C   UNL     1      32.104 -12.815 -22.081  0.00  0.00    +0.021 C 
ATOM     16  C   UNL     1      33.873 -14.198 -21.223  0.00  0.00    +0.021 C 
ATOM     17  C   UNL     1      31.743 -12.556 -20.769  0.00  0.00    +0.099 C 
ATOM     18  C   UNL     1      33.433 -13.878 -19.949  0.00  0.00    +0.099 C 
ENDBRANCH  10  14
ENDBRANCH   1   9
BRANCH   4  19
ATOM     19  O   UNL     1      35.376 -19.924 -21.646  0.00  0.00    -0.468 OA
BRANCH  19  20
ATOM     20  C   UNL     1      36.105 -19.833 -20.428  0.00  0.00    +0.264 C 
BRANCH  20  22
ATOM     21  N   UNL     1      36.250 -21.082 -18.359  0.00  0.00    -0.406 NA
ATOM     22  C   UNL     1      35.474 -20.721 -19.408  0.00  0.00    +0.152 C 
ATOM     23  C   UNL     1      34.387 -22.348 -17.503  0.00  0.00    +0.026 C 
ATOM     24  C   UNL     1      35.715 -21.883 -17.418  0.00  0.00    +0.113 C 
ATOM     25  C   UNL     1      34.165 -21.126 -19.577  0.00  0.00    +0.031 C 
ATOM     26  C   UNL     1      33.618 -21.952 -18.606  0.00  0.00    +0.005 C 
ATOM     27  C   UNL     1      33.862 -23.185 -16.504  0.00  0.00    +0.002 C 
ATOM     28  C   UNL     1      36.479 -22.277 -16.322  0.00  0.00    +0.085 C 
ATOM     29  C   UNL     1      34.647 -23.564 -15.418  0.00  0.00    -0.004 C 
ATOM     30  C   UNL     1      35.957 -23.110 -15.328  0.00  0.00    -0.019 C 
ENDBRANCH  20  22
ENDBRANCH  19  20
ENDBRANCH   4  19
TORSDOF 5
ENDMDL
MODEL 8
REMARK VINA RESULT:     -10.1      8.800     16.469
REMARK  Name = 11581936
REMARK  5 active torsions:
REMARK  status: ('A' for Active; 'I' for Inactive)
REMARK    1  A    between atoms: C_1  and  C_9
REMARK    2  A    between atoms: C_4  and  O_19
REMARK    3  A    between atoms: C_10  and  C_14
REMARK    4  A    between atoms: O_19  and  C_20
REMARK    5  A    between atoms: C_20  and  C_22
REMARK                            x       y       z     vdW  Elec       q    Type
REMARK                         _______ _______ _______ _____ _____    ______ ____
ROOT
ATOM      1  C   UNL     1      32.241  -6.269 -22.830  0.00  0.00    +0.019 C 
ATOM      2  C   UNL     1      31.201  -7.152 -23.119  0.00  0.00    +0.005 C 
ATOM      3  C   UNL     1      33.505  -6.762 -22.503  0.00  0.00    +0.005 C 
ATOM      4  C   UNL     1      32.687  -9.012 -22.757  0.00  0.00    +0.139 C 
ATOM      5  C   UNL     1      31.425  -8.528 -23.082  0.00  0.00    +0.037 C 
ATOM      6  C   UNL     1      33.729  -8.138 -22.468  0.00  0.00    +0.037 C 
ENDROOT
BRANCH   1   9
ATOM      7  N   UNL     1      31.281  -2.968 -22.281  0.00  0.00    -0.208 N 
ATOM      8  N   UNL     1      31.274  -4.262 -21.918  0.00  0.00    -0.178 NA
ATOM      9  C   UNL     1      32.011  -4.852 -22.867  0.00  0.00    +0.100 C 
ATOM     10  C   UNL     1      32.483  -3.933 -23.828  0.00  0.00    +0.036 C 
ATOM     11  C   UNL     1      31.992  -2.718 -23.418  0.00  0.00    +0.086 C 
ATOM     12  C   UNL     1      30.574  -1.996 -21.482  0.00  0.00    +0.140 C 
BRANCH  10  14
ATOM     13  N   UNL     1      34.867  -4.437 -27.287  0.00  0.00    -0.242 NA
ATOM     14  C   UNL     1      33.290  -4.104 -24.999  0.00  0.00    +0.006 C 
ATOM     15  C   UNL     1      32.791  -3.759 -26.251  0.00  0.00    +0.021 C 
ATOM     16  C   UNL     1      34.580  -4.616 -24.893  0.00  0.00    +0.021 C 
ATOM     17  C   UNL     1      33.611  -3.943 -27.353  0.00  0.00    +0.099 C 
ATOM     18  C   UNL     1      35.321  -4.762 -26.055  0.00  0.00    +0.099 C 
ENDBRANCH  10  14
ENDBRANCH   1   9
BRANCH   4  19
ATOM     19  O   UNL     1      32.907 -10.365 -22.721  0.00  0.00    -0.468 OA
BRANCH  19  20
ATOM     20  C   UNL     1      34.168 -10.821 -23.196  0.00  0.00    +0.264 C 
BRANCH  20  22
ATOM     21  N   UNL     1      34.538 -13.197 -22.920  0.00  0.00    -0.406 NA
ATOM     22  C   UNL     1      34.028 -12.218 -23.702  0.00  0.00    +0.152 C 
ATOM     23  C   UNL     1      33.811 -14.799 -24.567  0.00  0.00    +0.026 C 
ATOM     24  C   UNL     1      34.431 -14.471 -23.344  0.00  0.00    +0.113 C 
ATOM     25  C   UNL     1      33.405 -12.442 -24.913  0.00  0.00    +0.031 C 
ATOM     26  C   UNL     1      33.297 -13.755 -25.347  0.00  0.00    +0.005 C 
ATOM     27  C   UNL     1      33.718 -16.139 -24.978  0.00  0.00    +0.002 C 
ATOM     28  C   UNL     1      34.941 -15.509 -22.568  0.00  0.00    +0.085 C 
ATOM     29  C   UNL     1      34.237 -17.158 -24.184  0.00  0.00    -0.004 C 
ATOM     30  C   UNL     1      34.849 -16.842 -22.978  0.00  0.00    -0.019 C 
ENDBRANCH  20  22
ENDBRANCH  19  20
ENDBRANCH   4  19
TORSDOF 5
ENDMDL
MODEL 9
REMARK VINA RESULT:     -10.0      9.107     16.947
REMARK  Name = 11581936
REMARK  5 active torsions:
REMARK  status: ('A' for Active; 'I' for Inactive)
REMARK    1  A    between atoms: C_1  and  C_9
REMARK    2  A    between atoms: C_4  and  O_19
REMARK    3  A    between atoms: C_10  and  C_14
REMARK    4  A    between atoms: O_19  and  C_20
REMARK    5  A    between atoms: C_20  and  C_22
REMARK                            x       y       z     vdW  Elec       q    Type
REMARK                         _______ _______ _______ _____ _____    ______ ____
ROOT
ATOM      1  C   UNL     1      33.035  -6.226 -23.394  0.00  0.00    +0.019 C 
ATOM      2  C   UNL     1      33.817  -6.554 -22.287  0.00  0.00    +0.005 C 
ATOM      3  C   UNL     1      31.819  -6.875 -23.607  0.00  0.00    +0.005 C 
ATOM      4  C   UNL     1      32.168  -8.174 -21.611  0.00  0.00    +0.139 C 
ATOM      5  C   UNL     1      33.381  -7.532 -21.392  0.00  0.00    +0.037 C 
ATOM      6  C   UNL     1      31.383  -7.852 -22.712  0.00  0.00    +0.037 C 
ENDROOT
BRANCH   1   9
ATOM      7  N   UNL     1      34.621  -4.327 -25.844  0.00  0.00    -0.208 N 
ATOM      8  N   UNL     1      34.491  -5.476 -25.159  0.00  0.00    -0.178 NA
ATOM      9  C   UNL     1      33.483  -5.220 -24.316  0.00  0.00    +0.100 C 
ATOM     10  C   UNL     1      32.977  -3.911 -24.468  0.00  0.00    +0.036 C 
ATOM     11  C   UNL     1      33.738  -3.358 -25.469  0.00  0.00    +0.086 C 
ATOM     12  C   UNL     1      35.631  -4.215 -26.868  0.00  0.00    +0.140 C 
BRANCH  10  14
ATOM     13  N   UNL     1      29.865  -1.842 -22.484  0.00  0.00    -0.242 NA
ATOM     14  C   UNL     1      31.925  -3.211 -23.796  0.00  0.00    +0.006 C 
ATOM     15  C   UNL     1      30.971  -2.509 -24.528  0.00  0.00    +0.021 C 
ATOM     16  C   UNL     1      31.845  -3.227 -22.406  0.00  0.00    +0.021 C 
ATOM     17  C   UNL     1      29.972  -1.848 -23.831  0.00  0.00    +0.099 C 
ATOM     18  C   UNL     1      30.808  -2.534 -21.805  0.00  0.00    +0.099 C 
ENDBRANCH  10  14
ENDBRANCH   1   9
BRANCH   4  19
ATOM     19  O   UNL     1      31.740  -9.134 -20.731  0.00  0.00    -0.468 OA
BRANCH  19  20
ATOM     20  C   UNL     1      31.051 -10.248 -21.284  0.00  0.00    +0.264 C 
BRANCH  20  22
ATOM     21  N   UNL     1      32.539 -11.909 -22.228  0.00  0.00    -0.406 NA
ATOM     22  C   UNL     1      31.886 -11.475 -21.124  0.00  0.00    +0.152 C 
ATOM     23  C   UNL     1      33.432 -13.715 -20.905  0.00  0.00    +0.026 C 
ATOM     24  C   UNL     1      33.302 -13.013 -22.122  0.00  0.00    +0.113 C 
ATOM     25  C   UNL     1      31.952 -12.094 -19.893  0.00  0.00    +0.031 C 
ATOM     26  C   UNL     1      32.740 -13.232 -19.788  0.00  0.00    +0.005 C 
ATOM     27  C   UNL     1      34.236 -14.865 -20.832  0.00  0.00    +0.002 C 
ATOM     28  C   UNL     1      33.991 -13.494 -23.232  0.00  0.00    +0.085 C 
ATOM     29  C   UNL     1      34.915 -15.324 -21.958  0.00  0.00    -0.004 C 
ATOM     30  C   UNL     1      34.791 -14.638 -23.159  0.00  0.00    -0.019 C 
ENDBRANCH  20  22
ENDBRANCH  19  20
ENDBRANCH   4  19
TORSDOF 5
ENDMDL
