MODEL 1
REMARK VINA RESULT:     -12.3      0.000      0.000
REMARK  Name = 16363
REMARK  6 active torsions:
REMARK  status: ('A' for Active; 'I' for Inactive)
REMARK    1  A    between atoms: N_1  and  C_19
REMARK    2  A    between atoms: C_2  and  N_9
REMARK    3  A    between atoms: C_19  and  C_20
REMARK    4  A    between atoms: C_20  and  C_21
REMARK    5  A    between atoms: C_21  and  C_23
REMARK    6  A    between atoms: C_23  and  C_25
REMARK                            x       y       z     vdW  Elec       q    Type
REMARK                         _______ _______ _______ _____ _____    ______ ____
ROOT
ATOM      1  N   UNL     1      34.061 -16.212 -23.971  0.00  0.00    +0.387 N 
ATOM      2  C   UNL     1      34.264 -13.295 -23.882  0.00  0.00    +0.086 C 
ATOM      3  C   UNL     1      33.253 -14.017 -24.772  0.00  0.00    -0.000 C 
ATOM      4  C   UNL     1      34.641 -14.176 -22.691  0.00  0.00    -0.000 C 
ATOM      5  C   UNL     1      33.750 -15.410 -25.162  0.00  0.00    -0.075 C 
ATOM      6  C   UNL     1      35.093 -15.565 -23.148  0.00  0.00    -0.075 C 
ATOM      7  H   UNL     1      33.213 -16.286 -23.411  0.00  0.00    -0.080 HD
ENDROOT
BRANCH   2   9
ATOM      8  O   UNL     1      34.728 -10.540 -25.017  0.00  0.00    -0.247 OA
ATOM      9  N   UNL     1      33.750 -12.024 -23.437  0.00  0.00    -0.282 N 
ATOM     10  N   UNL     1      33.312  -9.807 -23.270  0.00  0.00    -0.305 N 
ATOM     11  C   UNL     1      32.898 -11.830 -22.342  0.00  0.00    +0.079 A 
ATOM     12  C   UNL     1      34.026 -10.767 -24.041  0.00  0.00    +0.328 A 
ATOM     13  C   UNL     1      32.634 -10.466 -22.245  0.00  0.00    +0.076 A 
ATOM     14  C   UNL     1      32.357 -12.734 -21.453  0.00  0.00    +0.019 C 
ATOM     15  C   UNL     1      31.822  -9.938 -21.265  0.00  0.00    +0.019 C 
ATOM     16  C   UNL     1      31.529 -12.223 -20.448  0.00  0.00    +0.002 C 
ATOM     17  C   UNL     1      31.265 -10.840 -20.355  0.00  0.00    +0.002 C 
ATOM     18  H   UNL     1      33.298  -8.836 -23.435  0.00  0.00    +0.170 HD
ENDBRANCH   2   9
BRANCH   1  19
ATOM     19  C   UNL     1      34.487 -17.558 -24.358  0.00  0.00    -0.077 C 
BRANCH  19  20
ATOM     20  C   UNL     1      34.178 -18.552 -23.237  0.00  0.00    -0.015 C 
BRANCH  20  21
ATOM     21  C   UNL     1      35.441 -19.015 -22.505  0.00  0.00    +0.067 C 
BRANCH  21  23
ATOM     22  O   UNL     1      35.627 -17.779 -20.440  0.00  0.00    -0.291 OA
ATOM     23  C   UNL     1      35.362 -18.844 -20.995  0.00  0.00    +0.173 C 
BRANCH  23  25
ATOM     24  F   UNL     1      33.738 -23.190 -17.890  0.00  0.00    -0.204 F 
ATOM     25  C   UNL     1      34.928 -20.004 -20.167  0.00  0.00    +0.035 C 
ATOM     26  C   UNL     1      35.891 -20.783 -19.566  0.00  0.00    +0.005 C 
ATOM     27  C   UNL     1      33.580 -20.254 -20.032  0.00  0.00    +0.005 C 
ATOM     28  C   UNL     1      35.486 -21.869 -18.790  0.00  0.00    +0.030 C 
ATOM     29  C   UNL     1      33.175 -21.340 -19.256  0.00  0.00    +0.030 C 
ATOM     30  C   UNL     1      34.127 -22.147 -18.635  0.00  0.00    +0.140 C 
ENDBRANCH  23  25
ENDBRANCH  21  23
ENDBRANCH  20  21
ENDBRANCH  19  20
ENDBRANCH   1  19
TORSDOF 6
ENDMDL
MODEL 2
REMARK VINA RESULT:     -12.2      0.730      1.254
REMARK  Name = 16363
REMARK  6 active torsions:
REMARK  status: ('A' for Active; 'I' for Inactive)
REMARK    1  A    between atoms: N_1  and  C_19
REMARK    2  A    between atoms: C_2  and  N_9
REMARK    3  A    between atoms: C_19  and  C_20
REMARK    4  A    between atoms: C_20  and  C_21
REMARK    5  A    between atoms: C_21  and  C_23
REMARK    6  A    between atoms: C_23  and  C_25
REMARK                            x       y       z     vdW  Elec       q    Type
REMARK                         _______ _______ _______ _____ _____    ______ ____
ROOT
ATOM      1  N   UNL     1      34.708 -15.638 -23.923  0.00  0.00    +0.387 N 
ATOM      2  C   UNL     1      33.262 -13.278 -22.975  0.00  0.00    +0.086 C 
ATOM      3  C   UNL     1      34.552 -13.766 -22.315  0.00  0.00    -0.000 C 
ATOM      4  C   UNL     1      33.210 -13.737 -24.432  0.00  0.00    -0.000 C 
ATOM      5  C   UNL     1      34.735 -15.273 -22.500  0.00  0.00    -0.075 C 
ATOM      6  C   UNL     1      33.438 -15.245 -24.549  0.00  0.00    -0.075 C 
ATOM      7  H   UNL     1      35.459 -15.132 -24.392  0.00  0.00    -0.080 HD
ENDROOT
BRANCH   2   9
ATOM      8  O   UNL     1      34.283 -11.147 -24.848  0.00  0.00    -0.247 OA
ATOM      9  N   UNL     1      33.141 -11.845 -22.883  0.00  0.00    -0.282 N 
ATOM     10  N   UNL     1      33.302  -9.628 -23.323  0.00  0.00    -0.305 N 
ATOM     11  C   UNL     1      32.493 -11.149 -21.854  0.00  0.00    +0.079 A 
ATOM     12  C   UNL     1      33.659 -10.913 -23.822  0.00  0.00    +0.328 A 
ATOM     13  C   UNL     1      32.596  -9.787 -22.131  0.00  0.00    +0.076 A 
ATOM     14  C   UNL     1      31.841 -11.608 -20.729  0.00  0.00    +0.019 C 
ATOM     15  C   UNL     1      32.059  -8.823 -21.308  0.00  0.00    +0.019 C 
ATOM     16  C   UNL     1      31.286 -10.648 -19.876  0.00  0.00    +0.002 C 
ATOM     17  C   UNL     1      31.394  -9.270 -20.163  0.00  0.00    +0.002 C 
ATOM     18  H   UNL     1      33.518  -8.768 -23.751  0.00  0.00    +0.170 HD
ENDBRANCH   2   9
BRANCH   1  19
ATOM     19  C   UNL     1      34.936 -17.074 -24.087  0.00  0.00    -0.077 C 
BRANCH  19  20
ATOM     20  C   UNL     1      34.549 -17.820 -22.809  0.00  0.00    -0.015 C 
BRANCH  20  21
ATOM     21  C   UNL     1      35.561 -18.909 -22.442  0.00  0.00    +0.067 C 
BRANCH  21  23
ATOM     22  O   UNL     1      36.599 -18.251 -20.365  0.00  0.00    -0.291 OA
ATOM     23  C   UNL     1      35.826 -19.009 -20.946  0.00  0.00    +0.173 C 
BRANCH  23  25
ATOM     24  F   UNL     1      33.128 -22.913 -18.005  0.00  0.00    -0.204 F 
ATOM     25  C   UNL     1      35.105 -20.052 -20.162  0.00  0.00    +0.035 C 
ATOM     26  C   UNL     1      35.843 -20.953 -19.427  0.00  0.00    +0.005 C 
ATOM     27  C   UNL     1      33.729 -20.075 -20.200  0.00  0.00    +0.005 C 
ATOM     28  C   UNL     1      35.170 -21.928 -18.692  0.00  0.00    +0.030 C 
ATOM     29  C   UNL     1      33.056 -21.050 -19.465  0.00  0.00    +0.030 C 
ATOM     30  C   UNL     1      33.775 -21.976 -18.711  0.00  0.00    +0.140 C 
ENDBRANCH  23  25
ENDBRANCH  21  23
ENDBRANCH  20  21
ENDBRANCH  19  20
ENDBRANCH   1  19
TORSDOF 6
ENDMDL
MODEL 3
REMARK VINA RESULT:     -12.0      1.606      2.170
REMARK  Name = 16363
REMARK  6 active torsions:
REMARK  status: ('A' for Active; 'I' for Inactive)
REMARK    1  A    between atoms: N_1  and  C_19
REMARK    2  A    between atoms: C_2  and  N_9
REMARK    3  A    between atoms: C_19  and  C_20
REMARK    4  A    between atoms: C_20  and  C_21
REMARK    5  A    between atoms: C_21  and  C_23
REMARK    6  A    between atoms: C_23  and  C_25
REMARK                            x       y       z     vdW  Elec       q    Type
REMARK                         _______ _______ _______ _____ _____    ______ ____
ROOT
ATOM      1  N   UNL     1      34.195 -15.850 -23.365  0.00  0.00    +0.387 N 
ATOM      2  C   UNL     1      33.755 -13.019 -22.771  0.00  0.00    +0.086 C 
ATOM      3  C   UNL     1      32.994 -13.750 -23.877  0.00  0.00    -0.000 C 
ATOM      4  C   UNL     1      34.222 -14.014 -21.708  0.00  0.00    -0.000 C 
ATOM      5  C   UNL     1      33.809 -14.919 -24.434  0.00  0.00    -0.075 C 
ATOM      6  C   UNL     1      34.997 -15.175 -22.335  0.00  0.00    -0.075 C 
ATOM      7  H   UNL     1      33.343 -16.194 -22.924  0.00  0.00    -0.080 HD
ENDROOT
BRANCH   2   9
ATOM      8  O   UNL     1      31.627 -13.224 -20.644  0.00  0.00    -0.247 OA
ATOM      9  N   UNL     1      32.946 -11.981 -22.183  0.00  0.00    -0.282 N 
ATOM     10  N   UNL     1      31.427 -10.882 -20.910  0.00  0.00    -0.305 N 
ATOM     11  C   UNL     1      33.008 -10.620 -22.510  0.00  0.00    +0.079 A 
ATOM     12  C   UNL     1      31.960 -12.175 -21.177  0.00  0.00    +0.328 A 
ATOM     13  C   UNL     1      32.071  -9.951 -21.724  0.00  0.00    +0.076 A 
ATOM     14  C   UNL     1      33.799  -9.948 -23.417  0.00  0.00    +0.019 C 
ATOM     15  C   UNL     1      31.879  -8.590 -21.803  0.00  0.00    +0.019 C 
ATOM     16  C   UNL     1      33.622  -8.564 -23.516  0.00  0.00    +0.002 C 
ATOM     17  C   UNL     1      32.672  -7.892 -22.718  0.00  0.00    +0.002 C 
ATOM     18  H   UNL     1      30.719 -10.679 -20.256  0.00  0.00    +0.170 HD
ENDBRANCH   2   9
BRANCH   1  19
ATOM     19  C   UNL     1      34.929 -16.988 -23.919  0.00  0.00    -0.077 C 
BRANCH  19  20
ATOM     20  C   UNL     1      34.508 -18.281 -23.217  0.00  0.00    -0.015 C 
BRANCH  20  21
ATOM     21  C   UNL     1      35.681 -18.967 -22.511  0.00  0.00    +0.067 C 
BRANCH  21  23
ATOM     22  O   UNL     1      36.042 -17.842 -20.407  0.00  0.00    -0.291 OA
ATOM     23  C   UNL     1      35.632 -18.840 -20.995  0.00  0.00    +0.173 C 
BRANCH  23  25
ATOM     24  F   UNL     1      33.450 -23.035 -18.026  0.00  0.00    -0.204 F 
ATOM     25  C   UNL     1      35.049 -19.960 -20.203  0.00  0.00    +0.035 C 
ATOM     26  C   UNL     1      35.903 -20.829 -19.561  0.00  0.00    +0.005 C 
ATOM     27  C   UNL     1      33.679 -20.085 -20.142  0.00  0.00    +0.005 C 
ATOM     28  C   UNL     1      35.358 -21.876 -18.819  0.00  0.00    +0.030 C 
ATOM     29  C   UNL     1      33.135 -21.132 -19.400  0.00  0.00    +0.030 C 
ATOM     30  C   UNL     1      33.973 -22.028 -18.738  0.00  0.00    +0.140 C 
ENDBRANCH  23  25
ENDBRANCH  21  23
ENDBRANCH  20  21
ENDBRANCH  19  20
ENDBRANCH   1  19
TORSDOF 6
ENDMDL
MODEL 4
REMARK VINA RESULT:     -12.0      3.778      9.268
REMARK  Name = 16363
REMARK  6 active torsions:
REMARK  status: ('A' for Active; 'I' for Inactive)
REMARK    1  A    between atoms: N_1  and  C_19
REMARK    2  A    between atoms: C_2  and  N_9
REMARK    3  A    between atoms: C_19  and  C_20
REMARK    4  A    between atoms: C_20  and  C_21
REMARK    5  A    between atoms: C_21  and  C_23
REMARK    6  A    between atoms: C_23  and  C_25
REMARK                            x       y       z     vdW  Elec       q    Type
REMARK                         _______ _______ _______ _____ _____    ______ ____
ROOT
ATOM      1  N   UNL     1      35.155 -15.572 -22.807  0.00  0.00    +0.387 N 
ATOM      2  C   UNL     1      34.821 -18.036 -21.265  0.00  0.00    +0.086 C 
ATOM      3  C   UNL     1      35.256 -18.042 -22.731  0.00  0.00    -0.000 C 
ATOM      4  C   UNL     1      35.197 -16.708 -20.610  0.00  0.00    -0.000 C 
ATOM      5  C   UNL     1      34.730 -16.811 -23.472  0.00  0.00    -0.075 C 
ATOM      6  C   UNL     1      34.673 -15.520 -21.420  0.00  0.00    -0.075 C 
ATOM      7  H   UNL     1      36.175 -15.560 -22.785  0.00  0.00    -0.080 HD
ENDROOT
BRANCH   2   9
ATOM      8  O   UNL     1      37.723 -18.694 -20.772  0.00  0.00    -0.247 OA
ATOM      9  N   UNL     1      35.399 -19.144 -20.548  0.00  0.00    -0.282 N 
ATOM     10  N   UNL     1      36.885 -20.572 -19.604  0.00  0.00    -0.305 N 
ATOM     11  C   UNL     1      34.679 -20.168 -19.917  0.00  0.00    +0.079 A 
ATOM     12  C   UNL     1      36.790 -19.373 -20.366  0.00  0.00    +0.328 A 
ATOM     13  C   UNL     1      35.598 -21.041 -19.340  0.00  0.00    +0.076 A 
ATOM     14  C   UNL     1      33.320 -20.382 -19.817  0.00  0.00    +0.019 C 
ATOM     15  C   UNL     1      35.213 -22.162 -18.639  0.00  0.00    +0.019 C 
ATOM     16  C   UNL     1      32.903 -21.514 -19.109  0.00  0.00    +0.002 C 
ATOM     17  C   UNL     1      33.840 -22.395 -18.527  0.00  0.00    +0.002 C 
ATOM     18  H   UNL     1      37.722 -20.999 -19.311  0.00  0.00    +0.170 HD
ENDBRANCH   2   9
BRANCH   1  19
ATOM     19  C   UNL     1      34.688 -14.404 -23.554  0.00  0.00    -0.077 C 
BRANCH  19  20
ATOM     20  C   UNL     1      34.345 -13.264 -22.594  0.00  0.00    -0.015 C 
BRANCH  20  21
ATOM     21  C   UNL     1      32.874 -12.850 -22.684  0.00  0.00    +0.067 C 
BRANCH  21  23
ATOM     22  O   UNL     1      31.898 -13.458 -20.563  0.00  0.00    -0.291 OA
ATOM     23  C   UNL     1      32.242 -12.562 -21.330  0.00  0.00    +0.173 C 
BRANCH  23  25
ATOM     24  F   UNL     1      31.539  -7.243 -19.785  0.00  0.00    -0.204 F 
ATOM     25  C   UNL     1      32.055 -11.142 -20.917  0.00  0.00    +0.035 C 
ATOM     26  C   UNL     1      32.179 -10.155 -21.870  0.00  0.00    +0.005 C 
ATOM     27  C   UNL     1      31.764 -10.869 -19.599  0.00  0.00    +0.005 C 
ATOM     28  C   UNL     1      32.004  -8.827 -21.485  0.00  0.00    +0.030 C 
ATOM     29  C   UNL     1      31.588  -9.541 -19.214  0.00  0.00    +0.030 C 
ATOM     30  C   UNL     1      31.708  -8.519 -20.156  0.00  0.00    +0.140 C 
ENDBRANCH  23  25
ENDBRANCH  21  23
ENDBRANCH  20  21
ENDBRANCH  19  20
ENDBRANCH   1  19
TORSDOF 6
ENDMDL
MODEL 5
REMARK VINA RESULT:     -11.5      2.734      8.041
REMARK  Name = 16363
REMARK  6 active torsions:
REMARK  status: ('A' for Active; 'I' for Inactive)
REMARK    1  A    between atoms: N_1  and  C_19
REMARK    2  A    between atoms: C_2  and  N_9
REMARK    3  A    between atoms: C_19  and  C_20
REMARK    4  A    between atoms: C_20  and  C_21
REMARK    5  A    between atoms: C_21  and  C_23
REMARK    6  A    between atoms: C_23  and  C_25
REMARK                            x       y       z     vdW  Elec       q    Type
REMARK                         _______ _______ _______ _____ _____    ______ ____
ROOT
ATOM      1  N   UNL     1      35.129 -16.744 -24.101  0.00  0.00    +0.387 N 
ATOM      2  C   UNL     1      34.819 -18.362 -21.683  0.00  0.00    +0.086 C 
ATOM      3  C   UNL     1      34.774 -18.970 -23.085  0.00  0.00    -0.000 C 
ATOM      4  C   UNL     1      35.625 -17.063 -21.699  0.00  0.00    -0.000 C 
ATOM      5  C   UNL     1      34.291 -17.950 -24.118  0.00  0.00    -0.075 C 
ATOM      6  C   UNL     1      35.115 -16.105 -22.777  0.00  0.00    -0.075 C 
ATOM      7  H   UNL     1      36.088 -17.023 -24.304  0.00  0.00    -0.080 HD
ENDROOT
BRANCH   2   9
ATOM      8  O   UNL     1      37.681 -18.763 -20.822  0.00  0.00    -0.247 OA
ATOM      9  N   UNL     1      35.365 -19.294 -20.730  0.00  0.00    -0.282 N 
ATOM     10  N   UNL     1      36.806 -20.451 -19.417  0.00  0.00    -0.305 N 
ATOM     11  C   UNL     1      34.627 -20.230 -19.994  0.00  0.00    +0.079 A 
ATOM     12  C   UNL     1      36.740 -19.410 -20.387  0.00  0.00    +0.328 A 
ATOM     13  C   UNL     1      35.518 -20.937 -19.189  0.00  0.00    +0.076 A 
ATOM     14  C   UNL     1      33.274 -20.498 -19.979  0.00  0.00    +0.019 C 
ATOM     15  C   UNL     1      35.109 -21.938 -18.336  0.00  0.00    +0.019 C 
ATOM     16  C   UNL     1      32.834 -21.510 -19.120  0.00  0.00    +0.002 C 
ATOM     17  C   UNL     1      33.741 -22.223 -18.308  0.00  0.00    +0.002 C 
ATOM     18  H   UNL     1      37.626 -20.774 -18.978  0.00  0.00    +0.170 HD
ENDBRANCH   2   9
BRANCH   1  19
ATOM     19  C   UNL     1      34.688 -15.800 -25.128  0.00  0.00    -0.077 C 
BRANCH  19  20
ATOM     20  C   UNL     1      33.424 -15.071 -24.668  0.00  0.00    -0.015 C 
BRANCH  20  21
ATOM     21  C   UNL     1      33.388 -13.615 -25.140  0.00  0.00    +0.067 C 
BRANCH  21  23
ATOM     22  O   UNL     1      34.362 -11.579 -24.286  0.00  0.00    -0.291 OA
ATOM     23  C   UNL     1      33.747 -12.616 -24.049  0.00  0.00    +0.173 C 
BRANCH  23  25
ATOM     24  F   UNL     1      32.139 -13.682 -18.810  0.00  0.00    -0.204 F 
ATOM     25  C   UNL     1      33.317 -12.901 -22.651  0.00  0.00    +0.035 C 
ATOM     26  C   UNL     1      34.205 -13.521 -21.801  0.00  0.00    +0.005 C 
ATOM     27  C   UNL     1      32.049 -12.533 -22.261  0.00  0.00    +0.005 C 
ATOM     28  C   UNL     1      33.804 -13.787 -20.492  0.00  0.00    +0.030 C 
ATOM     29  C   UNL     1      31.648 -12.800 -20.952  0.00  0.00    +0.030 C 
ATOM     30  C   UNL     1      32.524 -13.426 -20.067  0.00  0.00    +0.140 C 
ENDBRANCH  23  25
ENDBRANCH  21  23
ENDBRANCH  20  21
ENDBRANCH  19  20
ENDBRANCH   1  19
TORSDOF 6
ENDMDL
MODEL 6
REMARK VINA RESULT:     -11.4      3.097      5.459
REMARK  Name = 16363
REMARK  6 active torsions:
REMARK  status: ('A' for Active; 'I' for Inactive)
REMARK    1  A    between atoms: N_1  and  C_19
REMARK    2  A    between atoms: C_2  and  N_9
REMARK    3  A    between atoms: C_19  and  C_20
REMARK    4  A    between atoms: C_20  and  C_21
REMARK    5  A    between atoms: C_21  and  C_23
REMARK    6  A    between atoms: C_23  and  C_25
REMARK                            x       y       z     vdW  Elec       q    Type
REMARK                         _______ _______ _______ _____ _____    ______ ____
ROOT
ATOM      1  N   UNL     1      35.943 -19.775 -19.834  0.00  0.00    +0.387 N 
ATOM      2  C   UNL     1      35.339 -18.314 -22.296  0.00  0.00    +0.086 C 
ATOM      3  C   UNL     1      34.247 -18.942 -21.429  0.00  0.00    -0.000 C 
ATOM      4  C   UNL     1      36.575 -18.011 -21.448  0.00  0.00    -0.000 C 
ATOM      5  C   UNL     1      34.779 -20.146 -20.650  0.00  0.00    -0.075 C 
ATOM      6  C   UNL     1      37.031 -19.245 -20.668  0.00  0.00    -0.075 C 
ATOM      7  H   UNL     1      35.655 -19.039 -19.189  0.00  0.00    -0.080 HD
ENDROOT
BRANCH   2   9
ATOM      8  O   UNL     1      34.471 -17.923 -25.157  0.00  0.00    -0.247 OA
ATOM      9  N   UNL     1      34.861 -17.124 -22.952  0.00  0.00    -0.282 N 
ATOM     10  N   UNL     1      34.077 -15.681 -24.514  0.00  0.00    -0.305 N 
ATOM     11  C   UNL     1      34.706 -15.869 -22.347  0.00  0.00    +0.079 A 
ATOM     12  C   UNL     1      34.472 -17.035 -24.316  0.00  0.00    +0.328 A 
ATOM     13  C   UNL     1      34.224 -14.988 -23.313  0.00  0.00    +0.076 A 
ATOM     14  C   UNL     1      34.950 -15.458 -21.054  0.00  0.00    +0.019 C 
ATOM     15  C   UNL     1      33.962 -13.664 -23.040  0.00  0.00    +0.019 C 
ATOM     16  C   UNL     1      34.691 -14.117 -20.751  0.00  0.00    +0.002 C 
ATOM     17  C   UNL     1      34.203 -13.230 -21.733  0.00  0.00    +0.002 C 
ATOM     18  H   UNL     1      33.752 -15.298 -25.361  0.00  0.00    +0.170 HD
ENDBRANCH   2   9
BRANCH   1  19
ATOM     19  C   UNL     1      36.410 -20.923 -19.056  0.00  0.00    -0.077 C 
BRANCH  19  20
ATOM     20  C   UNL     1      35.358 -22.034 -19.071  0.00  0.00    -0.015 C 
BRANCH  20  21
ATOM     21  C   UNL     1      34.809 -22.334 -17.674  0.00  0.00    +0.067 C 
BRANCH  21  23
ATOM     22  O   UNL     1      32.596 -22.337 -18.638  0.00  0.00    -0.291 OA
ATOM     23  C   UNL     1      33.298 -22.514 -17.644  0.00  0.00    +0.173 C 
BRANCH  23  25
ATOM     24  F   UNL     1      30.888 -24.098 -12.863  0.00  0.00    -0.204 F 
ATOM     25  C   UNL     1      32.654 -22.937 -16.368  0.00  0.00    +0.035 C 
ATOM     26  C   UNL     1      33.456 -23.369 -15.335  0.00  0.00    +0.005 C 
ATOM     27  C   UNL     1      31.282 -22.880 -16.269  0.00  0.00    +0.005 C 
ATOM     28  C   UNL     1      32.855 -23.765 -14.141  0.00  0.00    +0.030 C 
ATOM     29  C   UNL     1      30.680 -23.276 -15.075  0.00  0.00    +0.030 C 
ATOM     30  C   UNL     1      31.466 -23.718 -14.011  0.00  0.00    +0.140 C 
ENDBRANCH  23  25
ENDBRANCH  21  23
ENDBRANCH  20  21
ENDBRANCH  19  20
ENDBRANCH   1  19
TORSDOF 6
ENDMDL
MODEL 7
REMARK VINA RESULT:     -11.2      6.184     12.176
REMARK  Name = 16363
REMARK  6 active torsions:
REMARK  status: ('A' for Active; 'I' for Inactive)
REMARK    1  A    between atoms: N_1  and  C_19
REMARK    2  A    between atoms: C_2  and  N_9
REMARK    3  A    between atoms: C_19  and  C_20
REMARK    4  A    between atoms: C_20  and  C_21
REMARK    5  A    between atoms: C_21  and  C_23
REMARK    6  A    between atoms: C_23  and  C_25
REMARK                            x       y       z     vdW  Elec       q    Type
REMARK                         _______ _______ _______ _____ _____    ______ ____
ROOT
ATOM      1  N   UNL     1      34.384 -22.717 -17.694  0.00  0.00    +0.387 N 
ATOM      2  C   UNL     1      34.829 -23.025 -14.819  0.00  0.00    +0.086 C 
ATOM      3  C   UNL     1      33.723 -23.777 -15.560  0.00  0.00    -0.000 C 
ATOM      4  C   UNL     1      35.956 -22.659 -15.786  0.00  0.00    -0.000 C 
ATOM      5  C   UNL     1      33.257 -23.005 -16.796  0.00  0.00    -0.075 C 
ATOM      6  C   UNL     1      35.418 -21.924 -17.015  0.00  0.00    -0.075 C 
ATOM      7  H   UNL     1      34.801 -23.605 -17.971  0.00  0.00    -0.080 HD
ENDROOT
BRANCH   2   9
ATOM      8  O   UNL     1      33.463 -23.796 -12.244  0.00  0.00    -0.247 OA
ATOM      9  N   UNL     1      35.333 -23.799 -13.713  0.00  0.00    -0.282 N 
ATOM     10  N   UNL     1      35.499 -24.886 -11.731  0.00  0.00    -0.305 N 
ATOM     11  C   UNL     1      36.614 -24.361 -13.631  0.00  0.00    +0.079 A 
ATOM     12  C   UNL     1      34.609 -24.114 -12.531  0.00  0.00    +0.328 A 
ATOM     13  C   UNL     1      36.708 -25.027 -12.411  0.00  0.00    +0.076 A 
ATOM     14  C   UNL     1      37.667 -24.331 -14.520  0.00  0.00    +0.019 C 
ATOM     15  C   UNL     1      37.849 -25.692 -12.019  0.00  0.00    +0.019 C 
ATOM     16  C   UNL     1      38.838 -25.000 -14.145  0.00  0.00    +0.002 C 
ATOM     17  C   UNL     1      38.927 -25.672 -12.908  0.00  0.00    +0.002 C 
ATOM     18  H   UNL     1      35.294 -25.259 -10.843  0.00  0.00    +0.170 HD
ENDBRANCH   2   9
BRANCH   1  19
ATOM     19  C   UNL     1      33.915 -22.024 -18.895  0.00  0.00    -0.077 C 
BRANCH  19  20
ATOM     20  C   UNL     1      34.972 -21.028 -19.376  0.00  0.00    -0.015 C 
BRANCH  20  21
ATOM     21  C   UNL     1      34.385 -19.962 -20.306  0.00  0.00    +0.067 C 
BRANCH  21  23
ATOM     22  O   UNL     1      36.468 -18.750 -20.175  0.00  0.00    -0.291 OA
ATOM     23  C   UNL     1      35.408 -18.935 -20.770  0.00  0.00    +0.173 C 
BRANCH  23  25
ATOM     24  F   UNL     1      34.318 -15.970 -25.374  0.00  0.00    -0.204 F 
ATOM     25  C   UNL     1      35.118 -18.143 -21.999  0.00  0.00    +0.035 C 
ATOM     26  C   UNL     1      34.480 -18.765 -23.049  0.00  0.00    +0.005 C 
ATOM     27  C   UNL     1      35.497 -16.820 -22.038  0.00  0.00    +0.005 C 
ATOM     28  C   UNL     1      34.208 -18.025 -24.199  0.00  0.00    +0.030 C 
ATOM     29  C   UNL     1      35.225 -16.080 -23.188  0.00  0.00    +0.030 C 
ATOM     30  C   UNL     1      34.580 -16.681 -24.269  0.00  0.00    +0.140 C 
ENDBRANCH  23  25
ENDBRANCH  21  23
ENDBRANCH  20  21
ENDBRANCH  19  20
ENDBRANCH   1  19
TORSDOF 6
ENDMDL
MODEL 8
REMARK VINA RESULT:     -11.1      5.033     10.634
REMARK  Name = 16363
REMARK  6 active torsions:
REMARK  status: ('A' for Active; 'I' for Inactive)
REMARK    1  A    between atoms: N_1  and  C_19
REMARK    2  A    between atoms: C_2  and  N_9
REMARK    3  A    between atoms: C_19  and  C_20
REMARK    4  A    between atoms: C_20  and  C_21
REMARK    5  A    between atoms: C_21  and  C_23
REMARK    6  A    between atoms: C_23  and  C_25
REMARK                            x       y       z     vdW  Elec       q    Type
REMARK                         _______ _______ _______ _____ _____    ______ ____
ROOT
ATOM      1  N   UNL     1      34.680 -20.650 -19.305  0.00  0.00    +0.387 N 
ATOM      2  C   UNL     1      34.171 -22.864 -17.461  0.00  0.00    +0.086 C 
ATOM      3  C   UNL     1      35.474 -22.065 -17.438  0.00  0.00    -0.000 C 
ATOM      4  C   UNL     1      33.044 -22.016 -18.050  0.00  0.00    -0.000 C 
ATOM      5  C   UNL     1      35.791 -21.479 -18.815  0.00  0.00    -0.075 C 
ATOM      6  C   UNL     1      33.439 -21.431 -19.407  0.00  0.00    -0.075 C 
ATOM      7  H   UNL     1      34.525 -19.901 -18.631  0.00  0.00    -0.080 HD
ENDROOT
BRANCH   2   9
ATOM      8  O   UNL     1      35.939 -24.058 -15.329  0.00  0.00    -0.247 OA
ATOM      9  N   UNL     1      33.826 -23.332 -16.142  0.00  0.00    -0.282 N 
ATOM     10  N   UNL     1      33.953 -24.201 -14.053  0.00  0.00    -0.305 N 
ATOM     11  C   UNL     1      32.540 -23.315 -15.585  0.00  0.00    +0.079 A 
ATOM     12  C   UNL     1      34.735 -23.884 -15.200  0.00  0.00    +0.328 A 
ATOM     13  C   UNL     1      32.626 -23.850 -14.302  0.00  0.00    +0.076 A 
ATOM     14  C   UNL     1      31.340 -22.878 -16.105  0.00  0.00    +0.019 C 
ATOM     15  C   UNL     1      31.529 -23.976 -13.479  0.00  0.00    +0.019 C 
ATOM     16  C   UNL     1      30.210 -22.995 -15.289  0.00  0.00    +0.002 C 
ATOM     17  C   UNL     1      30.304 -23.539 -13.990  0.00  0.00    +0.002 C 
ATOM     18  H   UNL     1      34.293 -24.602 -13.221  0.00  0.00    +0.170 HD
ENDBRANCH   2   9
BRANCH   1  19
ATOM     19  C   UNL     1      35.018 -20.056 -20.599  0.00  0.00    -0.077 C 
BRANCH  19  20
ATOM     20  C   UNL     1      36.359 -19.326 -20.511  0.00  0.00    -0.015 C 
BRANCH  20  21
ATOM     21  C   UNL     1      36.488 -18.218 -21.560  0.00  0.00    +0.067 C 
BRANCH  21  23
ATOM     22  O   UNL     1      35.315 -16.636 -20.165  0.00  0.00    -0.291 OA
ATOM     23  C   UNL     1      35.571 -17.031 -21.301  0.00  0.00    +0.173 C 
BRANCH  23  25
ATOM     24  F   UNL     1      33.370 -14.346 -25.673  0.00  0.00    -0.204 F 
ATOM     25  C   UNL     1      34.983 -16.315 -22.468  0.00  0.00    +0.035 C 
ATOM     26  C   UNL     1      34.622 -14.994 -22.319  0.00  0.00    +0.005 C 
ATOM     27  C   UNL     1      34.823 -16.999 -23.652  0.00  0.00    +0.005 C 
ATOM     28  C   UNL     1      34.072 -14.323 -23.411  0.00  0.00    +0.030 C 
ATOM     29  C   UNL     1      34.273 -16.328 -24.744  0.00  0.00    +0.030 C 
ATOM     30  C   UNL     1      33.898 -14.991 -24.624  0.00  0.00    +0.140 C 
ENDBRANCH  23  25
ENDBRANCH  21  23
ENDBRANCH  20  21
ENDBRANCH  19  20
ENDBRANCH   1  19
TORSDOF 6
ENDMDL
MODEL 9
REMARK VINA RESULT:     -10.9      2.731      4.258
REMARK  Name = 16363
REMARK  6 active torsions:
REMARK  status: ('A' for Active; 'I' for Inactive)
REMARK    1  A    between atoms: N_1  and  C_19
REMARK    2  A    between atoms: C_2  and  N_9
REMARK    3  A    between atoms: C_19  and  C_20
REMARK    4  A    between atoms: C_20  and  C_21
REMARK    5  A    between atoms: C_21  and  C_23
REMARK    6  A    between atoms: C_23  and  C_25
REMARK                            x       y       z     vdW  Elec       q    Type
REMARK                         _______ _______ _______ _____ _____    ______ ____
ROOT
ATOM      1  N   UNL     1      33.375 -12.843 -22.376  0.00  0.00    +0.387 N 
ATOM      2  C   UNL     1      32.014 -10.277 -22.023  0.00  0.00    +0.086 C 
ATOM      3  C   UNL     1      31.866 -11.425 -21.024  0.00  0.00    -0.000 C 
ATOM      4  C   UNL     1      33.338 -10.402 -22.777  0.00  0.00    -0.000 C 
ATOM      5  C   UNL     1      32.071 -12.781 -21.702  0.00  0.00    -0.075 C 
ATOM      6  C   UNL     1      33.496 -11.792 -23.397  0.00  0.00    -0.075 C 
ATOM      7  H   UNL     1      34.100 -12.686 -21.677  0.00  0.00    -0.080 HD
ENDROOT
BRANCH   2   9
ATOM      8  O   UNL     1      32.494  -9.573 -19.130  0.00  0.00    -0.247 OA
ATOM      9  N   UNL     1      31.917  -8.999 -21.364  0.00  0.00    -0.282 N 
ATOM     10  N   UNL     1      31.948  -7.369 -19.790  0.00  0.00    -0.305 N 
ATOM     11  C   UNL     1      31.565  -7.791 -21.981  0.00  0.00    +0.079 A 
ATOM     12  C   UNL     1      32.164  -8.763 -19.984  0.00  0.00    +0.328 A 
ATOM     13  C   UNL     1      31.586  -6.795 -21.008  0.00  0.00    +0.076 A 
ATOM     14  C   UNL     1      31.238  -7.513 -23.291  0.00  0.00    +0.019 C 
ATOM     15  C   UNL     1      31.284  -5.480 -21.290  0.00  0.00    +0.019 C 
ATOM     16  C   UNL     1      30.928  -6.185 -23.603  0.00  0.00    +0.002 C 
ATOM     17  C   UNL     1      30.950  -5.180 -22.613  0.00  0.00    +0.002 C 
ATOM     18  H   UNL     1      32.039  -6.889 -18.935  0.00  0.00    +0.170 HD
ENDBRANCH   2   9
BRANCH   1  19
ATOM     19  C   UNL     1      33.579 -14.162 -22.976  0.00  0.00    -0.077 C 
BRANCH  19  20
ATOM     20  C   UNL     1      34.611 -14.954 -22.171  0.00  0.00    -0.015 C 
BRANCH  20  21
ATOM     21  C   UNL     1      35.448 -15.883 -23.054  0.00  0.00    +0.067 C 
BRANCH  21  23
ATOM     22  O   UNL     1      34.175 -17.706 -23.995  0.00  0.00    -0.291 OA
ATOM     23  C   UNL     1      34.921 -17.310 -23.101  0.00  0.00    +0.173 C 
BRANCH  23  25
ATOM     24  F   UNL     1      36.498 -20.873 -19.102  0.00  0.00    -0.204 F 
ATOM     25  C   UNL     1      35.341 -18.262 -22.034  0.00  0.00    +0.035 C 
ATOM     26  C   UNL     1      36.640 -18.211 -21.577  0.00  0.00    +0.005 C 
ATOM     27  C   UNL     1      34.417 -19.157 -21.543  0.00  0.00    +0.005 C 
ATOM     28  C   UNL     1      37.034 -19.100 -20.578  0.00  0.00    +0.030 C 
ATOM     29  C   UNL     1      34.811 -20.046 -20.544  0.00  0.00    +0.030 C 
ATOM     30  C   UNL     1      36.119 -20.019 -20.061  0.00  0.00    +0.140 C 
ENDBRANCH  23  25
ENDBRANCH  21  23
ENDBRANCH  20  21
ENDBRANCH  19  20
ENDBRANCH   1  19
TORSDOF 6
ENDMDL
