MODEL 1
REMARK VINA RESULT:     -11.7      0.000      0.000
REMARK  Name = 9820008
REMARK  6 active torsions:
REMARK  status: ('A' for Active; 'I' for Inactive)
REMARK    1  A    between atoms: C_2  and  N_17
REMARK    2  A    between atoms: C_3  and  C_8
REMARK    3  A    between atoms: C_11  and  O_14
REMARK    4  A    between atoms: C_18  and  C_23
REMARK    5  A    between atoms: C_24  and  C_26
REMARK    6  A    between atoms: C_26  and  O_27
REMARK                            x       y       z     vdW  Elec       q    Type
REMARK                         _______ _______ _______ _____ _____    ______ ____
ROOT
ATOM      1  F   UNL     1      35.200 -22.960 -16.936  0.00  0.00    -0.203 F 
ATOM      2  C   UNL     1      33.113 -22.183 -17.762  0.00  0.00    +0.078 C 
ATOM      3  C   UNL     1      34.450 -20.625 -19.620  0.00  0.00    +0.002 C 
ATOM      4  C   UNL     1      34.498 -22.202 -17.790  0.00  0.00    +0.153 C 
ATOM      5  C   UNL     1      32.383 -21.403 -18.643  0.00  0.00    +0.017 C 
ATOM      6  C   UNL     1      35.171 -21.417 -18.726  0.00  0.00    +0.031 C 
ATOM      7  C   UNL     1      33.056 -20.617 -19.578  0.00  0.00    +0.001 C 
ENDROOT
BRANCH   3   8
ATOM      8  C   UNL     1      35.149 -19.810 -20.591  0.00  0.00    +0.003 C 
ATOM      9  C   UNL     1      34.498 -19.402 -21.755  0.00  0.00    +0.037 C 
ATOM     10  C   UNL     1      36.472 -19.434 -20.363  0.00  0.00    +0.000 C 
ATOM     11  C   UNL     1      35.171 -18.618 -22.692  0.00  0.00    +0.139 C 
ATOM     12  C   UNL     1      37.145 -18.649 -21.299  0.00  0.00    +0.003 C 
ATOM     13  C   UNL     1      36.495 -18.242 -22.464  0.00  0.00    +0.037 C 
BRANCH  11  14
ATOM     14  O   UNL     1      34.537 -18.220 -23.828  0.00  0.00    -0.471 OA
ATOM     15  C   UNL     1      34.591 -16.832 -24.150  0.00  0.00    +0.252 C 
ENDBRANCH  11  14
ENDBRANCH   3   8
BRANCH   2  17
ATOM     16  O   UNL     1      30.288 -21.996 -16.728  0.00  0.00    -0.270 OA
ATOM     17  N   UNL     1      32.427 -22.978 -16.813  0.00  0.00    -0.279 N 
ATOM     18  C   UNL     1      31.113 -22.843 -16.371  0.00  0.00    +0.245 C 
ATOM     19  H   UNL     1      32.942 -23.718 -16.417  0.00  0.00    +0.155 HD
BRANCH  18  23
ATOM     20  C   UNL     1      30.904 -25.125 -13.407  0.00  0.00    +0.010 C 
ATOM     21  C   UNL     1      31.770 -24.438 -14.464  0.00  0.00    +0.031 C 
ATOM     22  C   UNL     1      29.546 -25.372 -14.067  0.00  0.00    +0.033 C 
ATOM     23  C   UNL     1      30.749 -23.849 -15.383  0.00  0.00    +0.034 C 
ATOM     24  C   UNL     1      29.533 -24.361 -15.165  0.00  0.00    +0.054 C 
BRANCH  24  26
ATOM     25  O   UNL     1      27.875 -24.622 -16.848  0.00  0.00    -0.245 OA
ATOM     26  C   UNL     1      28.303 -24.027 -15.870  0.00  0.00    +0.334 C 
BRANCH  26  27
ATOM     27  O   UNL     1      27.709 -22.964 -15.281  0.00  0.00    -0.477 OA
ATOM     28  H   UNL     1      26.802 -22.789 -15.435  0.00  0.00    +0.295 HD
ENDBRANCH  26  27
ENDBRANCH  24  26
ENDBRANCH  18  23
ENDBRANCH   2  17
TORSDOF 6
ENDMDL
MODEL 2
REMARK VINA RESULT:     -11.6      3.168      4.453
REMARK  Name = 9820008
REMARK  6 active torsions:
REMARK  status: ('A' for Active; 'I' for Inactive)
REMARK    1  A    between atoms: C_2  and  N_17
REMARK    2  A    between atoms: C_3  and  C_8
REMARK    3  A    between atoms: C_11  and  O_14
REMARK    4  A    between atoms: C_18  and  C_23
REMARK    5  A    between atoms: C_24  and  C_26
REMARK    6  A    between atoms: C_26  and  O_27
REMARK                            x       y       z     vdW  Elec       q    Type
REMARK                         _______ _______ _______ _____ _____    ______ ____
ROOT
ATOM      1  F   UNL     1      33.235 -21.707 -18.574  0.00  0.00    -0.203 F 
ATOM      2  C   UNL     1      35.568 -21.274 -18.670  0.00  0.00    +0.078 C 
ATOM      3  C   UNL     1      35.147 -19.588 -20.825  0.00  0.00    +0.002 C 
ATOM      4  C   UNL     1      34.279 -21.087 -19.142  0.00  0.00    +0.153 C 
ATOM      5  C   UNL     1      36.650 -20.636 -19.251  0.00  0.00    +0.017 C 
ATOM      6  C   UNL     1      34.068 -20.238 -20.227  0.00  0.00    +0.031 C 
ATOM      7  C   UNL     1      36.439 -19.786 -20.337  0.00  0.00    +0.001 C 
ENDROOT
BRANCH   3   8
ATOM      8  C   UNL     1      34.928 -18.706 -21.951  0.00  0.00    +0.003 C 
ATOM      9  C   UNL     1      35.332 -17.373 -21.882  0.00  0.00    +0.037 C 
ATOM     10  C   UNL     1      34.312 -19.188 -23.105  0.00  0.00    +0.000 C 
ATOM     11  C   UNL     1      35.121 -16.522 -22.967  0.00  0.00    +0.139 C 
ATOM     12  C   UNL     1      34.101 -18.339 -24.191  0.00  0.00    +0.003 C 
ATOM     13  C   UNL     1      34.504 -17.006 -24.122  0.00  0.00    +0.037 C 
BRANCH  11  14
ATOM     14  O   UNL     1      35.514 -15.221 -22.900  0.00  0.00    -0.471 OA
ATOM     15  C   UNL     1      34.487 -14.232 -22.877  0.00  0.00    +0.252 C 
ENDBRANCH  11  14
ENDBRANCH   3   8
BRANCH   2  17
ATOM     16  O   UNL     1      37.250 -20.905 -16.195  0.00  0.00    -0.270 OA
ATOM     17  N   UNL     1      35.786 -22.137 -17.569  0.00  0.00    -0.279 N 
ATOM     18  C   UNL     1      36.580 -21.911 -16.447  0.00  0.00    +0.245 C 
ATOM     19  H   UNL     1      35.319 -23.002 -17.600  0.00  0.00    +0.155 HD
BRANCH  18  23
ATOM     20  C   UNL     1      37.353 -24.493 -13.844  0.00  0.00    +0.010 C 
ATOM     21  C   UNL     1      37.830 -23.658 -15.032  0.00  0.00    +0.031 C 
ATOM     22  C   UNL     1      35.860 -24.741 -14.073  0.00  0.00    +0.033 C 
ATOM     23  C   UNL     1      36.562 -23.031 -15.515  0.00  0.00    +0.034 C 
ATOM     24  C   UNL     1      35.485 -23.624 -14.990  0.00  0.00    +0.054 C 
BRANCH  24  26
ATOM     25  O   UNL     1      33.488 -23.507 -16.274  0.00  0.00    -0.245 OA
ATOM     26  C   UNL     1      34.090 -23.283 -15.234  0.00  0.00    +0.334 C 
BRANCH  26  27
ATOM     27  O   UNL     1      33.564 -22.685 -14.141  0.00  0.00    -0.477 OA
ATOM     28  H   UNL     1      33.346 -21.774 -14.165  0.00  0.00    +0.295 HD
ENDBRANCH  26  27
ENDBRANCH  24  26
ENDBRANCH  18  23
ENDBRANCH   2  17
TORSDOF 6
ENDMDL
MODEL 3
REMARK VINA RESULT:     -11.4      4.359      7.410
REMARK  Name = 9820008
REMARK  6 active torsions:
REMARK  status: ('A' for Active; 'I' for Inactive)
REMARK    1  A    between atoms: C_2  and  N_17
REMARK    2  A    between atoms: C_3  and  C_8
REMARK    3  A    between atoms: C_11  and  O_14
REMARK    4  A    between atoms: C_18  and  C_23
REMARK    5  A    between atoms: C_24  and  C_26
REMARK    6  A    between atoms: C_26  and  O_27
REMARK                            x       y       z     vdW  Elec       q    Type
REMARK                         _______ _______ _______ _____ _____    ______ ____
ROOT
ATOM      1  F   UNL     1      34.864 -15.604 -19.399  0.00  0.00    -0.203 F 
ATOM      2  C   UNL     1      34.941 -16.921 -21.374  0.00  0.00    +0.078 C 
ATOM      3  C   UNL     1      34.405 -14.660 -22.880  0.00  0.00    +0.002 C 
ATOM      4  C   UNL     1      34.772 -15.705 -20.733  0.00  0.00    +0.153 C 
ATOM      5  C   UNL     1      34.848 -17.030 -22.751  0.00  0.00    +0.017 C 
ATOM      6  C   UNL     1      34.502 -14.566 -21.491  0.00  0.00    +0.031 C 
ATOM      7  C   UNL     1      34.578 -15.892 -23.510  0.00  0.00    +0.001 C 
ENDROOT
BRANCH   3   8
ATOM      8  C   UNL     1      34.125 -13.478 -23.667  0.00  0.00    +0.003 C 
ATOM      9  C   UNL     1      34.337 -12.211 -23.123  0.00  0.00    +0.037 C 
ATOM     10  C   UNL     1      33.643 -13.606 -24.969  0.00  0.00    +0.000 C 
ATOM     11  C   UNL     1      34.066 -11.072 -23.881  0.00  0.00    +0.139 C 
ATOM     12  C   UNL     1      33.373 -12.467 -25.728  0.00  0.00    +0.003 C 
ATOM     13  C   UNL     1      33.584 -11.201 -25.184  0.00  0.00    +0.037 C 
BRANCH  11  14
ATOM     14  O   UNL     1      34.272  -9.836 -23.351  0.00  0.00    -0.471 OA
ATOM     15  C   UNL     1      33.126  -9.133 -22.877  0.00  0.00    +0.252 C 
ENDBRANCH  11  14
ENDBRANCH   3   8
BRANCH   2  17
ATOM     16  O   UNL     1      34.725 -19.841 -22.092  0.00  0.00    -0.270 OA
ATOM     17  N   UNL     1      35.214 -18.079 -20.607  0.00  0.00    -0.279 N 
ATOM     18  C   UNL     1      35.095 -19.411 -20.994  0.00  0.00    +0.245 C 
ATOM     19  H   UNL     1      35.527 -17.923 -19.687  0.00  0.00    +0.155 HD
BRANCH  18  23
ATOM     20  C   UNL     1      36.768 -21.262 -18.199  0.00  0.00    +0.010 C 
ATOM     21  C   UNL     1      36.894 -20.526 -19.533  0.00  0.00    +0.031 C 
ATOM     22  C   UNL     1      35.389 -21.926 -18.210  0.00  0.00    +0.033 C 
ATOM     23  C   UNL     1      35.466 -20.337 -19.933  0.00  0.00    +0.034 C 
ATOM     24  C   UNL     1      34.644 -21.103 -19.209  0.00  0.00    +0.054 C 
BRANCH  24  26
ATOM     25  O   UNL     1      32.471 -20.267 -19.686  0.00  0.00    -0.245 OA
ATOM     26  C   UNL     1      33.194 -21.183 -19.322  0.00  0.00    +0.334 C 
BRANCH  26  27
ATOM     27  O   UNL     1      32.771 -22.416 -18.963  0.00  0.00    -0.477 OA
ATOM     28  H   UNL     1      33.130 -22.833 -18.205  0.00  0.00    +0.295 HD
ENDBRANCH  26  27
ENDBRANCH  24  26
ENDBRANCH  18  23
ENDBRANCH   2  17
TORSDOF 6
ENDMDL
MODEL 4
REMARK VINA RESULT:     -11.4      1.346      2.076
REMARK  Name = 9820008
REMARK  6 active torsions:
REMARK  status: ('A' for Active; 'I' for Inactive)
REMARK    1  A    between atoms: C_2  and  N_17
REMARK    2  A    between atoms: C_3  and  C_8
REMARK    3  A    between atoms: C_11  and  O_14
REMARK    4  A    between atoms: C_18  and  C_23
REMARK    5  A    between atoms: C_24  and  C_26
REMARK    6  A    between atoms: C_26  and  O_27
REMARK                            x       y       z     vdW  Elec       q    Type
REMARK                         _______ _______ _______ _____ _____    ______ ____
ROOT
ATOM      1  F   UNL     1      35.241 -22.914 -16.892  0.00  0.00    -0.203 F 
ATOM      2  C   UNL     1      33.134 -22.190 -17.714  0.00  0.00    +0.078 C 
ATOM      3  C   UNL     1      34.427 -20.646 -19.614  0.00  0.00    +0.002 C 
ATOM      4  C   UNL     1      34.518 -22.185 -17.754  0.00  0.00    +0.153 C 
ATOM      5  C   UNL     1      32.383 -21.440 -18.603  0.00  0.00    +0.017 C 
ATOM      6  C   UNL     1      35.170 -21.407 -18.711  0.00  0.00    +0.031 C 
ATOM      7  C   UNL     1      33.033 -20.662 -19.559  0.00  0.00    +0.001 C 
ENDROOT
BRANCH   3   8
ATOM      8  C   UNL     1      35.102 -19.839 -20.607  0.00  0.00    +0.003 C 
ATOM      9  C   UNL     1      34.441 -19.480 -21.781  0.00  0.00    +0.037 C 
ATOM     10  C   UNL     1      36.415 -19.421 -20.391  0.00  0.00    +0.000 C 
ATOM     11  C   UNL     1      35.091 -18.703 -22.739  0.00  0.00    +0.139 C 
ATOM     12  C   UNL     1      37.066 -18.643 -21.348  0.00  0.00    +0.003 C 
ATOM     13  C   UNL     1      36.404 -18.285 -22.523  0.00  0.00    +0.037 C 
BRANCH  11  14
ATOM     14  O   UNL     1      34.447 -18.353 -23.885  0.00  0.00    -0.471 OA
ATOM     15  C   UNL     1      34.454 -16.972 -24.239  0.00  0.00    +0.252 C 
ENDBRANCH  11  14
ENDBRANCH   3   8
BRANCH   2  17
ATOM     16  O   UNL     1      30.320 -22.020 -16.644  0.00  0.00    -0.270 OA
ATOM     17  N   UNL     1      32.470 -22.977 -16.742  0.00  0.00    -0.279 N 
ATOM     18  C   UNL     1      31.161 -22.851 -16.285  0.00  0.00    +0.245 C 
ATOM     19  H   UNL     1      32.999 -23.704 -16.342  0.00  0.00    +0.155 HD
BRANCH  18  23
ATOM     20  C   UNL     1      29.910 -25.826 -14.383  0.00  0.00    +0.010 C 
ATOM     21  C   UNL     1      29.657 -24.764 -15.453  0.00  0.00    +0.031 C 
ATOM     22  C   UNL     1      30.820 -25.171 -13.342  0.00  0.00    +0.033 C 
ATOM     23  C   UNL     1      30.822 -23.845 -15.276  0.00  0.00    +0.034 C 
ATOM     24  C   UNL     1      31.458 -24.069 -14.121  0.00  0.00    +0.054 C 
BRANCH  24  26
ATOM     25  O   UNL     1      33.706 -23.300 -14.192  0.00  0.00    -0.245 OA
ATOM     26  C   UNL     1      32.630 -23.366 -13.616  0.00  0.00    +0.334 C 
BRANCH  26  27
ATOM     27  O   UNL     1      32.348 -22.802 -12.420  0.00  0.00    -0.477 OA
ATOM     28  H   UNL     1      32.451 -21.878 -12.302  0.00  0.00    +0.295 HD
ENDBRANCH  26  27
ENDBRANCH  24  26
ENDBRANCH  18  23
ENDBRANCH   2  17
TORSDOF 6
ENDMDL
MODEL 5
REMARK VINA RESULT:     -11.2      4.505      9.247
REMARK  Name = 9820008
REMARK  6 active torsions:
REMARK  status: ('A' for Active; 'I' for Inactive)
REMARK    1  A    between atoms: C_2  and  N_17
REMARK    2  A    between atoms: C_3  and  C_8
REMARK    3  A    between atoms: C_11  and  O_14
REMARK    4  A    between atoms: C_18  and  C_23
REMARK    5  A    between atoms: C_24  and  C_26
REMARK    6  A    between atoms: C_26  and  O_27
REMARK                            x       y       z     vdW  Elec       q    Type
REMARK                         _______ _______ _______ _____ _____    ______ ____
ROOT
ATOM      1  F   UNL     1      32.751 -21.469 -19.480  0.00  0.00    -0.203 F 
ATOM      2  C   UNL     1      35.045 -20.857 -19.535  0.00  0.00    +0.078 C 
ATOM      3  C   UNL     1      35.451 -22.244 -17.173  0.00  0.00    +0.002 C 
ATOM      4  C   UNL     1      33.976 -21.503 -18.936  0.00  0.00    +0.153 C 
ATOM      5  C   UNL     1      36.313 -20.890 -18.978  0.00  0.00    +0.017 C 
ATOM      6  C   UNL     1      34.181 -22.201 -17.747  0.00  0.00    +0.031 C 
ATOM      7  C   UNL     1      36.518 -21.587 -17.788  0.00  0.00    +0.001 C 
ENDROOT
BRANCH   3   8
ATOM      8  C   UNL     1      35.664 -22.968 -15.939  0.00  0.00    +0.003 C 
ATOM      9  C   UNL     1      36.938 -23.021 -15.372  0.00  0.00    +0.037 C 
ATOM     10  C   UNL     1      34.597 -23.615 -15.316  0.00  0.00    +0.000 C 
ATOM     11  C   UNL     1      37.144 -23.721 -14.183  0.00  0.00    +0.139 C 
ATOM     12  C   UNL     1      34.802 -24.313 -14.127  0.00  0.00    +0.003 C 
ATOM     13  C   UNL     1      36.075 -24.367 -13.560  0.00  0.00    +0.037 C 
BRANCH  11  14
ATOM     14  O   UNL     1      38.386 -23.773 -13.629  0.00  0.00    -0.471 OA
ATOM     15  C   UNL     1      38.712 -24.938 -12.873  0.00  0.00    +0.252 C 
ENDBRANCH  11  14
ENDBRANCH   3   8
BRANCH   2  17
ATOM     16  O   UNL     1      36.760 -18.791 -20.906  0.00  0.00    -0.270 OA
ATOM     17  N   UNL     1      34.841 -20.146 -20.741  0.00  0.00    -0.279 N 
ATOM     18  C   UNL     1      35.673 -19.197 -21.329  0.00  0.00    +0.245 C 
ATOM     19  H   UNL     1      34.007 -20.348 -21.225  0.00  0.00    +0.155 HD
BRANCH  18  23
ATOM     20  C   UNL     1      33.898 -18.661 -24.585  0.00  0.00    +0.010 C 
ATOM     21  C   UNL     1      34.711 -19.589 -23.682  0.00  0.00    +0.031 C 
ATOM     22  C   UNL     1      34.371 -17.241 -24.269  0.00  0.00    +0.033 C 
ATOM     23  C   UNL     1      35.133 -18.675 -22.577  0.00  0.00    +0.034 C 
ATOM     24  C   UNL     1      34.947 -17.391 -22.899  0.00  0.00    +0.054 C 
BRANCH  24  26
ATOM     25  O   UNL     1      35.091 -16.175 -20.861  0.00  0.00    -0.245 OA
ATOM     26  C   UNL     1      35.244 -16.228 -22.073  0.00  0.00    +0.334 C 
BRANCH  26  27
ATOM     27  O   UNL     1      35.712 -15.222 -22.846  0.00  0.00    -0.477 OA
ATOM     28  H   UNL     1      36.248 -14.552 -22.469  0.00  0.00    +0.295 HD
ENDBRANCH  26  27
ENDBRANCH  24  26
ENDBRANCH  18  23
ENDBRANCH   2  17
TORSDOF 6
ENDMDL
MODEL 6
REMARK VINA RESULT:     -11.1      4.394     10.665
REMARK  Name = 9820008
REMARK  6 active torsions:
REMARK  status: ('A' for Active; 'I' for Inactive)
REMARK    1  A    between atoms: C_2  and  N_17
REMARK    2  A    between atoms: C_3  and  C_8
REMARK    3  A    between atoms: C_11  and  O_14
REMARK    4  A    between atoms: C_18  and  C_23
REMARK    5  A    between atoms: C_24  and  C_26
REMARK    6  A    between atoms: C_26  and  O_27
REMARK                            x       y       z     vdW  Elec       q    Type
REMARK                         _______ _______ _______ _____ _____    ______ ____
ROOT
ATOM      1  F   UNL     1      34.531 -17.090 -24.406  0.00  0.00    -0.203 F 
ATOM      2  C   UNL     1      34.822 -15.885 -22.380  0.00  0.00    +0.078 C 
ATOM      3  C   UNL     1      35.077 -18.280 -21.014  0.00  0.00    +0.002 C 
ATOM      4  C   UNL     1      34.735 -17.076 -23.080  0.00  0.00    +0.153 C 
ATOM      5  C   UNL     1      35.034 -15.865 -21.012  0.00  0.00    +0.017 C 
ATOM      6  C   UNL     1      34.863 -18.283 -22.393  0.00  0.00    +0.031 C 
ATOM      7  C   UNL     1      35.162 -17.071 -20.323  0.00  0.00    +0.001 C 
ENDROOT
BRANCH   3   8
ATOM      8  C   UNL     1      35.211 -19.531 -20.300  0.00  0.00    +0.003 C 
ATOM      9  C   UNL     1      34.074 -20.258 -19.947  0.00  0.00    +0.037 C 
ATOM     10  C   UNL     1      36.476 -20.010 -19.963  0.00  0.00    +0.000 C 
ATOM     11  C   UNL     1      34.202 -21.463 -19.258  0.00  0.00    +0.139 C 
ATOM     12  C   UNL     1      36.605 -21.216 -19.275  0.00  0.00    +0.003 C 
ATOM     13  C   UNL     1      35.469 -21.942 -18.921  0.00  0.00    +0.037 C 
BRANCH  11  14
ATOM     14  O   UNL     1      33.093 -22.173 -18.913  0.00  0.00    -0.471 OA
ATOM     15  C   UNL     1      33.049 -22.709 -17.592  0.00  0.00    +0.252 C 
ENDBRANCH  11  14
ENDBRANCH   3   8
BRANCH   2  17
ATOM     16  O   UNL     1      33.087 -13.486 -21.810  0.00  0.00    -0.270 OA
ATOM     17  N   UNL     1      34.691 -14.659 -23.075  0.00  0.00    -0.279 N 
ATOM     18  C   UNL     1      33.867 -13.580 -22.763  0.00  0.00    +0.245 C 
ATOM     19  H   UNL     1      35.251 -14.556 -23.878  0.00  0.00    +0.155 HD
BRANCH  18  23
ATOM     20  C   UNL     1      34.768 -10.433 -24.584  0.00  0.00    +0.010 C 
ATOM     21  C   UNL     1      34.413 -11.118 -23.265  0.00  0.00    +0.031 C 
ATOM     22  C   UNL     1      34.021 -11.202 -25.675  0.00  0.00    +0.033 C 
ATOM     23  C   UNL     1      33.999 -12.482 -23.711  0.00  0.00    +0.034 C 
ATOM     24  C   UNL     1      33.785 -12.528 -25.030  0.00  0.00    +0.054 C 
BRANCH  24  26
ATOM     25  O   UNL     1      34.133 -14.494 -26.319  0.00  0.00    -0.245 OA
ATOM     26  C   UNL     1      33.370 -13.685 -25.811  0.00  0.00    +0.334 C 
BRANCH  26  27
ATOM     27  O   UNL     1      32.021 -13.729 -25.889  0.00  0.00    -0.477 OA
ATOM     28  H   UNL     1      31.505 -13.082 -25.450  0.00  0.00    +0.295 HD
ENDBRANCH  26  27
ENDBRANCH  24  26
ENDBRANCH  18  23
ENDBRANCH   2  17
TORSDOF 6
ENDMDL
MODEL 7
REMARK VINA RESULT:     -10.8      7.740     12.600
REMARK  Name = 9820008
REMARK  6 active torsions:
REMARK  status: ('A' for Active; 'I' for Inactive)
REMARK    1  A    between atoms: C_2  and  N_17
REMARK    2  A    between atoms: C_3  and  C_8
REMARK    3  A    between atoms: C_11  and  O_14
REMARK    4  A    between atoms: C_18  and  C_23
REMARK    5  A    between atoms: C_24  and  C_26
REMARK    6  A    between atoms: C_26  and  O_27
REMARK                            x       y       z     vdW  Elec       q    Type
REMARK                         _______ _______ _______ _____ _____    ______ ____
ROOT
ATOM      1  F   UNL     1      32.305 -12.129 -19.797  0.00  0.00    -0.203 F 
ATOM      2  C   UNL     1      33.043 -11.675 -22.008  0.00  0.00    +0.078 C 
ATOM      3  C   UNL     1      34.078 -14.239 -22.168  0.00  0.00    +0.002 C 
ATOM      4  C   UNL     1      32.918 -12.525 -20.921  0.00  0.00    +0.153 C 
ATOM      5  C   UNL     1      33.674 -12.080 -23.173  0.00  0.00    +0.017 C 
ATOM      6  C   UNL     1      33.439 -13.816 -21.002  0.00  0.00    +0.031 C 
ATOM      7  C   UNL     1      34.196 -13.370 -23.254  0.00  0.00    +0.001 C 
ENDROOT
BRANCH   3   8
ATOM      8  C   UNL     1      34.619 -15.578 -22.252  0.00  0.00    +0.003 C 
ATOM      9  C   UNL     1      35.154 -16.187 -21.117  0.00  0.00    +0.037 C 
ATOM     10  C   UNL     1      34.605 -16.261 -23.468  0.00  0.00    +0.000 C 
ATOM     11  C   UNL     1      35.676 -17.477 -21.198  0.00  0.00    +0.139 C 
ATOM     12  C   UNL     1      35.126 -17.552 -23.549  0.00  0.00    +0.003 C 
ATOM     13  C   UNL     1      35.662 -18.160 -22.415  0.00  0.00    +0.037 C 
BRANCH  11  14
ATOM     14  O   UNL     1      36.199 -18.072 -20.091  0.00  0.00    -0.471 OA
ATOM     15  C   UNL     1      36.780 -19.363 -20.260  0.00  0.00    +0.252 C 
ENDBRANCH  11  14
ENDBRANCH   3   8
BRANCH   2  17
ATOM     16  O   UNL     1      34.099  -9.072 -23.101  0.00  0.00    -0.270 OA
ATOM     17  N   UNL     1      32.517 -10.364 -21.929  0.00  0.00    -0.279 N 
ATOM     18  C   UNL     1      33.052  -9.192 -22.456  0.00  0.00    +0.245 C 
ATOM     19  H   UNL     1      31.666 -10.269 -21.442  0.00  0.00    +0.155 HD
BRANCH  18  23
ATOM     20  C   UNL     1      30.498  -6.450 -22.471  0.00  0.00    +0.010 C 
ATOM     21  C   UNL     1      31.465  -7.334 -23.259  0.00  0.00    +0.031 C 
ATOM     22  C   UNL     1      31.130  -6.259 -21.090  0.00  0.00    +0.033 C 
ATOM     23  C   UNL     1      32.228  -8.024 -22.175  0.00  0.00    +0.034 C 
ATOM     24  C   UNL     1      32.044  -7.435 -20.989  0.00  0.00    +0.054 C 
BRANCH  24  26
ATOM     25  O   UNL     1      32.269  -8.791 -19.050  0.00  0.00    -0.245 OA
ATOM     26  C   UNL     1      32.629  -7.830 -19.715  0.00  0.00    +0.334 C 
BRANCH  26  27
ATOM     27  O   UNL     1      33.624  -6.978 -19.380  0.00  0.00    -0.477 OA
ATOM     28  H   UNL     1      34.503  -7.292 -19.301  0.00  0.00    +0.295 HD
ENDBRANCH  26  27
ENDBRANCH  24  26
ENDBRANCH  18  23
ENDBRANCH   2  17
TORSDOF 6
ENDMDL
MODEL 8
REMARK VINA RESULT:     -10.5      8.037     11.864
REMARK  Name = 9820008
REMARK  6 active torsions:
REMARK  status: ('A' for Active; 'I' for Inactive)
REMARK    1  A    between atoms: C_2  and  N_17
REMARK    2  A    between atoms: C_3  and  C_8
REMARK    3  A    between atoms: C_11  and  O_14
REMARK    4  A    between atoms: C_18  and  C_23
REMARK    5  A    between atoms: C_24  and  C_26
REMARK    6  A    between atoms: C_26  and  O_27
REMARK                            x       y       z     vdW  Elec       q    Type
REMARK                         _______ _______ _______ _____ _____    ______ ____
ROOT
ATOM      1  F   UNL     1      31.959 -13.591 -20.785  0.00  0.00    -0.203 F 
ATOM      2  C   UNL     1      33.253 -12.872 -22.643  0.00  0.00    +0.078 C 
ATOM      3  C   UNL     1      32.487 -10.259 -22.140  0.00  0.00    +0.002 C 
ATOM      4  C   UNL     1      32.409 -12.607 -21.577  0.00  0.00    +0.153 C 
ATOM      5  C   UNL     1      33.722 -11.860 -23.462  0.00  0.00    +0.017 C 
ATOM      6  C   UNL     1      32.024 -11.291 -21.324  0.00  0.00    +0.031 C 
ATOM      7  C   UNL     1      33.337 -10.543 -23.210  0.00  0.00    +0.001 C 
ENDROOT
BRANCH   3   8
ATOM      8  C   UNL     1      32.088  -8.893 -21.878  0.00  0.00    +0.003 C 
ATOM      9  C   UNL     1      31.652  -8.081 -22.925  0.00  0.00    +0.037 C 
ATOM     10  C   UNL     1      32.140  -8.389 -20.579  0.00  0.00    +0.000 C 
ATOM     11  C   UNL     1      31.268  -6.764 -22.672  0.00  0.00    +0.139 C 
ATOM     12  C   UNL     1      31.755  -7.072 -20.326  0.00  0.00    +0.003 C 
ATOM     13  C   UNL     1      31.320  -6.260 -21.372  0.00  0.00    +0.037 C 
BRANCH  11  14
ATOM     14  O   UNL     1      30.843  -5.970 -23.693  0.00  0.00    -0.471 OA
ATOM     15  C   UNL     1      30.854  -4.562 -23.469  0.00  0.00    +0.252 C 
ENDBRANCH  11  14
ENDBRANCH   3   8
BRANCH   2  17
ATOM     16  O   UNL     1      35.338 -14.596 -21.313  0.00  0.00    -0.270 OA
ATOM     17  N   UNL     1      33.644 -14.207 -22.903  0.00  0.00    -0.279 N 
ATOM     18  C   UNL     1      34.621 -14.957 -22.251  0.00  0.00    +0.245 C 
ATOM     19  H   UNL     1      33.167 -14.662 -23.634  0.00  0.00    +0.155 HD
BRANCH  18  23
ATOM     20  C   UNL     1      34.877 -18.656 -22.789  0.00  0.00    +0.010 C 
ATOM     21  C   UNL     1      35.262 -17.430 -21.960  0.00  0.00    +0.031 C 
ATOM     22  C   UNL     1      34.708 -18.159 -24.226  0.00  0.00    +0.033 C 
ATOM     23  C   UNL     1      34.748 -16.302 -22.795  0.00  0.00    +0.034 C 
ATOM     24  C   UNL     1      34.445 -16.702 -24.034  0.00  0.00    +0.054 C 
BRANCH  24  26
ATOM     25  O   UNL     1      34.608 -15.273 -25.927  0.00  0.00    -0.245 OA
ATOM     26  C   UNL     1      33.922 -15.880 -25.117  0.00  0.00    +0.334 C 
BRANCH  26  27
ATOM     27  O   UNL     1      32.570 -15.889 -25.091  0.00  0.00    -0.477 OA
ATOM     28  H   UNL     1      32.116 -16.535 -24.587  0.00  0.00    +0.295 HD
ENDBRANCH  26  27
ENDBRANCH  24  26
ENDBRANCH  18  23
ENDBRANCH   2  17
TORSDOF 6
ENDMDL
MODEL 9
REMARK VINA RESULT:     -10.3      7.937     12.661
REMARK  Name = 9820008
REMARK  6 active torsions:
REMARK  status: ('A' for Active; 'I' for Inactive)
REMARK    1  A    between atoms: C_2  and  N_17
REMARK    2  A    between atoms: C_3  and  C_8
REMARK    3  A    between atoms: C_11  and  O_14
REMARK    4  A    between atoms: C_18  and  C_23
REMARK    5  A    between atoms: C_24  and  C_26
REMARK    6  A    between atoms: C_26  and  O_27
REMARK                            x       y       z     vdW  Elec       q    Type
REMARK                         _______ _______ _______ _____ _____    ______ ____
ROOT
ATOM      1  F   UNL     1      33.540 -11.042 -24.857  0.00  0.00    -0.203 F 
ATOM      2  C   UNL     1      33.136 -11.503 -22.563  0.00  0.00    +0.078 C 
ATOM      3  C   UNL     1      33.888 -14.135 -22.979  0.00  0.00    +0.002 C 
ATOM      4  C   UNL     1      33.522 -11.904 -23.831  0.00  0.00    +0.153 C 
ATOM      5  C   UNL     1      33.117 -12.389 -21.499  0.00  0.00    +0.017 C 
ATOM      6  C   UNL     1      33.902 -13.230 -24.040  0.00  0.00    +0.031 C 
ATOM      7  C   UNL     1      33.496 -13.715 -21.708  0.00  0.00    +0.001 C 
ENDROOT
BRANCH   3   8
ATOM      8  C   UNL     1      34.282 -15.511 -23.196  0.00  0.00    +0.003 C 
ATOM      9  C   UNL     1      35.067 -16.169 -22.249  0.00  0.00    +0.037 C 
ATOM     10  C   UNL     1      33.877 -16.178 -24.351  0.00  0.00    +0.000 C 
ATOM     11  C   UNL     1      35.447 -17.494 -22.458  0.00  0.00    +0.139 C 
ATOM     12  C   UNL     1      34.256 -17.504 -24.560  0.00  0.00    +0.003 C 
ATOM     13  C   UNL     1      35.042 -18.162 -23.614  0.00  0.00    +0.037 C 
BRANCH  11  14
ATOM     14  O   UNL     1      36.213 -18.137 -21.535  0.00  0.00    -0.471 OA
ATOM     15  C   UNL     1      35.658 -19.302 -20.927  0.00  0.00    +0.252 C 
ENDBRANCH  11  14
ENDBRANCH   3   8
BRANCH   2  17
ATOM     16  O   UNL     1      30.661 -10.360 -21.276  0.00  0.00    -0.270 OA
ATOM     17  N   UNL     1      32.749 -10.159 -22.347  0.00  0.00    -0.279 N 
ATOM     18  C   UNL     1      31.585  -9.687 -21.744  0.00  0.00    +0.245 C 
ATOM     19  H   UNL     1      33.380  -9.472 -22.662  0.00  0.00    +0.155 HD
BRANCH  18  23
ATOM     20  C   UNL     1      30.726  -6.063 -22.146  0.00  0.00    +0.010 C 
ATOM     21  C   UNL     1      30.867  -7.446 -22.781  0.00  0.00    +0.031 C 
ATOM     22  C   UNL     1      31.780  -5.996 -21.038  0.00  0.00    +0.033 C 
ATOM     23  C   UNL     1      31.530  -8.233 -21.697  0.00  0.00    +0.034 C 
ATOM     24  C   UNL     1      32.029  -7.439 -20.744  0.00  0.00    +0.054 C 
BRANCH  24  26
ATOM     25  O   UNL     1      32.470  -8.842 -18.877  0.00  0.00    -0.245 OA
ATOM     26  C   UNL     1      32.740  -7.853 -19.542  0.00  0.00    +0.334 C 
BRANCH  26  27
ATOM     27  O   UNL     1      33.738  -6.981 -19.274  0.00  0.00    -0.477 OA
ATOM     28  H   UNL     1      34.473  -7.253 -18.760  0.00  0.00    +0.295 HD
ENDBRANCH  26  27
ENDBRANCH  24  26
ENDBRANCH  18  23
ENDBRANCH   2  17
TORSDOF 6
ENDMDL
