MODEL 1
REMARK VINA RESULT:     -12.3      0.000      0.000
REMARK  Name = 198752
REMARK  6 active torsions:
REMARK  status: ('A' for Active; 'I' for Inactive)
REMARK    1  A    between atoms: C_1  and  C_3
REMARK    2  A    between atoms: C_1  and  C_16
REMARK    3  A    between atoms: N_2  and  C_9
REMARK    4  A    between atoms: C_9  and  C_10
REMARK    5  A    between atoms: C_16  and  C_18
REMARK    6  A    between atoms: C_18  and  C_20
REMARK                            x       y       z     vdW  Elec       q    Type
REMARK                         _______ _______ _______ _____ _____    ______ ____
ROOT
ATOM      1  C   UNL     1      36.248 -21.431 -18.449  0.00  0.00    +0.008 C 
ENDROOT
BRANCH   1   3
ATOM      2  N   UNL     1      35.509 -18.290 -21.320  0.00  0.00    +0.390 N 
ATOM      3  C   UNL     1      36.121 -20.715 -19.790  0.00  0.00    -0.004 C 
ATOM      4  C   UNL     1      37.088 -19.529 -19.875  0.00  0.00    -0.023 C 
ATOM      5  C   UNL     1      34.686 -20.230 -20.023  0.00  0.00    -0.023 C 
ATOM      6  C   UNL     1      36.897 -18.747 -21.176  0.00  0.00    -0.077 C 
ATOM      7  C   UNL     1      34.575 -19.424 -21.319  0.00  0.00    -0.077 C 
ATOM      8  H   UNL     1      35.287 -17.699 -20.519  0.00  0.00    -0.079 HD
BRANCH   2   9
ATOM      9  C   UNL     1      35.353 -17.500 -22.541  0.00  0.00    -0.050 C 
BRANCH   9  10
ATOM     10  C   UNL     1      34.963 -16.077 -22.242  0.00  0.00    -0.043 C 
ATOM     11  C   UNL     1      34.913 -15.645 -20.924  0.00  0.00    -0.006 C 
ATOM     12  C   UNL     1      34.661 -15.215 -23.288  0.00  0.00    -0.006 C 
ATOM     13  C   UNL     1      34.551 -14.326 -20.647  0.00  0.00    -0.000 C 
ATOM     14  C   UNL     1      34.300 -13.898 -23.011  0.00  0.00    -0.000 C 
ATOM     15  C   UNL     1      34.245 -13.453 -21.690  0.00  0.00    -0.000 C 
ENDBRANCH   9  10
ENDBRANCH   2   9
ENDBRANCH   1   3
BRANCH   1  16
ATOM     16  C   UNL     1      34.927 -22.076 -18.030  0.00  0.00    +0.069 C 
BRANCH  16  18
ATOM     17  O   UNL     1      36.089 -22.995 -16.129  0.00  0.00    -0.291 OA
ATOM     18  C   UNL     1      34.979 -22.735 -16.639  0.00  0.00    +0.173 C 
BRANCH  18  20
ATOM     19  N   UNL     1      30.123 -22.787 -16.579  0.00  0.00    -0.333 N 
ATOM     20  C   UNL     1      33.745 -23.046 -15.936  0.00  0.00    +0.036 C 
ATOM     21  C   UNL     1      31.345 -23.654 -14.601  0.00  0.00    -0.009 C 
ATOM     22  C   UNL     1      30.117 -24.067 -13.813  0.00  0.00    +0.028 C 
ATOM     23  C   UNL     1      31.293 -23.101 -15.900  0.00  0.00    +0.041 C 
ATOM     24  C   UNL     1      29.064 -24.786 -14.656  0.00  0.00    +0.006 C 
ATOM     25  C   UNL     1      28.189 -23.854 -15.493  0.00  0.00    +0.022 C 
ATOM     26  C   UNL     1      32.513 -22.823 -16.552  0.00  0.00    +0.017 C 
ATOM     27  C   UNL     1      28.857 -22.556 -15.921  0.00  0.00    +0.087 C 
ATOM     28  C   UNL     1      33.787 -23.554 -14.648  0.00  0.00    +0.003 C 
ATOM     29  C   UNL     1      32.599 -23.854 -13.986  0.00  0.00    -0.003 C 
ATOM     30  H   UNL     1      30.158 -22.718 -17.560  0.00  0.00    +0.147 HD
ENDBRANCH  18  20
ENDBRANCH  16  18
ENDBRANCH   1  16
TORSDOF 6
ENDMDL
MODEL 2
REMARK VINA RESULT:     -12.1      1.573      2.231
REMARK  Name = 198752
REMARK  6 active torsions:
REMARK  status: ('A' for Active; 'I' for Inactive)
REMARK    1  A    between atoms: C_1  and  C_3
REMARK    2  A    between atoms: C_1  and  C_16
REMARK    3  A    between atoms: N_2  and  C_9
REMARK    4  A    between atoms: C_9  and  C_10
REMARK    5  A    between atoms: C_16  and  C_18
REMARK    6  A    between atoms: C_18  and  C_20
REMARK                            x       y       z     vdW  Elec       q    Type
REMARK                         _______ _______ _______ _____ _____    ______ ____
ROOT
ATOM      1  C   UNL     1      35.687 -20.642 -19.234  0.00  0.00    +0.008 C 
ENDROOT
BRANCH   1   3
ATOM      2  N   UNL     1      35.118 -17.757 -22.398  0.00  0.00    +0.390 N 
ATOM      3  C   UNL     1      35.665 -20.034 -20.633  0.00  0.00    -0.004 C 
ATOM      4  C   UNL     1      36.594 -18.818 -20.719  0.00  0.00    -0.023 C 
ATOM      5  C   UNL     1      34.243 -19.628 -21.036  0.00  0.00    -0.023 C 
ATOM      6  C   UNL     1      36.501 -18.142 -22.089  0.00  0.00    -0.077 C 
ATOM      7  C   UNL     1      34.229 -18.926 -22.395  0.00  0.00    -0.077 C 
ATOM      8  H   UNL     1      34.799 -17.118 -21.670  0.00  0.00    -0.079 HD
BRANCH   2   9
ATOM      9  C   UNL     1      35.053 -17.067 -23.686  0.00  0.00    -0.050 C 
BRANCH   9  10
ATOM     10  C   UNL     1      34.512 -15.669 -23.547  0.00  0.00    -0.043 C 
ATOM     11  C   UNL     1      33.756 -15.124 -24.576  0.00  0.00    -0.006 C 
ATOM     12  C   UNL     1      34.774 -14.945 -22.392  0.00  0.00    -0.006 C 
ATOM     13  C   UNL     1      33.255 -13.828 -24.447  0.00  0.00    -0.000 C 
ATOM     14  C   UNL     1      34.273 -13.651 -22.263  0.00  0.00    -0.000 C 
ATOM     15  C   UNL     1      33.513 -13.092 -23.292  0.00  0.00    -0.000 C 
ENDBRANCH   9  10
ENDBRANCH   2   9
ENDBRANCH   1   3
BRANCH   1  16
ATOM     16  C   UNL     1      35.218 -22.098 -19.248  0.00  0.00    +0.069 C 
BRANCH  16  18
ATOM     17  O   UNL     1      32.818 -22.092 -19.473  0.00  0.00    -0.291 OA
ATOM     18  C   UNL     1      33.788 -22.287 -18.711  0.00  0.00    +0.173 C 
BRANCH  18  20
ATOM     19  N   UNL     1      30.714 -23.383 -15.114  0.00  0.00    -0.333 N 
ATOM     20  C   UNL     1      33.579 -22.687 -17.329  0.00  0.00    +0.036 C 
ATOM     21  C   UNL     1      33.151 -23.477 -14.662  0.00  0.00    -0.009 C 
ATOM     22  C   UNL     1      33.039 -23.952 -13.227  0.00  0.00    +0.028 C 
ATOM     23  C   UNL     1      32.040 -23.267 -15.508  0.00  0.00    +0.041 C 
ATOM     24  C   UNL     1      32.004 -25.060 -13.031  0.00  0.00    +0.006 C 
ATOM     25  C   UNL     1      30.561 -24.563 -12.959  0.00  0.00    +0.022 C 
ATOM     26  C   UNL     1      32.285 -22.889 -16.846  0.00  0.00    +0.017 C 
ATOM     27  C   UNL     1      30.279 -23.287 -13.738  0.00  0.00    +0.087 C 
ATOM     28  C   UNL     1      34.663 -22.859 -16.482  0.00  0.00    +0.003 C 
ATOM     29  C   UNL     1      34.452 -23.248 -15.162  0.00  0.00    -0.003 C 
ATOM     30  H   UNL     1      30.033 -23.539 -15.807  0.00  0.00    +0.147 HD
ENDBRANCH  18  20
ENDBRANCH  16  18
ENDBRANCH   1  16
TORSDOF 6
ENDMDL
MODEL 3
REMARK VINA RESULT:     -12.1      4.537     11.500
REMARK  Name = 198752
REMARK  6 active torsions:
REMARK  status: ('A' for Active; 'I' for Inactive)
REMARK    1  A    between atoms: C_1  and  C_3
REMARK    2  A    between atoms: C_1  and  C_16
REMARK    3  A    between atoms: N_2  and  C_9
REMARK    4  A    between atoms: C_9  and  C_10
REMARK    5  A    between atoms: C_16  and  C_18
REMARK    6  A    between atoms: C_18  and  C_20
REMARK                            x       y       z     vdW  Elec       q    Type
REMARK                         _______ _______ _______ _____ _____    ______ ____
ROOT
ATOM      1  C   UNL     1      34.297 -13.413 -22.353  0.00  0.00    +0.008 C 
ENDROOT
BRANCH   1   3
ATOM      2  N   UNL     1      34.848 -17.680 -21.972  0.00  0.00    +0.390 N 
ATOM      3  C   UNL     1      34.992 -14.771 -22.304  0.00  0.00    -0.004 C 
ATOM      4  C   UNL     1      34.464 -15.699 -23.403  0.00  0.00    -0.023 C 
ATOM      5  C   UNL     1      34.810 -15.435 -20.935  0.00  0.00    -0.023 C 
ATOM      6  C   UNL     1      35.083 -17.094 -23.298  0.00  0.00    -0.077 C 
ATOM      7  C   UNL     1      35.418 -16.839 -20.912  0.00  0.00    -0.077 C 
ATOM      8  H   UNL     1      33.840 -17.732 -21.825  0.00  0.00    -0.079 HD
BRANCH   2   9
ATOM      9  C   UNL     1      35.400 -19.033 -21.904  0.00  0.00    -0.050 C 
BRANCH   9  10
ATOM     10  C   UNL     1      34.734 -19.857 -20.834  0.00  0.00    -0.043 C 
ATOM     11  C   UNL     1      35.510 -20.654 -20.004  0.00  0.00    -0.006 C 
ATOM     12  C   UNL     1      33.354 -19.808 -20.691  0.00  0.00    -0.006 C 
ATOM     13  C   UNL     1      34.893 -21.418 -19.013  0.00  0.00    -0.000 C 
ATOM     14  C   UNL     1      32.738 -20.571 -19.701  0.00  0.00    -0.000 C 
ATOM     15  C   UNL     1      33.507 -21.377 -18.861  0.00  0.00    -0.000 C 
ENDBRANCH   9  10
ENDBRANCH   2   9
ENDBRANCH   1   3
BRANCH   1  16
ATOM     16  C   UNL     1      32.779 -13.555 -22.242  0.00  0.00    +0.069 C 
BRANCH  16  18
ATOM     17  O   UNL     1      31.803 -13.667 -20.040  0.00  0.00    -0.291 OA
ATOM     18  C   UNL     1      32.196 -12.924 -20.964  0.00  0.00    +0.173 C 
BRANCH  18  20
ATOM     19  N   UNL     1      32.566  -8.546 -23.033  0.00  0.00    -0.333 N 
ATOM     20  C   UNL     1      32.108 -11.478 -20.844  0.00  0.00    +0.036 C 
ATOM     21  C   UNL     1      31.930  -8.677 -20.639  0.00  0.00    -0.009 C 
ATOM     22  C   UNL     1      31.756  -7.186 -20.429  0.00  0.00    +0.028 C 
ATOM     23  C   UNL     1      32.268  -9.260 -21.881  0.00  0.00    +0.041 C 
ATOM     24  C   UNL     1      31.002  -6.494 -21.565  0.00  0.00    +0.006 C 
ATOM     25  C   UNL     1      31.857  -6.201 -22.796  0.00  0.00    +0.022 C 
ATOM     26  C   UNL     1      32.333 -10.668 -21.958  0.00  0.00    +0.017 C 
ATOM     27  C   UNL     1      33.008  -7.169 -23.027  0.00  0.00    +0.087 C 
ATOM     28  C   UNL     1      31.813 -10.897 -19.621  0.00  0.00    +0.003 C 
ATOM     29  C   UNL     1      31.727  -9.510 -19.518  0.00  0.00    -0.003 C 
ATOM     30  H   UNL     1      32.472  -9.001 -23.901  0.00  0.00    +0.147 HD
ENDBRANCH  18  20
ENDBRANCH  16  18
ENDBRANCH   1  16
TORSDOF 6
ENDMDL
MODEL 4
REMARK VINA RESULT:     -11.9      2.499     10.285
REMARK  Name = 198752
REMARK  6 active torsions:
REMARK  status: ('A' for Active; 'I' for Inactive)
REMARK    1  A    between atoms: C_1  and  C_3
REMARK    2  A    between atoms: C_1  and  C_16
REMARK    3  A    between atoms: N_2  and  C_9
REMARK    4  A    between atoms: C_9  and  C_10
REMARK    5  A    between atoms: C_16  and  C_18
REMARK    6  A    between atoms: C_18  and  C_20
REMARK                            x       y       z     vdW  Elec       q    Type
REMARK                         _______ _______ _______ _____ _____    ______ ____
ROOT
ATOM      1  C   UNL     1      35.940 -18.464 -20.717  0.00  0.00    +0.008 C 
ENDROOT
BRANCH   1   3
ATOM      2  N   UNL     1      34.170 -21.779 -18.588  0.00  0.00    +0.390 N 
ATOM      3  C   UNL     1      35.377 -19.855 -20.442  0.00  0.00    -0.004 C 
ATOM      4  C   UNL     1      33.906 -19.781 -20.021  0.00  0.00    -0.023 C 
ATOM      5  C   UNL     1      36.189 -20.574 -19.359  0.00  0.00    -0.023 C 
ATOM      6  C   UNL     1      33.363 -21.161 -19.648  0.00  0.00    -0.077 C 
ATOM      7  C   UNL     1      35.570 -21.929 -19.007  0.00  0.00    -0.077 C 
ATOM      8  H   UNL     1      34.150 -21.163 -17.776  0.00  0.00    -0.079 HD
BRANCH   2   9
ATOM      9  C   UNL     1      33.610 -23.075 -18.205  0.00  0.00    -0.050 C 
BRANCH   9  10
ATOM     10  C   UNL     1      33.188 -23.099 -16.760  0.00  0.00    -0.043 C 
ATOM     11  C   UNL     1      34.148 -23.267 -15.771  0.00  0.00    -0.006 C 
ATOM     12  C   UNL     1      31.847 -22.951 -16.436  0.00  0.00    -0.006 C 
ATOM     13  C   UNL     1      33.757 -23.290 -14.432  0.00  0.00    -0.000 C 
ATOM     14  C   UNL     1      31.457 -22.973 -15.098  0.00  0.00    -0.000 C 
ATOM     15  C   UNL     1      32.412 -23.143 -14.095  0.00  0.00    -0.000 C 
ENDBRANCH   9  10
ENDBRANCH   2   9
ENDBRANCH   1   3
BRANCH   1  16
ATOM     16  C   UNL     1      36.392 -18.319 -22.170  0.00  0.00    +0.069 C 
BRANCH  16  18
ATOM     17  O   UNL     1      34.778 -19.417 -23.585  0.00  0.00    -0.291 OA
ATOM     18  C   UNL     1      35.226 -18.325 -23.178  0.00  0.00    +0.173 C 
BRANCH  18  20
ATOM     19  N   UNL     1      34.471 -13.582 -22.458  0.00  0.00    -0.333 N 
ATOM     20  C   UNL     1      34.663 -17.069 -23.643  0.00  0.00    +0.036 C 
ATOM     21  C   UNL     1      33.593 -14.622 -24.531  0.00  0.00    -0.009 C 
ATOM     22  C   UNL     1      33.022 -13.351 -25.128  0.00  0.00    +0.028 C 
ATOM     23  C   UNL     1      34.293 -14.667 -23.305  0.00  0.00    +0.041 C 
ATOM     24  C   UNL     1      33.954 -12.146 -25.004  0.00  0.00    +0.006 C 
ATOM     25  C   UNL     1      33.940 -11.483 -23.628  0.00  0.00    +0.022 C 
ATOM     26  C   UNL     1      34.834 -15.904 -22.894  0.00  0.00    +0.017 C 
ATOM     27  C   UNL     1      33.620 -12.413 -22.467  0.00  0.00    +0.087 C 
ATOM     28  C   UNL     1      33.943 -17.024 -24.826  0.00  0.00    +0.003 C 
ATOM     29  C   UNL     1      33.411 -15.814 -25.265  0.00  0.00    -0.003 C 
ATOM     30  H   UNL     1      35.217 -13.609 -21.814  0.00  0.00    +0.147 HD
ENDBRANCH  18  20
ENDBRANCH  16  18
ENDBRANCH   1  16
TORSDOF 6
ENDMDL
MODEL 5
REMARK VINA RESULT:     -11.9      2.940      4.743
REMARK  Name = 198752
REMARK  6 active torsions:
REMARK  status: ('A' for Active; 'I' for Inactive)
REMARK    1  A    between atoms: C_1  and  C_3
REMARK    2  A    between atoms: C_1  and  C_16
REMARK    3  A    between atoms: N_2  and  C_9
REMARK    4  A    between atoms: C_9  and  C_10
REMARK    5  A    between atoms: C_16  and  C_18
REMARK    6  A    between atoms: C_18  and  C_20
REMARK                            x       y       z     vdW  Elec       q    Type
REMARK                         _______ _______ _______ _____ _____    ______ ____
ROOT
ATOM      1  C   UNL     1      32.704 -22.187 -17.970  0.00  0.00    +0.008 C 
ENDROOT
BRANCH   1   3
ATOM      2  N   UNL     1      35.116 -19.443 -20.275  0.00  0.00    +0.390 N 
ATOM      3  C   UNL     1      33.532 -21.624 -19.122  0.00  0.00    -0.004 C 
ATOM      4  C   UNL     1      34.966 -21.323 -18.674  0.00  0.00    -0.023 C 
ATOM      5  C   UNL     1      32.891 -20.355 -19.693  0.00  0.00    -0.023 C 
ATOM      6  C   UNL     1      35.773 -20.666 -19.795  0.00  0.00    -0.077 C 
ATOM      7  C   UNL     1      33.767 -19.730 -20.781  0.00  0.00    -0.077 C 
ATOM      8  H   UNL     1      35.026 -18.804 -19.486  0.00  0.00    -0.079 HD
BRANCH   2   9
ATOM      9  C   UNL     1      35.924 -18.799 -21.310  0.00  0.00    -0.050 C 
BRANCH   9  10
ATOM     10  C   UNL     1      35.489 -17.379 -21.558  0.00  0.00    -0.043 C 
ATOM     11  C   UNL     1      35.359 -16.923 -22.863  0.00  0.00    -0.006 C 
ATOM     12  C   UNL     1      35.222 -16.547 -20.480  0.00  0.00    -0.006 C 
ATOM     13  C   UNL     1      34.956 -15.607 -23.093  0.00  0.00    -0.000 C 
ATOM     14  C   UNL     1      34.819 -15.232 -20.710  0.00  0.00    -0.000 C 
ATOM     15  C   UNL     1      34.686 -14.762 -22.017  0.00  0.00    -0.000 C 
ENDBRANCH   9  10
ENDBRANCH   2   9
ENDBRANCH   1   3
BRANCH   1  16
ATOM     16  C   UNL     1      33.472 -23.262 -17.200  0.00  0.00    +0.069 C 
BRANCH  16  18
ATOM     17  O   UNL     1      31.906 -23.055 -15.379  0.00  0.00    -0.291 OA
ATOM     18  C   UNL     1      33.069 -23.359 -15.717  0.00  0.00    +0.173 C 
BRANCH  18  20
ATOM     19  N   UNL     1      37.448 -25.210 -14.722  0.00  0.00    -0.333 N 
ATOM     20  C   UNL     1      34.040 -23.800 -14.729  0.00  0.00    +0.036 C 
ATOM     21  C   UNL     1      35.941 -24.646 -12.834  0.00  0.00    -0.009 C 
ATOM     22  C   UNL     1      36.906 -25.026 -11.729  0.00  0.00    +0.028 C 
ATOM     23  C   UNL     1      36.257 -24.713 -14.209  0.00  0.00    +0.041 C 
ATOM     24  C   UNL     1      38.333 -24.535 -11.970  0.00  0.00    +0.006 C 
ATOM     25  C   UNL     1      39.137 -25.399 -12.941  0.00  0.00    +0.022 C 
ATOM     26  C   UNL     1      35.292 -24.265 -15.136  0.00  0.00    +0.017 C 
ATOM     27  C   UNL     1      38.311 -26.117 -13.999  0.00  0.00    +0.087 C 
ATOM     28  C   UNL     1      33.723 -23.773 -13.380  0.00  0.00    +0.003 C 
ATOM     29  C   UNL     1      34.663 -24.193 -12.442  0.00  0.00    -0.003 C 
ATOM     30  H   UNL     1      37.719 -24.932 -15.627  0.00  0.00    +0.147 HD
ENDBRANCH  18  20
ENDBRANCH  16  18
ENDBRANCH   1  16
TORSDOF 6
ENDMDL
MODEL 6
REMARK VINA RESULT:     -11.9      2.464      3.885
REMARK  Name = 198752
REMARK  6 active torsions:
REMARK  status: ('A' for Active; 'I' for Inactive)
REMARK    1  A    between atoms: C_1  and  C_3
REMARK    2  A    between atoms: C_1  and  C_16
REMARK    3  A    between atoms: N_2  and  C_9
REMARK    4  A    between atoms: C_9  and  C_10
REMARK    5  A    between atoms: C_16  and  C_18
REMARK    6  A    between atoms: C_18  and  C_20
REMARK                            x       y       z     vdW  Elec       q    Type
REMARK                         _______ _______ _______ _____ _____    ______ ____
ROOT
ATOM      1  C   UNL     1      35.680 -20.888 -19.075  0.00  0.00    +0.008 C 
ENDROOT
BRANCH   1   3
ATOM      2  N   UNL     1      35.164 -17.866 -22.118  0.00  0.00    +0.390 N 
ATOM      3  C   UNL     1      35.668 -20.223 -20.448  0.00  0.00    -0.004 C 
ATOM      4  C   UNL     1      36.621 -19.024 -20.488  0.00  0.00    -0.023 C 
ATOM      5  C   UNL     1      34.254 -19.773 -20.830  0.00  0.00    -0.023 C 
ATOM      6  C   UNL     1      36.540 -18.292 -21.829  0.00  0.00    -0.077 C 
ATOM      7  C   UNL     1      34.251 -19.016 -22.160  0.00  0.00    -0.077 C 
ATOM      8  H   UNL     1      34.860 -17.251 -21.363  0.00  0.00    -0.079 HD
BRANCH   2   9
ATOM      9  C   UNL     1      35.110 -17.124 -23.377  0.00  0.00    -0.050 C 
BRANCH   9  10
ATOM     10  C   UNL     1      34.604 -15.720 -23.179  0.00  0.00    -0.043 C 
ATOM     11  C   UNL     1      33.920 -15.089 -24.209  0.00  0.00    -0.006 C 
ATOM     12  C   UNL     1      34.828 -15.076 -21.970  0.00  0.00    -0.006 C 
ATOM     13  C   UNL     1      33.452 -13.788 -24.025  0.00  0.00    -0.000 C 
ATOM     14  C   UNL     1      34.359 -13.776 -21.786  0.00  0.00    -0.000 C 
ATOM     15  C   UNL     1      33.671 -13.131 -22.815  0.00  0.00    -0.000 C 
ENDBRANCH   9  10
ENDBRANCH   2   9
ENDBRANCH   1   3
BRANCH   1  16
ATOM     16  C   UNL     1      34.952 -22.232 -19.096  0.00  0.00    +0.069 C 
BRANCH  16  18
ATOM     17  O   UNL     1      32.668 -22.004 -18.357  0.00  0.00    -0.291 OA
ATOM     18  C   UNL     1      33.830 -22.338 -18.046  0.00  0.00    +0.173 C 
BRANCH  18  20
ATOM     19  N   UNL     1      37.131 -23.332 -14.624  0.00  0.00    -0.333 N 
ATOM     20  C   UNL     1      34.132 -22.823 -16.709  0.00  0.00    +0.036 C 
ATOM     21  C   UNL     1      34.738 -23.744 -14.120  0.00  0.00    -0.009 C 
ATOM     22  C   UNL     1      34.945 -24.210 -12.692  0.00  0.00    +0.028 C 
ATOM     23  C   UNL     1      35.785 -23.308 -14.962  0.00  0.00    +0.041 C 
ATOM     24  C   UNL     1      35.935 -23.350 -11.907  0.00  0.00    +0.006 C 
ATOM     25  C   UNL     1      37.403 -23.661 -12.200  0.00  0.00    +0.022 C 
ATOM     26  C   UNL     1      35.449 -22.835 -16.249  0.00  0.00    +0.017 C 
ATOM     27  C   UNL     1      37.682 -24.190 -13.599  0.00  0.00    +0.087 C 
ATOM     28  C   UNL     1      33.114 -23.287 -15.890  0.00  0.00    +0.003 C 
ATOM     29  C   UNL     1      33.414 -23.745 -14.609  0.00  0.00    -0.003 C 
ATOM     30  H   UNL     1      37.745 -22.733 -15.109  0.00  0.00    +0.147 HD
ENDBRANCH  18  20
ENDBRANCH  16  18
ENDBRANCH   1  16
TORSDOF 6
ENDMDL
MODEL 7
REMARK VINA RESULT:     -11.8      3.942      7.703
REMARK  Name = 198752
REMARK  6 active torsions:
REMARK  status: ('A' for Active; 'I' for Inactive)
REMARK    1  A    between atoms: C_1  and  C_3
REMARK    2  A    between atoms: C_1  and  C_16
REMARK    3  A    between atoms: N_2  and  C_9
REMARK    4  A    between atoms: C_9  and  C_10
REMARK    5  A    between atoms: C_16  and  C_18
REMARK    6  A    between atoms: C_18  and  C_20
REMARK                            x       y       z     vdW  Elec       q    Type
REMARK                         _______ _______ _______ _____ _____    ______ ____
ROOT
ATOM      1  C   UNL     1      34.889 -15.102 -21.985  0.00  0.00    +0.008 C 
ENDROOT
BRANCH   1   3
ATOM      2  N   UNL     1      32.541 -11.521 -21.419  0.00  0.00    +0.390 N 
ATOM      3  C   UNL     1      33.717 -14.128 -22.064  0.00  0.00    -0.004 C 
ATOM      4  C   UNL     1      34.118 -12.841 -22.793  0.00  0.00    -0.023 C 
ATOM      5  C   UNL     1      33.188 -13.787 -20.666  0.00  0.00    -0.023 C 
ATOM      6  C   UNL     1      32.979 -11.820 -22.788  0.00  0.00    -0.077 C 
ATOM      7  C   UNL     1      32.080 -12.735 -20.732  0.00  0.00    -0.077 C 
ATOM      8  H   UNL     1      33.342 -11.155 -20.905  0.00  0.00    -0.079 HD
BRANCH   2   9
ATOM      9  C   UNL     1      31.487 -10.506 -21.427  0.00  0.00    -0.050 C 
BRANCH   9  10
ATOM     10  C   UNL     1      32.047  -9.115 -21.288  0.00  0.00    -0.043 C 
ATOM     11  C   UNL     1      32.365  -8.630 -20.027  0.00  0.00    -0.006 C 
ATOM     12  C   UNL     1      32.239  -8.338 -22.422  0.00  0.00    -0.006 C 
ATOM     13  C   UNL     1      32.883  -7.341 -19.898  0.00  0.00    -0.000 C 
ATOM     14  C   UNL     1      32.758  -7.050 -22.293  0.00  0.00    -0.000 C 
ATOM     15  C   UNL     1      33.080  -6.551 -21.030  0.00  0.00    -0.000 C 
ENDBRANCH   9  10
ENDBRANCH   2   9
ENDBRANCH   1   3
BRANCH   1  16
ATOM     16  C   UNL     1      35.208 -15.707 -23.352  0.00  0.00    +0.069 C 
BRANCH  16  18
ATOM     17  O   UNL     1      34.284 -17.607 -24.513  0.00  0.00    -0.291 OA
ATOM     18  C   UNL     1      34.828 -17.195 -23.467  0.00  0.00    +0.173 C 
BRANCH  18  20
ATOM     19  N   UNL     1      33.217 -20.505 -20.298  0.00  0.00    -0.333 N 
ATOM     20  C   UNL     1      35.103 -18.102 -22.364  0.00  0.00    +0.036 C 
ATOM     21  C   UNL     1      35.615 -19.875 -20.240  0.00  0.00    -0.009 C 
ATOM     22  C   UNL     1      36.014 -20.831 -19.133  0.00  0.00    +0.028 C 
ATOM     23  C   UNL     1      34.310 -19.792 -20.773  0.00  0.00    +0.041 C 
ATOM     24  C   UNL     1      35.413 -22.228 -19.288  0.00  0.00    +0.006 C 
ATOM     25  C   UNL     1      33.959 -22.338 -18.832  0.00  0.00    +0.022 C 
ATOM     26  C   UNL     1      34.086 -18.907 -21.849  0.00  0.00    +0.017 C 
ATOM     27  C   UNL     1      33.144 -21.060 -18.965  0.00  0.00    +0.087 C 
ATOM     28  C   UNL     1      36.372 -18.162 -21.812  0.00  0.00    +0.003 C 
ATOM     29  C   UNL     1      36.626 -19.038 -20.759  0.00  0.00    -0.003 C 
ATOM     30  H   UNL     1      32.450 -20.639 -20.900  0.00  0.00    +0.147 HD
ENDBRANCH  18  20
ENDBRANCH  16  18
ENDBRANCH   1  16
TORSDOF 6
ENDMDL
MODEL 8
REMARK VINA RESULT:     -11.8      4.848     11.973
REMARK  Name = 198752
REMARK  6 active torsions:
REMARK  status: ('A' for Active; 'I' for Inactive)
REMARK    1  A    between atoms: C_1  and  C_3
REMARK    2  A    between atoms: C_1  and  C_16
REMARK    3  A    between atoms: N_2  and  C_9
REMARK    4  A    between atoms: C_9  and  C_10
REMARK    5  A    between atoms: C_16  and  C_18
REMARK    6  A    between atoms: C_18  and  C_20
REMARK                            x       y       z     vdW  Elec       q    Type
REMARK                         _______ _______ _______ _____ _____    ______ ____
ROOT
ATOM      1  C   UNL     1      34.011 -14.778 -23.948  0.00  0.00    +0.008 C 
ENDROOT
BRANCH   1   3
ATOM      2  N   UNL     1      35.214 -18.172 -21.563  0.00  0.00    +0.390 N 
ATOM      3  C   UNL     1      34.907 -15.821 -23.288  0.00  0.00    -0.004 C 
ATOM      4  C   UNL     1      34.540 -17.235 -23.751  0.00  0.00    -0.023 C 
ATOM      5  C   UNL     1      34.819 -15.737 -21.761  0.00  0.00    -0.023 C 
ATOM      6  C   UNL     1      35.367 -18.293 -23.019  0.00  0.00    -0.077 C 
ATOM      7  C   UNL     1      35.637 -16.845 -21.095  0.00  0.00    -0.077 C 
ATOM      8  H   UNL     1      34.225 -18.283 -21.340  0.00  0.00    -0.079 HD
BRANCH   2   9
ATOM      9  C   UNL     1      35.969 -19.221 -20.878  0.00  0.00    -0.050 C 
BRANCH   9  10
ATOM     10  C   UNL     1      35.067 -20.153 -20.114  0.00  0.00    -0.043 C 
ATOM     11  C   UNL     1      35.625 -21.146 -19.321  0.00  0.00    -0.006 C 
ATOM     12  C   UNL     1      33.690 -20.007 -20.212  0.00  0.00    -0.006 C 
ATOM     13  C   UNL     1      34.789 -22.010 -18.613  0.00  0.00    -0.000 C 
ATOM     14  C   UNL     1      32.855 -20.870 -19.504  0.00  0.00    -0.000 C 
ATOM     15  C   UNL     1      33.405 -21.872 -18.705  0.00  0.00    -0.000 C 
ENDBRANCH   9  10
ENDBRANCH   2   9
ENDBRANCH   1   3
BRANCH   1  16
ATOM     16  C   UNL     1      33.663 -13.645 -22.982  0.00  0.00    +0.069 C 
BRANCH  16  18
ATOM     17  O   UNL     1      33.676 -12.191 -24.905  0.00  0.00    -0.291 OA
ATOM     18  C   UNL     1      33.477 -12.283 -23.675  0.00  0.00    +0.173 C 
BRANCH  18  20
ATOM     19  N   UNL     1      33.570  -7.471 -23.025  0.00  0.00    -0.333 N 
ATOM     20  C   UNL     1      33.072 -11.122 -22.899  0.00  0.00    +0.036 C 
ATOM     21  C   UNL     1      32.289  -8.861 -21.419  0.00  0.00    -0.009 C 
ATOM     22  C   UNL     1      31.768  -7.711 -20.580  0.00  0.00    +0.028 C 
ATOM     23  C   UNL     1      33.090  -8.691 -22.570  0.00  0.00    +0.041 C 
ATOM     24  C   UNL     1      31.265  -6.530 -21.409  0.00  0.00    +0.006 C 
ATOM     25  C   UNL     1      32.372  -5.617 -21.935  0.00  0.00    +0.022 C 
ATOM     26  C   UNL     1      33.453  -9.842 -23.302  0.00  0.00    +0.017 C 
ATOM     27  C   UNL     1      33.707  -6.303 -22.183  0.00  0.00    +0.087 C 
ATOM     28  C   UNL     1      32.317 -11.284 -21.748  0.00  0.00    +0.003 C 
ATOM     29  C   UNL     1      31.930 -10.164 -21.014  0.00  0.00    -0.003 C 
ATOM     30  H   UNL     1      33.831  -7.395 -23.971  0.00  0.00    +0.147 HD
ENDBRANCH  18  20
ENDBRANCH  16  18
ENDBRANCH   1  16
TORSDOF 6
ENDMDL
MODEL 9
REMARK VINA RESULT:     -11.4      2.144      9.816
REMARK  Name = 198752
REMARK  6 active torsions:
REMARK  status: ('A' for Active; 'I' for Inactive)
REMARK    1  A    between atoms: C_1  and  C_3
REMARK    2  A    between atoms: C_1  and  C_16
REMARK    3  A    between atoms: N_2  and  C_9
REMARK    4  A    between atoms: C_9  and  C_10
REMARK    5  A    between atoms: C_16  and  C_18
REMARK    6  A    between atoms: C_18  and  C_20
REMARK                            x       y       z     vdW  Elec       q    Type
REMARK                         _______ _______ _______ _____ _____    ______ ____
ROOT
ATOM      1  C   UNL     1      36.931 -20.386 -19.151  0.00  0.00    +0.008 C 
ENDROOT
BRANCH   1   3
ATOM      2  N   UNL     1      34.596 -22.684 -16.336  0.00  0.00    +0.390 N 
ATOM      3  C   UNL     1      36.372 -21.588 -18.396  0.00  0.00    -0.004 C 
ATOM      4  C   UNL     1      34.857 -21.706 -18.594  0.00  0.00    -0.023 C 
ATOM      5  C   UNL     1      36.693 -21.497 -16.900  0.00  0.00    -0.023 C 
ATOM      6  C   UNL     1      34.274 -22.849 -17.760  0.00  0.00    -0.077 C 
ATOM      7  C   UNL     1      36.049 -22.647 -16.123  0.00  0.00    -0.077 C 
ATOM      8  H   UNL     1      34.210 -21.792 -16.027  0.00  0.00    -0.079 HD
BRANCH   2   9
ATOM      9  C   UNL     1      33.990 -23.755 -15.545  0.00  0.00    -0.050 C 
BRANCH   9  10
ATOM     10  C   UNL     1      32.582 -23.418 -15.132  0.00  0.00    -0.043 C 
ATOM     11  C   UNL     1      32.258 -23.377 -13.782  0.00  0.00    -0.006 C 
ATOM     12  C   UNL     1      31.628 -23.152 -16.104  0.00  0.00    -0.006 C 
ATOM     13  C   UNL     1      30.953 -23.065 -13.399  0.00  0.00    -0.000 C 
ATOM     14  C   UNL     1      30.324 -22.839 -15.720  0.00  0.00    -0.000 C 
ATOM     15  C   UNL     1      29.987 -22.796 -14.367  0.00  0.00    -0.000 C 
ENDBRANCH   9  10
ENDBRANCH   2   9
ENDBRANCH   1   3
BRANCH   1  16
ATOM     16  C   UNL     1      35.974 -19.916 -20.247  0.00  0.00    +0.069 C 
BRANCH  16  18
ATOM     17  O   UNL     1      37.781 -18.541 -21.055  0.00  0.00    -0.291 OA
ATOM     18  C   UNL     1      36.569 -18.824 -21.155  0.00  0.00    +0.173 C 
BRANCH  18  20
ATOM     19  N   UNL     1      34.593 -14.682 -22.745  0.00  0.00    -0.333 N 
ATOM     20  C   UNL     1      35.721 -18.136 -22.114  0.00  0.00    +0.036 C 
ATOM     21  C   UNL     1      34.095 -16.782 -23.969  0.00  0.00    -0.009 C 
ATOM     22  C   UNL     1      33.242 -16.148 -25.050  0.00  0.00    +0.028 C 
ATOM     23  C   UNL     1      34.734 -16.049 -22.944  0.00  0.00    +0.041 C 
ATOM     24  C   UNL     1      33.828 -14.852 -25.609  0.00  0.00    +0.006 C 
ATOM     25  C   UNL     1      33.588 -13.626 -24.728  0.00  0.00    +0.022 C 
ATOM     26  C   UNL     1      35.557 -16.752 -22.039  0.00  0.00    +0.017 C 
ATOM     27  C   UNL     1      33.471 -13.916 -23.239  0.00  0.00    +0.087 C 
ATOM     28  C   UNL     1      35.062 -18.853 -23.100  0.00  0.00    +0.003 C 
ATOM     29  C   UNL     1      34.255 -18.183 -24.018  0.00  0.00    -0.003 C 
ATOM     30  H   UNL     1      35.294 -14.210 -22.240  0.00  0.00    +0.147 HD
ENDBRANCH  18  20
ENDBRANCH  16  18
ENDBRANCH   1  16
TORSDOF 6
ENDMDL
