MODEL 1
REMARK VINA RESULT:     -11.3      0.000      0.000
REMARK  Name = 2448
REMARK  7 active torsions:
REMARK  status: ('A' for Active; 'I' for Inactive)
REMARK    1  A    between atoms: N_1  and  C_17
REMARK    2  A    between atoms: C_2  and  C_9
REMARK    3  A    between atoms: C_2  and  O_15
REMARK    4  A    between atoms: C_17  and  C_18
REMARK    5  A    between atoms: C_18  and  C_19
REMARK    6  A    between atoms: C_19  and  C_21
REMARK    7  A    between atoms: C_21  and  C_23
REMARK                            x       y       z     vdW  Elec       q    Type
REMARK                         _______ _______ _______ _____ _____    ______ ____
ROOT
ATOM      1  N   UNL     1      34.658 -15.294 -23.644  0.00  0.00    +0.387 N 
ATOM      2  C   UNL     1      33.319 -12.733 -22.958  0.00  0.00    +0.103 C 
ATOM      3  C   UNL     1      33.322 -13.349 -24.374  0.00  0.00    +0.008 C 
ATOM      4  C   UNL     1      34.520 -13.303 -22.169  0.00  0.00    +0.008 C 
ATOM      5  C   UNL     1      33.449 -14.877 -24.364  0.00  0.00    -0.075 C 
ATOM      6  C   UNL     1      34.629 -14.830 -22.253  0.00  0.00    -0.075 C 
ATOM      7  H   UNL     1      35.462 -14.865 -24.101  0.00  0.00    -0.080 HD
ENDROOT
BRANCH   2   9
ATOM      8 BR   UNL     1      33.367  -6.527 -22.799  0.00  0.00    -0.049 Br
ATOM      9  C   UNL     1      33.329 -11.203 -22.920  0.00  0.00    +0.002 C 
ATOM     10  C   UNL     1      34.252 -10.494 -23.686  0.00  0.00    -0.002 C 
ATOM     11  C   UNL     1      32.415 -10.521 -22.117  0.00  0.00    -0.002 C 
ATOM     12  C   UNL     1      34.264  -9.101 -23.651  0.00  0.00    +0.006 C 
ATOM     13  C   UNL     1      32.426  -9.126 -22.081  0.00  0.00    +0.006 C 
ATOM     14  C   UNL     1      33.351  -8.417 -22.849  0.00  0.00    +0.035 C 
ENDBRANCH   2   9
BRANCH   2  15
ATOM     15  O   UNL     1      32.096 -13.121 -22.313  0.00  0.00    -0.383 OA
ATOM     16  H   UNL     1      31.644 -13.789 -22.853  0.00  0.00    +0.211 HD
ENDBRANCH   2  15
BRANCH   1  17
ATOM     17  C   UNL     1      34.811 -16.747 -23.697  0.00  0.00    -0.077 C 
BRANCH  17  18
ATOM     18  C   UNL     1      35.628 -17.239 -22.501  0.00  0.00    -0.015 C 
BRANCH  18  19
ATOM     19  C   UNL     1      35.517 -18.753 -22.304  0.00  0.00    +0.067 C 
BRANCH  19  21
ATOM     20  O   UNL     1      37.101 -18.861 -20.487  0.00  0.00    -0.291 OA
ATOM     21  C   UNL     1      36.022 -19.225 -20.947  0.00  0.00    +0.173 C 
BRANCH  21  23
ATOM     22  F   UNL     1      32.805 -22.659 -17.943  0.00  0.00    -0.204 F 
ATOM     23  C   UNL     1      35.163 -20.142 -20.145  0.00  0.00    +0.035 C 
ATOM     24  C   UNL     1      33.795 -19.997 -20.215  0.00  0.00    +0.005 C 
ATOM     25  C   UNL     1      35.769 -21.100 -19.363  0.00  0.00    +0.005 C 
ATOM     26  C   UNL     1      32.992 -20.855 -19.465  0.00  0.00    +0.030 C 
ATOM     27  C   UNL     1      34.966 -21.957 -18.613  0.00  0.00    +0.030 C 
ATOM     28  C   UNL     1      33.577 -21.836 -18.664  0.00  0.00    +0.140 C 
ENDBRANCH  21  23
ENDBRANCH  19  21
ENDBRANCH  18  19
ENDBRANCH  17  18
ENDBRANCH   1  17
TORSDOF 7
ENDMDL
MODEL 2
REMARK VINA RESULT:     -11.2      5.403     10.772
REMARK  Name = 2448
REMARK  7 active torsions:
REMARK  status: ('A' for Active; 'I' for Inactive)
REMARK    1  A    between atoms: N_1  and  C_17
REMARK    2  A    between atoms: C_2  and  C_9
REMARK    3  A    between atoms: C_2  and  O_15
REMARK    4  A    between atoms: C_17  and  C_18
REMARK    5  A    between atoms: C_18  and  C_19
REMARK    6  A    between atoms: C_19  and  C_21
REMARK    7  A    between atoms: C_21  and  C_23
REMARK                            x       y       z     vdW  Elec       q    Type
REMARK                         _______ _______ _______ _____ _____    ______ ____
ROOT
ATOM      1  N   UNL     1      35.324 -20.212 -19.562  0.00  0.00    +0.387 N 
ATOM      2  C   UNL     1      33.898 -22.377 -18.112  0.00  0.00    +0.103 C 
ATOM      3  C   UNL     1      33.187 -21.214 -18.836  0.00  0.00    +0.008 C 
ATOM      4  C   UNL     1      35.345 -21.942 -17.783  0.00  0.00    +0.008 C 
ATOM      5  C   UNL     1      33.997 -20.650 -20.009  0.00  0.00    -0.075 C 
ATOM      6  C   UNL     1      36.079 -21.326 -18.981  0.00  0.00    -0.075 C 
ATOM      7  H   UNL     1      35.196 -19.507 -18.836  0.00  0.00    -0.080 HD
ENDROOT
BRANCH   2   9
ATOM      8 BR   UNL     1      31.029 -24.425 -13.002  0.00  0.00    -0.049 Br
ATOM      9  C   UNL     1      33.191 -22.884 -16.854  0.00  0.00    +0.002 C 
ATOM     10  C   UNL     1      31.804 -22.801 -16.754  0.00  0.00    -0.002 C 
ATOM     11  C   UNL     1      33.937 -23.426 -15.807  0.00  0.00    -0.002 C 
ATOM     12  C   UNL     1      31.158 -23.261 -15.607  0.00  0.00    +0.006 C 
ATOM     13  C   UNL     1      33.292 -23.886 -14.659  0.00  0.00    +0.006 C 
ATOM     14  C   UNL     1      31.903 -23.803 -14.559  0.00  0.00    +0.035 C 
ENDBRANCH   2   9
BRANCH   2  15
ATOM     15  O   UNL     1      33.929 -23.498 -19.009  0.00  0.00    -0.383 OA
ATOM     16  H   UNL     1      33.720 -24.309 -18.519  0.00  0.00    +0.211 HD
ENDBRANCH   2  15
BRANCH   1  17
ATOM     17  C   UNL     1      36.066 -19.611 -20.670  0.00  0.00    -0.077 C 
BRANCH  17  18
ATOM     18  C   UNL     1      35.098 -19.084 -21.731  0.00  0.00    -0.015 C 
BRANCH  18  19
ATOM     19  C   UNL     1      35.692 -17.924 -22.535  0.00  0.00    +0.067 C 
BRANCH  19  21
ATOM     20  O   UNL     1      35.310 -16.165 -20.927  0.00  0.00    -0.291 OA
ATOM     21  C   UNL     1      35.192 -16.558 -22.085  0.00  0.00    +0.173 C 
BRANCH  21  23
ATOM     22  F   UNL     1      32.811 -13.207 -25.863  0.00  0.00    -0.204 F 
ATOM     23  C   UNL     1      34.556 -15.663 -23.094  0.00  0.00    +0.035 C 
ATOM     24  C   UNL     1      34.168 -14.400 -22.706  0.00  0.00    +0.005 C 
ATOM     25  C   UNL     1      34.380 -16.133 -24.376  0.00  0.00    +0.005 C 
ATOM     26  C   UNL     1      33.574 -13.564 -23.649  0.00  0.00    +0.030 C 
ATOM     27  C   UNL     1      33.786 -15.296 -25.320  0.00  0.00    +0.030 C 
ATOM     28  C   UNL     1      33.383 -14.011 -24.957  0.00  0.00    +0.140 C 
ENDBRANCH  21  23
ENDBRANCH  19  21
ENDBRANCH  18  19
ENDBRANCH  17  18
ENDBRANCH   1  17
TORSDOF 7
ENDMDL
MODEL 3
REMARK VINA RESULT:     -11.2      5.409     10.777
REMARK  Name = 2448
REMARK  7 active torsions:
REMARK  status: ('A' for Active; 'I' for Inactive)
REMARK    1  A    between atoms: N_1  and  C_17
REMARK    2  A    between atoms: C_2  and  C_9
REMARK    3  A    between atoms: C_2  and  O_15
REMARK    4  A    between atoms: C_17  and  C_18
REMARK    5  A    between atoms: C_18  and  C_19
REMARK    6  A    between atoms: C_19  and  C_21
REMARK    7  A    between atoms: C_21  and  C_23
REMARK                            x       y       z     vdW  Elec       q    Type
REMARK                         _______ _______ _______ _____ _____    ______ ____
ROOT
ATOM      1  N   UNL     1      35.209 -20.175 -19.635  0.00  0.00    +0.387 N 
ATOM      2  C   UNL     1      33.829 -22.351 -18.158  0.00  0.00    +0.103 C 
ATOM      3  C   UNL     1      33.094 -21.189 -18.863  0.00  0.00    +0.008 C 
ATOM      4  C   UNL     1      35.280 -21.908 -17.861  0.00  0.00    +0.008 C 
ATOM      5  C   UNL     1      33.874 -20.619 -20.053  0.00  0.00    -0.075 C 
ATOM      6  C   UNL     1      35.983 -21.286 -19.074  0.00  0.00    -0.075 C 
ATOM      7  H   UNL     1      35.094 -19.472 -18.906  0.00  0.00    -0.080 HD
ENDROOT
BRANCH   2   9
ATOM      8 BR   UNL     1      31.087 -24.436 -12.993  0.00  0.00    -0.049 Br
ATOM      9  C   UNL     1      33.153 -22.863 -16.884  0.00  0.00    +0.002 C 
ATOM     10  C   UNL     1      33.925 -23.383 -15.847  0.00  0.00    -0.002 C 
ATOM     11  C   UNL     1      31.765 -22.810 -16.764  0.00  0.00    -0.002 C 
ATOM     12  C   UNL     1      33.310 -23.851 -14.687  0.00  0.00    +0.006 C 
ATOM     13  C   UNL     1      31.148 -23.279 -15.603  0.00  0.00    +0.006 C 
ATOM     14  C   UNL     1      31.922 -23.800 -14.565  0.00  0.00    +0.035 C 
ENDBRANCH   2   9
BRANCH   2  15
ATOM     15  O   UNL     1      33.845 -23.469 -19.056  0.00  0.00    -0.383 OA
ATOM     16  H   UNL     1      33.087 -23.410 -19.660  0.00  0.00    +0.211 HD
ENDBRANCH   2  15
BRANCH   1  17
ATOM     17  C   UNL     1      35.922 -19.568 -20.759  0.00  0.00    -0.077 C 
BRANCH  17  18
ATOM     18  C   UNL     1      34.929 -18.941 -21.739  0.00  0.00    -0.015 C 
BRANCH  18  19
ATOM     19  C   UNL     1      35.596 -17.927 -22.673  0.00  0.00    +0.067 C 
BRANCH  19  21
ATOM     20  O   UNL     1      34.081 -18.000 -24.550  0.00  0.00    -0.291 OA
ATOM     21  C   UNL     1      34.639 -17.322 -23.691  0.00  0.00    +0.173 C 
BRANCH  21  23
ATOM     22  F   UNL     1      33.582 -11.846 -23.440  0.00  0.00    -0.204 F 
ATOM     23  C   UNL     1      34.358 -15.860 -23.624  0.00  0.00    +0.035 C 
ATOM     24  C   UNL     1      34.808 -15.149 -22.535  0.00  0.00    +0.005 C 
ATOM     25  C   UNL     1      33.655 -15.274 -24.654  0.00  0.00    +0.005 C 
ATOM     26  C   UNL     1      34.545 -13.781 -22.473  0.00  0.00    +0.030 C 
ATOM     27  C   UNL     1      33.391 -13.907 -24.592  0.00  0.00    +0.030 C 
ATOM     28  C   UNL     1      33.836 -13.159 -23.501  0.00  0.00    +0.140 C 
ENDBRANCH  21  23
ENDBRANCH  19  21
ENDBRANCH  18  19
ENDBRANCH  17  18
ENDBRANCH   1  17
TORSDOF 7
ENDMDL
MODEL 4
REMARK VINA RESULT:     -11.1      4.743      9.637
REMARK  Name = 2448
REMARK  7 active torsions:
REMARK  status: ('A' for Active; 'I' for Inactive)
REMARK    1  A    between atoms: N_1  and  C_17
REMARK    2  A    between atoms: C_2  and  C_9
REMARK    3  A    between atoms: C_2  and  O_15
REMARK    4  A    between atoms: C_17  and  C_18
REMARK    5  A    between atoms: C_18  and  C_19
REMARK    6  A    between atoms: C_19  and  C_21
REMARK    7  A    between atoms: C_21  and  C_23
REMARK                            x       y       z     vdW  Elec       q    Type
REMARK                         _______ _______ _______ _____ _____    ______ ____
ROOT
ATOM      1  N   UNL     1      34.485 -15.822 -22.789  0.00  0.00    +0.387 N 
ATOM      2  C   UNL     1      35.274 -18.330 -21.409  0.00  0.00    +0.103 C 
ATOM      3  C   UNL     1      34.566 -18.290 -22.780  0.00  0.00    +0.008 C 
ATOM      4  C   UNL     1      34.989 -17.004 -20.667  0.00  0.00    +0.008 C 
ATOM      5  C   UNL     1      34.856 -17.008 -23.569  0.00  0.00    -0.075 C 
ATOM      6  C   UNL     1      35.236 -15.761 -21.531  0.00  0.00    -0.075 C 
ATOM      7  H   UNL     1      33.494 -15.891 -22.561  0.00  0.00    -0.080 HD
ENDROOT
BRANCH   2   9
ATOM      8 BR   UNL     1      33.791 -23.181 -17.830  0.00  0.00    -0.049 Br
ATOM      9  C   UNL     1      34.909 -19.527 -20.528  0.00  0.00    +0.002 C 
ATOM     10  C   UNL     1      33.571 -19.847 -20.309  0.00  0.00    -0.002 C 
ATOM     11  C   UNL     1      35.916 -20.294 -19.945  0.00  0.00    -0.002 C 
ATOM     12  C   UNL     1      33.236 -20.936 -19.506  0.00  0.00    +0.006 C 
ATOM     13  C   UNL     1      35.583 -21.384 -19.140  0.00  0.00    +0.006 C 
ATOM     14  C   UNL     1      34.243 -21.705 -18.921  0.00  0.00    +0.035 C 
ENDBRANCH   2   9
BRANCH   2  15
ATOM     15  O   UNL     1      36.685 -18.449 -21.647  0.00  0.00    -0.383 OA
ATOM     16  H   UNL     1      37.089 -17.567 -21.642  0.00  0.00    +0.211 HD
ENDBRANCH   2  15
BRANCH   1  17
ATOM     17  C   UNL     1      34.699 -14.606 -23.573  0.00  0.00    -0.077 C 
BRANCH  17  18
ATOM     18  C   UNL     1      34.327 -13.372 -22.749  0.00  0.00    -0.015 C 
BRANCH  18  19
ATOM     19  C   UNL     1      32.812 -13.210 -22.595  0.00  0.00    +0.067 C 
BRANCH  19  21
ATOM     20  O   UNL     1      32.235 -13.771 -20.320  0.00  0.00    -0.291 OA
ATOM     21  C   UNL     1      32.380 -12.895 -21.170  0.00  0.00    +0.173 C 
BRANCH  21  23
ATOM     22  F   UNL     1      31.507  -7.565 -19.757  0.00  0.00    -0.204 F 
ATOM     23  C   UNL     1      32.146 -11.472 -20.792  0.00  0.00    +0.035 C 
ATOM     24  C   UNL     1      32.102 -10.523 -21.789  0.00  0.00    +0.005 C 
ATOM     25  C   UNL     1      31.985 -11.159 -19.461  0.00  0.00    +0.005 C 
ATOM     26  C   UNL     1      31.883  -9.192 -21.436  0.00  0.00    +0.030 C 
ATOM     27  C   UNL     1      31.767  -9.828 -19.108  0.00  0.00    +0.030 C 
ATOM     28  C   UNL     1      31.716  -8.844 -20.095  0.00  0.00    +0.140 C 
ENDBRANCH  21  23
ENDBRANCH  19  21
ENDBRANCH  18  19
ENDBRANCH  17  18
ENDBRANCH   1  17
TORSDOF 7
ENDMDL
MODEL 5
REMARK VINA RESULT:     -10.8      5.355     10.541
REMARK  Name = 2448
REMARK  7 active torsions:
REMARK  status: ('A' for Active; 'I' for Inactive)
REMARK    1  A    between atoms: N_1  and  C_17
REMARK    2  A    between atoms: C_2  and  C_9
REMARK    3  A    between atoms: C_2  and  O_15
REMARK    4  A    between atoms: C_17  and  C_18
REMARK    5  A    between atoms: C_18  and  C_19
REMARK    6  A    between atoms: C_19  and  C_21
REMARK    7  A    between atoms: C_21  and  C_23
REMARK                            x       y       z     vdW  Elec       q    Type
REMARK                         _______ _______ _______ _____ _____    ______ ____
ROOT
ATOM      1  N   UNL     1      34.032 -20.082 -20.179  0.00  0.00    +0.387 N 
ATOM      2  C   UNL     1      34.194 -22.294 -18.203  0.00  0.00    +0.103 C 
ATOM      3  C   UNL     1      32.921 -21.456 -18.455  0.00  0.00    +0.008 C 
ATOM      4  C   UNL     1      35.421 -21.477 -18.669  0.00  0.00    +0.008 C 
ATOM      5  C   UNL     1      32.845 -20.890 -19.877  0.00  0.00    -0.075 C 
ATOM      6  C   UNL     1      35.256 -20.883 -20.073  0.00  0.00    -0.075 C 
ATOM      7  H   UNL     1      34.087 -19.331 -19.492  0.00  0.00    -0.080 HD
ENDROOT
BRANCH   2   9
ATOM      8 BR   UNL     1      34.948 -24.209 -12.347  0.00  0.00    -0.049 Br
ATOM      9  C   UNL     1      34.380 -22.767 -16.761  0.00  0.00    +0.002 C 
ATOM     10  C   UNL     1      33.297 -23.282 -16.052  0.00  0.00    -0.002 C 
ATOM     11  C   UNL     1      35.634 -22.681 -16.157  0.00  0.00    -0.002 C 
ATOM     12  C   UNL     1      33.465 -23.713 -14.736  0.00  0.00    +0.006 C 
ATOM     13  C   UNL     1      35.804 -23.112 -14.841  0.00  0.00    +0.006 C 
ATOM     14  C   UNL     1      34.719 -23.628 -14.131  0.00  0.00    +0.035 C 
ENDBRANCH   2   9
BRANCH   2  15
ATOM     15  O   UNL     1      34.092 -23.491 -18.988  0.00  0.00    -0.383 OA
ATOM     16  H   UNL     1      34.973 -23.743 -19.309  0.00  0.00    +0.211 HD
ENDBRANCH   2  15
BRANCH   1  17
ATOM     17  C   UNL     1      33.922 -19.487 -21.511  0.00  0.00    -0.077 C 
BRANCH  17  18
ATOM     18  C   UNL     1      35.274 -19.534 -22.226  0.00  0.00    -0.015 C 
BRANCH  18  19
ATOM     19  C   UNL     1      35.868 -18.139 -22.439  0.00  0.00    +0.067 C 
BRANCH  19  21
ATOM     20  O   UNL     1      35.950 -17.506 -20.111  0.00  0.00    -0.291 OA
ATOM     21  C   UNL     1      35.643 -17.200 -21.261  0.00  0.00    +0.173 C 
BRANCH  21  23
ATOM     22  F   UNL     1      33.420 -12.173 -22.238  0.00  0.00    -0.204 F 
ATOM     23  C   UNL     1      35.050 -15.858 -21.522  0.00  0.00    +0.035 C 
ATOM     24  C   UNL     1      34.641 -15.096 -20.450  0.00  0.00    +0.005 C 
ATOM     25  C   UNL     1      34.932 -15.429 -22.825  0.00  0.00    +0.005 C 
ATOM     26  C   UNL     1      34.087 -13.840 -20.694  0.00  0.00    +0.030 C 
ATOM     27  C   UNL     1      34.377 -14.173 -23.069  0.00  0.00    +0.030 C 
ATOM     28  C   UNL     1      33.954 -13.378 -22.004  0.00  0.00    +0.140 C 
ENDBRANCH  21  23
ENDBRANCH  19  21
ENDBRANCH  18  19
ENDBRANCH  17  18
ENDBRANCH   1  17
TORSDOF 7
ENDMDL
MODEL 6
REMARK VINA RESULT:     -10.7      7.444     10.839
REMARK  Name = 2448
REMARK  7 active torsions:
REMARK  status: ('A' for Active; 'I' for Inactive)
REMARK    1  A    between atoms: N_1  and  C_17
REMARK    2  A    between atoms: C_2  and  C_9
REMARK    3  A    between atoms: C_2  and  O_15
REMARK    4  A    between atoms: C_17  and  C_18
REMARK    5  A    between atoms: C_18  and  C_19
REMARK    6  A    between atoms: C_19  and  C_21
REMARK    7  A    between atoms: C_21  and  C_23
REMARK                            x       y       z     vdW  Elec       q    Type
REMARK                         _______ _______ _______ _____ _____    ______ ____
ROOT
ATOM      1  N   UNL     1      32.947 -23.248 -14.924  0.00  0.00    +0.387 N 
ATOM      2  C   UNL     1      33.768 -22.651 -17.716  0.00  0.00    +0.103 C 
ATOM      3  C   UNL     1      34.753 -22.735 -16.529  0.00  0.00    +0.008 C 
ATOM      4  C   UNL     1      32.354 -22.358 -17.163  0.00  0.00    +0.008 C 
ATOM      5  C   UNL     1      34.267 -23.664 -15.410  0.00  0.00    -0.075 C 
ATOM      6  C   UNL     1      31.954 -23.278 -16.003  0.00  0.00    -0.075 C 
ATOM      7  H   UNL     1      33.021 -22.287 -14.592  0.00  0.00    -0.080 HD
ENDROOT
BRANCH   2   9
ATOM      8 BR   UNL     1      35.293 -18.518 -22.090  0.00  0.00    -0.049 Br
ATOM      9  C   UNL     1      34.144 -21.634 -18.795  0.00  0.00    +0.002 C 
ATOM     10  C   UNL     1      35.484 -21.411 -19.105  0.00  0.00    -0.002 C 
ATOM     11  C   UNL     1      33.144 -20.930 -19.465  0.00  0.00    -0.002 C 
ATOM     12  C   UNL     1      35.827 -20.483 -20.088  0.00  0.00    +0.006 C 
ATOM     13  C   UNL     1      33.486 -20.001 -20.449  0.00  0.00    +0.006 C 
ATOM     14  C   UNL     1      34.828 -19.778 -20.759  0.00  0.00    +0.035 C 
ENDBRANCH   2   9
BRANCH   2  15
ATOM     15  O   UNL     1      33.768 -23.925 -18.376  0.00  0.00    -0.383 OA
ATOM     16  H   UNL     1      33.533 -23.804 -19.310  0.00  0.00    +0.211 HD
ENDBRANCH   2  15
BRANCH   1  17
ATOM     17  C   UNL     1      32.521 -24.094 -13.811  0.00  0.00    -0.077 C 
BRANCH  17  18
ATOM     18  C   UNL     1      33.723 -24.825 -13.210  0.00  0.00    -0.015 C 
BRANCH  18  19
ATOM     19  C   UNL     1      34.404 -24.013 -12.104  0.00  0.00    +0.067 C 
BRANCH  19  21
ATOM     20  O   UNL     1      35.764 -25.081 -10.421  0.00  0.00    -0.291 OA
ATOM     21  C   UNL     1      35.674 -24.663 -11.573  0.00  0.00    +0.173 C 
BRANCH  21  23
ATOM     22  F   UNL     1      40.032 -25.223 -15.017  0.00  0.00    -0.204 F 
ATOM     23  C   UNL     1      36.838 -24.812 -12.492  0.00  0.00    +0.035 C 
ATOM     24  C   UNL     1      37.103 -23.804 -13.392  0.00  0.00    +0.005 C 
ATOM     25  C   UNL     1      37.604 -25.953 -12.409  0.00  0.00    +0.005 C 
ATOM     26  C   UNL     1      38.192 -23.944 -14.251  0.00  0.00    +0.030 C 
ATOM     27  C   UNL     1      38.692 -26.093 -13.268  0.00  0.00    +0.030 C 
ATOM     28  C   UNL     1      38.987 -25.089 -14.190  0.00  0.00    +0.140 C 
ENDBRANCH  21  23
ENDBRANCH  19  21
ENDBRANCH  18  19
ENDBRANCH  17  18
ENDBRANCH   1  17
TORSDOF 7
ENDMDL
MODEL 7
REMARK VINA RESULT:     -10.7      5.320     10.622
REMARK  Name = 2448
REMARK  7 active torsions:
REMARK  status: ('A' for Active; 'I' for Inactive)
REMARK    1  A    between atoms: N_1  and  C_17
REMARK    2  A    between atoms: C_2  and  C_9
REMARK    3  A    between atoms: C_2  and  O_15
REMARK    4  A    between atoms: C_17  and  C_18
REMARK    5  A    between atoms: C_18  and  C_19
REMARK    6  A    between atoms: C_19  and  C_21
REMARK    7  A    between atoms: C_21  and  C_23
REMARK                            x       y       z     vdW  Elec       q    Type
REMARK                         _______ _______ _______ _____ _____    ______ ____
ROOT
ATOM      1  N   UNL     1      35.233 -19.990 -19.820  0.00  0.00    +0.387 N 
ATOM      2  C   UNL     1      33.990 -22.231 -18.318  0.00  0.00    +0.103 C 
ATOM      3  C   UNL     1      33.189 -21.084 -18.970  0.00  0.00    +0.008 C 
ATOM      4  C   UNL     1      35.440 -21.747 -18.080  0.00  0.00    +0.008 C 
ATOM      5  C   UNL     1      33.896 -20.471 -20.185  0.00  0.00    -0.075 C 
ATOM      6  C   UNL     1      36.067 -21.085 -19.312  0.00  0.00    -0.075 C 
ATOM      7  H   UNL     1      35.129 -19.302 -19.074  0.00  0.00    -0.080 HD
ENDROOT
BRANCH   2   9
ATOM      8 BR   UNL     1      31.552 -24.481 -13.071  0.00  0.00    -0.049 Br
ATOM      9  C   UNL     1      33.390 -22.784 -17.024  0.00  0.00    +0.002 C 
ATOM     10  C   UNL     1      34.225 -23.285 -16.027  0.00  0.00    -0.002 C 
ATOM     11  C   UNL     1      32.007 -22.787 -16.846  0.00  0.00    -0.002 C 
ATOM     12  C   UNL     1      33.678 -23.790 -14.848  0.00  0.00    +0.006 C 
ATOM     13  C   UNL     1      31.458 -23.293 -15.666  0.00  0.00    +0.006 C 
ATOM     14  C   UNL     1      32.295 -23.795 -14.668  0.00  0.00    +0.035 C 
ENDBRANCH   2   9
BRANCH   2  15
ATOM     15  O   UNL     1      34.001 -23.335 -19.235  0.00  0.00    -0.383 OA
ATOM     16  H   UNL     1      34.134 -24.162 -18.744  0.00  0.00    +0.211 HD
ENDBRANCH   2  15
BRANCH   1  17
ATOM     17  C   UNL     1      35.875 -19.344 -20.964  0.00  0.00    -0.077 C 
BRANCH  17  18
ATOM     18  C   UNL     1      34.973 -18.244 -21.526  0.00  0.00    -0.015 C 
BRANCH  18  19
ATOM     19  C   UNL     1      35.318 -16.863 -20.959  0.00  0.00    +0.067 C 
BRANCH  19  21
ATOM     20  O   UNL     1      35.776 -15.664 -23.002  0.00  0.00    -0.291 OA
ATOM     21  C   UNL     1      35.127 -15.734 -21.962  0.00  0.00    +0.173 C 
BRANCH  21  23
ATOM     22  F   UNL     1      31.281 -11.832 -20.888  0.00  0.00    -0.204 F 
ATOM     23  C   UNL     1      34.100 -14.692 -21.675  0.00  0.00    +0.035 C 
ATOM     24  C   UNL     1      33.667 -14.529 -20.378  0.00  0.00    +0.005 C 
ATOM     25  C   UNL     1      33.621 -13.931 -22.718  0.00  0.00    +0.005 C 
ATOM     26  C   UNL     1      32.707 -13.554 -20.110  0.00  0.00    +0.030 C 
ATOM     27  C   UNL     1      32.661 -12.956 -22.450  0.00  0.00    +0.030 C 
ATOM     28  C   UNL     1      32.203 -12.767 -21.146  0.00  0.00    +0.140 C 
ENDBRANCH  21  23
ENDBRANCH  19  21
ENDBRANCH  18  19
ENDBRANCH  17  18
ENDBRANCH   1  17
TORSDOF 7
ENDMDL
MODEL 8
REMARK VINA RESULT:     -10.6      7.242     10.633
REMARK  Name = 2448
REMARK  7 active torsions:
REMARK  status: ('A' for Active; 'I' for Inactive)
REMARK    1  A    between atoms: N_1  and  C_17
REMARK    2  A    between atoms: C_2  and  C_9
REMARK    3  A    between atoms: C_2  and  O_15
REMARK    4  A    between atoms: C_17  and  C_18
REMARK    5  A    between atoms: C_18  and  C_19
REMARK    6  A    between atoms: C_19  and  C_21
REMARK    7  A    between atoms: C_21  and  C_23
REMARK                            x       y       z     vdW  Elec       q    Type
REMARK                         _______ _______ _______ _____ _____    ______ ____
ROOT
ATOM      1  N   UNL     1      33.148 -23.236 -15.078  0.00  0.00    +0.387 N 
ATOM      2  C   UNL     1      33.916 -22.565 -17.868  0.00  0.00    +0.103 C 
ATOM      3  C   UNL     1      34.923 -22.676 -16.702  0.00  0.00    +0.008 C 
ATOM      4  C   UNL     1      32.511 -22.291 -17.282  0.00  0.00    +0.008 C 
ATOM      5  C   UNL     1      34.460 -23.635 -15.599  0.00  0.00    -0.075 C 
ATOM      6  C   UNL     1      32.136 -23.241 -16.139  0.00  0.00    -0.075 C 
ATOM      7  H   UNL     1      33.226 -22.283 -14.722  0.00  0.00    -0.080 HD
ENDROOT
BRANCH   2   9
ATOM      8 BR   UNL     1      35.348 -18.317 -22.162  0.00  0.00    -0.049 Br
ATOM      9  C   UNL     1      34.269 -21.519 -18.927  0.00  0.00    +0.002 C 
ATOM     10  C   UNL     1      35.604 -21.233 -19.205  0.00  0.00    -0.002 C 
ATOM     11  C   UNL     1      33.253 -20.853 -19.612  0.00  0.00    -0.002 C 
ATOM     12  C   UNL     1      35.927 -20.279 -20.170  0.00  0.00    +0.006 C 
ATOM     13  C   UNL     1      33.575 -19.898 -20.577  0.00  0.00    +0.006 C 
ATOM     14  C   UNL     1      34.912 -19.612 -20.856  0.00  0.00    +0.035 C 
ENDBRANCH   2   9
BRANCH   2  15
ATOM     15  O   UNL     1      33.906 -23.821 -18.561  0.00  0.00    -0.383 OA
ATOM     16  H   UNL     1      33.968 -23.664 -19.516  0.00  0.00    +0.211 HD
ENDBRANCH   2  15
BRANCH   1  17
ATOM     17  C   UNL     1      32.745 -24.112 -13.979  0.00  0.00    -0.077 C 
BRANCH  17  18
ATOM     18  C   UNL     1      31.701 -23.417 -13.102  0.00  0.00    -0.015 C 
BRANCH  18  19
ATOM     19  C   UNL     1      30.503 -24.320 -12.797  0.00  0.00    +0.067 C 
BRANCH  19  21
ATOM     20  O   UNL     1      30.036 -26.099 -14.359  0.00  0.00    -0.291 OA
ATOM     21  C   UNL     1      29.869 -24.924 -14.042  0.00  0.00    +0.173 C 
BRANCH  21  23
ATOM     22  F   UNL     1      26.609 -21.688 -17.216  0.00  0.00    -0.204 F 
ATOM     23  C   UNL     1      28.998 -24.060 -14.889  0.00  0.00    +0.035 C 
ATOM     24  C   UNL     1      28.676 -24.488 -16.157  0.00  0.00    +0.005 C 
ATOM     25  C   UNL     1      28.549 -22.865 -14.373  0.00  0.00    +0.005 C 
ATOM     26  C   UNL     1      27.861 -23.680 -16.950  0.00  0.00    +0.030 C 
ATOM     27  C   UNL     1      27.735 -22.057 -15.165  0.00  0.00    +0.030 C 
ATOM     28  C   UNL     1      27.390 -22.464 -16.454  0.00  0.00    +0.140 C 
ENDBRANCH  21  23
ENDBRANCH  19  21
ENDBRANCH  18  19
ENDBRANCH  17  18
ENDBRANCH   1  17
TORSDOF 7
ENDMDL
MODEL 9
REMARK VINA RESULT:     -10.5      3.572      6.283
REMARK  Name = 2448
REMARK  7 active torsions:
REMARK  status: ('A' for Active; 'I' for Inactive)
REMARK    1  A    between atoms: N_1  and  C_17
REMARK    2  A    between atoms: C_2  and  C_9
REMARK    3  A    between atoms: C_2  and  O_15
REMARK    4  A    between atoms: C_17  and  C_18
REMARK    5  A    between atoms: C_18  and  C_19
REMARK    6  A    between atoms: C_19  and  C_21
REMARK    7  A    between atoms: C_21  and  C_23
REMARK                            x       y       z     vdW  Elec       q    Type
REMARK                         _______ _______ _______ _____ _____    ______ ____
ROOT
ATOM      1  N   UNL     1      35.705 -20.214 -19.375  0.00  0.00    +0.387 N 
ATOM      2  C   UNL     1      35.378 -18.243 -21.573  0.00  0.00    +0.103 C 
ATOM      3  C   UNL     1      36.639 -18.342 -20.687  0.00  0.00    +0.008 C 
ATOM      4  C   UNL     1      34.189 -18.873 -20.811  0.00  0.00    +0.008 C 
ATOM      5  C   UNL     1      36.874 -19.751 -20.131  0.00  0.00    -0.075 C 
ATOM      6  C   UNL     1      34.510 -20.253 -20.224  0.00  0.00    -0.075 C 
ATOM      7  H   UNL     1      35.534 -19.550 -18.621  0.00  0.00    -0.080 HD
ENDROOT
BRANCH   2   9
ATOM      8 BR   UNL     1      33.947 -12.507 -23.468  0.00  0.00    -0.049 Br
ATOM      9  C   UNL     1      35.027 -16.829 -22.040  0.00  0.00    +0.002 C 
ATOM     10  C   UNL     1      34.977 -15.784 -21.120  0.00  0.00    -0.002 C 
ATOM     11  C   UNL     1      34.756 -16.589 -23.387  0.00  0.00    -0.002 C 
ATOM     12  C   UNL     1      34.656 -14.495 -21.545  0.00  0.00    +0.006 C 
ATOM     13  C   UNL     1      34.434 -15.300 -23.813  0.00  0.00    +0.006 C 
ATOM     14  C   UNL     1      34.384 -14.253 -22.891  0.00  0.00    +0.035 C 
ENDBRANCH   2   9
BRANCH   2  15
ATOM     15  O   UNL     1      35.626 -18.990 -22.773  0.00  0.00    -0.383 OA
ATOM     16  H   UNL     1      34.859 -18.916 -23.363  0.00  0.00    +0.211 HD
ENDBRANCH   2  15
BRANCH   1  17
ATOM     17  C   UNL     1      35.962 -21.529 -18.789  0.00  0.00    -0.077 C 
BRANCH  17  18
ATOM     18  C   UNL     1      34.690 -22.379 -18.818  0.00  0.00    -0.015 C 
BRANCH  18  19
ATOM     19  C   UNL     1      34.236 -22.794 -17.416  0.00  0.00    +0.067 C 
BRANCH  19  21
ATOM     20  O   UNL     1      32.027 -22.015 -17.996  0.00  0.00    -0.291 OA
ATOM     21  C   UNL     1      32.754 -22.555 -17.165  0.00  0.00    +0.173 C 
BRANCH  21  23
ATOM     22  F   UNL     1      30.548 -24.274 -12.333  0.00  0.00    -0.204 F 
ATOM     23  C   UNL     1      32.165 -23.015 -15.875  0.00  0.00    +0.035 C 
ATOM     24  C   UNL     1      30.795 -23.014 -15.736  0.00  0.00    +0.005 C 
ATOM     25  C   UNL     1      33.013 -23.421 -14.869  0.00  0.00    +0.005 C 
ATOM     26  C   UNL     1      30.245 -23.444 -14.530  0.00  0.00    +0.030 C 
ATOM     27  C   UNL     1      32.462 -23.851 -13.663  0.00  0.00    +0.030 C 
ATOM     28  C   UNL     1      31.078 -23.863 -13.492  0.00  0.00    +0.140 C 
ENDBRANCH  21  23
ENDBRANCH  19  21
ENDBRANCH  18  19
ENDBRANCH  17  18
ENDBRANCH   1  17
TORSDOF 7
ENDMDL
