MODEL 1
REMARK VINA RESULT:     -11.5      0.000      0.000
REMARK  Name = 9890801
REMARK  11 active torsions:
REMARK  status: ('A' for Active; 'I' for Inactive)
REMARK    1  A    between atoms: N_1  and  S_2
REMARK    2  A    between atoms: N_1  and  C_11
REMARK    3  A    between atoms: N_1  and  C_22
REMARK    4  A    between atoms: S_2  and  C_6
REMARK    5  A    between atoms: C_11  and  C_13
REMARK    6  A    between atoms: C_12  and  C_18
REMARK    7  A    between atoms: C_22  and  C_23
REMARK    8  A    between atoms: C_26  and  O_29
REMARK    9  A    between atoms: O_29  and  C_30
REMARK   10  A    between atoms: C_30  and  C_32
REMARK   11  A    between atoms: C_32  and  O_33
REMARK                            x       y       z     vdW  Elec       q    Type
REMARK                         _______ _______ _______ _____ _____    ______ ____
ROOT
ATOM      1  N   UNL     1      34.500 -23.149 -15.421  0.00  0.00    -0.147 NA
ENDROOT
BRANCH   1   2
ATOM      2  S   UNL     1      35.814 -24.175 -14.977  0.00  0.00    +0.065 S 
ATOM      3  O   UNL     1      37.053 -23.626 -15.498  0.00  0.00    -0.153 OA
ATOM      4  O   UNL     1      35.468 -25.555 -15.264  0.00  0.00    -0.153 OA
BRANCH   2   6
ATOM      5  N   UNL     1      35.027 -24.675 -11.050  0.00  0.00    -0.241 NA
ATOM      6  C   UNL     1      35.863 -24.001 -13.215  0.00  0.00    +0.141 C 
ATOM      7  C   UNL     1      36.729 -23.098 -12.608  0.00  0.00    +0.023 C 
ATOM      8  C   UNL     1      35.040 -24.760 -12.398  0.00  0.00    +0.119 C 
ATOM      9  C   UNL     1      36.746 -22.984 -11.221  0.00  0.00    +0.022 C 
ATOM     10  C   UNL     1      35.882 -23.788 -10.495  0.00  0.00    +0.099 C 
ENDBRANCH   2   6
ENDBRANCH   1   2
BRANCH   1  11
ATOM     11  C   UNL     1      33.853 -23.381 -16.735  0.00  0.00    +0.122 C 
BRANCH  11  13
ATOM     12  C   UNL     1      34.966 -20.462 -19.662  0.00  0.00    -0.023 C 
ATOM     13  C   UNL     1      34.241 -22.365 -17.755  0.00  0.00    -0.004 C 
ATOM     14  C   UNL     1      33.623 -20.794 -19.484  0.00  0.00    -0.005 C 
ATOM     15  C   UNL     1      35.947 -21.082 -18.887  0.00  0.00    -0.005 C 
ATOM     16  C   UNL     1      33.261 -21.745 -18.531  0.00  0.00    -0.003 C 
ATOM     17  C   UNL     1      35.585 -22.033 -17.933  0.00  0.00    -0.003 C 
BRANCH  12  18
ATOM     18  C   UNL     1      35.367 -19.415 -20.715  0.00  0.00    +0.019 C 
ATOM     19  C   UNL     1      34.947 -19.902 -22.118  0.00  0.00    +0.004 C 
ATOM     20  C   UNL     1      36.896 -19.208 -20.685  0.00  0.00    +0.004 C 
ATOM     21  C   UNL     1      34.715 -18.031 -20.498  0.00  0.00    +0.004 C 
ENDBRANCH  12  18
ENDBRANCH  11  13
ENDBRANCH   1  11
BRANCH   1  22
ATOM     22  C   UNL     1      33.513 -22.796 -14.369  0.00  0.00    +0.123 C 
BRANCH  22  23
ATOM     23  C   UNL     1      32.148 -23.353 -14.658  0.00  0.00    -0.001 C 
ATOM     24  C   UNL     1      31.271 -22.656 -15.489  0.00  0.00    +0.034 C 
ATOM     25  C   UNL     1      31.759 -24.568 -14.095  0.00  0.00    -0.003 C 
ATOM     26  C   UNL     1      30.004 -23.174 -15.757  0.00  0.00    +0.139 C 
ATOM     27  C   UNL     1      30.491 -25.086 -14.363  0.00  0.00    +0.003 C 
ATOM     28  C   UNL     1      29.614 -24.389 -15.194  0.00  0.00    +0.037 C 
BRANCH  26  29
ATOM     29  O   UNL     1      29.147 -22.493 -16.566  0.00  0.00    -0.464 OA
BRANCH  29  30
ATOM     30  C   UNL     1      27.855 -23.066 -16.770  0.00  0.00    +0.314 C 
BRANCH  30  32
ATOM     31  O   UNL     1      26.405 -21.156 -17.166  0.00  0.00    -0.246 OA
ATOM     32  C   UNL     1      26.793 -22.055 -16.435  0.00  0.00    +0.359 C 
BRANCH  32  33
ATOM     33  O   UNL     1      26.309 -22.281 -15.188  0.00  0.00    -0.478 OA
ATOM     34  H   UNL     1      26.817 -22.043 -14.438  0.00  0.00    +0.295 HD
ENDBRANCH  32  33
ENDBRANCH  30  32
ENDBRANCH  29  30
ENDBRANCH  26  29
ENDBRANCH  22  23
ENDBRANCH   1  22
TORSDOF 11
ENDMDL
MODEL 2
REMARK VINA RESULT:      -9.9      2.976      6.685
REMARK  Name = 9890801
REMARK  11 active torsions:
REMARK  status: ('A' for Active; 'I' for Inactive)
REMARK    1  A    between atoms: N_1  and  S_2
REMARK    2  A    between atoms: N_1  and  C_11
REMARK    3  A    between atoms: N_1  and  C_22
REMARK    4  A    between atoms: S_2  and  C_6
REMARK    5  A    between atoms: C_11  and  C_13
REMARK    6  A    between atoms: C_12  and  C_18
REMARK    7  A    between atoms: C_22  and  C_23
REMARK    8  A    between atoms: C_26  and  O_29
REMARK    9  A    between atoms: O_29  and  C_30
REMARK   10  A    between atoms: C_30  and  C_32
REMARK   11  A    between atoms: C_32  and  O_33
REMARK                            x       y       z     vdW  Elec       q    Type
REMARK                         _______ _______ _______ _____ _____    ______ ____
ROOT
ATOM      1  N   UNL     1      35.771 -23.254 -15.364  0.00  0.00    -0.147 NA
ENDROOT
BRANCH   1   2
ATOM      2  S   UNL     1      36.352 -24.714 -14.652  0.00  0.00    +0.065 S 
ATOM      3  O   UNL     1      37.744 -24.908 -15.013  0.00  0.00    -0.153 OA
ATOM      4  O   UNL     1      35.397 -25.781 -14.892  0.00  0.00    -0.153 OA
BRANCH   2   6
ATOM      5  N   UNL     1      35.262 -24.683 -10.766  0.00  0.00    -0.241 NA
ATOM      6  C   UNL     1      36.305 -24.346 -12.920  0.00  0.00    +0.141 C 
ATOM      7  C   UNL     1      37.222 -23.471 -12.348  0.00  0.00    +0.023 C 
ATOM      8  C   UNL     1      35.353 -24.921 -12.092  0.00  0.00    +0.119 C 
ATOM      9  C   UNL     1      37.160 -23.202 -10.985  0.00  0.00    +0.022 C 
ATOM     10  C   UNL     1      36.170 -23.828 -10.245  0.00  0.00    +0.099 C 
ENDBRANCH   2   6
ENDBRANCH   1   2
BRANCH   1  11
ATOM     11  C   UNL     1      34.878 -22.394 -14.549  0.00  0.00    +0.122 C 
BRANCH  11  13
ATOM     12  C   UNL     1      30.758 -23.504 -14.892  0.00  0.00    -0.023 C 
ATOM     13  C   UNL     1      33.443 -22.780 -14.668  0.00  0.00    -0.004 C 
ATOM     14  C   UNL     1      31.568 -23.471 -16.027  0.00  0.00    -0.005 C 
ATOM     15  C   UNL     1      31.289 -23.174 -13.645  0.00  0.00    -0.005 C 
ATOM     16  C   UNL     1      32.910 -23.109 -15.915  0.00  0.00    -0.003 C 
ATOM     17  C   UNL     1      32.633 -22.812 -13.533  0.00  0.00    -0.003 C 
BRANCH  12  18
ATOM     18  C   UNL     1      29.277 -23.900 -15.016  0.00  0.00    +0.019 C 
ATOM     19  C   UNL     1      28.384 -22.710 -14.605  0.00  0.00    +0.004 C 
ATOM     20  C   UNL     1      28.982 -25.099 -14.089  0.00  0.00    +0.004 C 
ATOM     21  C   UNL     1      28.858 -24.313 -16.444  0.00  0.00    +0.004 C 
ENDBRANCH  12  18
ENDBRANCH  11  13
ENDBRANCH   1  11
BRANCH   1  22
ATOM     22  C   UNL     1      36.723 -22.455 -16.177  0.00  0.00    +0.123 C 
BRANCH  22  23
ATOM     23  C   UNL     1      36.094 -21.927 -17.435  0.00  0.00    -0.001 C 
ATOM     24  C   UNL     1      36.721 -20.912 -18.156  0.00  0.00    +0.034 C 
ATOM     25  C   UNL     1      34.880 -22.451 -17.880  0.00  0.00    -0.003 C 
ATOM     26  C   UNL     1      36.136 -20.421 -19.323  0.00  0.00    +0.139 C 
ATOM     27  C   UNL     1      34.294 -21.960 -19.047  0.00  0.00    +0.003 C 
ATOM     28  C   UNL     1      34.922 -20.945 -19.769  0.00  0.00    +0.037 C 
BRANCH  26  29
ATOM     29  O   UNL     1      36.747 -19.429 -20.028  0.00  0.00    -0.464 OA
BRANCH  29  30
ATOM     30  C   UNL     1      36.108 -18.998 -21.229  0.00  0.00    +0.314 C 
BRANCH  30  32
ATOM     31  O   UNL     1      35.359 -16.965 -20.128  0.00  0.00    -0.246 OA
ATOM     32  C   UNL     1      35.767 -17.537 -21.127  0.00  0.00    +0.359 C 
BRANCH  32  33
ATOM     33  O   UNL     1      35.980 -16.924 -22.319  0.00  0.00    -0.478 OA
ATOM     34  H   UNL     1      35.259 -16.566 -22.798  0.00  0.00    +0.295 HD
ENDBRANCH  32  33
ENDBRANCH  30  32
ENDBRANCH  29  30
ENDBRANCH  26  29
ENDBRANCH  22  23
ENDBRANCH   1  22
TORSDOF 11
ENDMDL
MODEL 3
REMARK VINA RESULT:      -9.9      1.903      2.192
REMARK  Name = 9890801
REMARK  11 active torsions:
REMARK  status: ('A' for Active; 'I' for Inactive)
REMARK    1  A    between atoms: N_1  and  S_2
REMARK    2  A    between atoms: N_1  and  C_11
REMARK    3  A    between atoms: N_1  and  C_22
REMARK    4  A    between atoms: S_2  and  C_6
REMARK    5  A    between atoms: C_11  and  C_13
REMARK    6  A    between atoms: C_12  and  C_18
REMARK    7  A    between atoms: C_22  and  C_23
REMARK    8  A    between atoms: C_26  and  O_29
REMARK    9  A    between atoms: O_29  and  C_30
REMARK   10  A    between atoms: C_30  and  C_32
REMARK   11  A    between atoms: C_32  and  O_33
REMARK                            x       y       z     vdW  Elec       q    Type
REMARK                         _______ _______ _______ _____ _____    ______ ____
ROOT
ATOM      1  N   UNL     1      34.243 -23.070 -16.420  0.00  0.00    -0.147 NA
ENDROOT
BRANCH   1   2
ATOM      2  S   UNL     1      35.527 -22.449 -15.449  0.00  0.00    +0.065 S 
ATOM      3  O   UNL     1      34.981 -21.885 -14.228  0.00  0.00    -0.153 OA
ATOM      4  O   UNL     1      36.411 -21.645 -16.273  0.00  0.00    -0.153 OA
BRANCH   2   6
ATOM      5  N   UNL     1      36.422 -26.311 -14.686  0.00  0.00    -0.241 NA
ATOM      6  C   UNL     1      36.416 -23.914 -14.999  0.00  0.00    +0.141 C 
ATOM      7  C   UNL     1      37.751 -23.852 -14.616  0.00  0.00    +0.023 C 
ATOM      8  C   UNL     1      35.803 -25.157 -15.018  0.00  0.00    +0.119 C 
ATOM      9  C   UNL     1      38.423 -25.020 -14.268  0.00  0.00    +0.022 C 
ATOM     10  C   UNL     1      37.719 -26.212 -14.320  0.00  0.00    +0.099 C 
ENDBRANCH   2   6
ENDBRANCH   1   2
BRANCH   1  11
ATOM     11  C   UNL     1      34.539 -23.388 -17.839  0.00  0.00    +0.122 C 
BRANCH  11  13
ATOM     12  C   UNL     1      35.121 -19.885 -20.230  0.00  0.00    -0.023 C 
ATOM     13  C   UNL     1      34.742 -22.168 -18.671  0.00  0.00    -0.004 C 
ATOM     14  C   UNL     1      36.222 -20.616 -19.784  0.00  0.00    -0.005 C 
ATOM     15  C   UNL     1      33.830 -20.295 -19.896  0.00  0.00    -0.005 C 
ATOM     16  C   UNL     1      36.033 -21.757 -19.005  0.00  0.00    -0.003 C 
ATOM     17  C   UNL     1      33.640 -21.437 -19.117  0.00  0.00    -0.003 C 
BRANCH  12  18
ATOM     18  C   UNL     1      35.330 -18.625 -21.087  0.00  0.00    +0.019 C 
ATOM     19  C   UNL     1      34.507 -18.740 -22.388  0.00  0.00    +0.004 C 
ATOM     20  C   UNL     1      36.825 -18.482 -21.442  0.00  0.00    +0.004 C 
ATOM     21  C   UNL     1      34.899 -17.317 -20.388  0.00  0.00    +0.004 C 
ENDBRANCH  12  18
ENDBRANCH  11  13
ENDBRANCH   1  11
BRANCH   1  22
ATOM     22  C   UNL     1      33.331 -24.067 -15.804  0.00  0.00    +0.123 C 
BRANCH  22  23
ATOM     23  C   UNL     1      32.033 -23.455 -15.362  0.00  0.00    -0.001 C 
ATOM     24  C   UNL     1      31.069 -23.104 -16.308  0.00  0.00    +0.034 C 
ATOM     25  C   UNL     1      31.791 -23.235 -14.006  0.00  0.00    -0.003 C 
ATOM     26  C   UNL     1      29.864 -22.535 -15.897  0.00  0.00    +0.139 C 
ATOM     27  C   UNL     1      30.585 -22.665 -13.596  0.00  0.00    +0.003 C 
ATOM     28  C   UNL     1      29.622 -22.315 -14.541  0.00  0.00    +0.037 C 
BRANCH  26  29
ATOM     29  O   UNL     1      28.923 -22.191 -16.819  0.00  0.00    -0.464 OA
BRANCH  29  30
ATOM     30  C   UNL     1      27.667 -22.866 -16.747  0.00  0.00    +0.314 C 
BRANCH  30  32
ATOM     31  O   UNL     1      26.337 -20.918 -17.330  0.00  0.00    -0.246 OA
ATOM     32  C   UNL     1      26.559 -21.862 -16.588  0.00  0.00    +0.359 C 
BRANCH  32  33
ATOM     33  O   UNL     1      25.822 -22.151 -15.486  0.00  0.00    -0.478 OA
ATOM     34  H   UNL     1      24.933 -21.860 -15.426  0.00  0.00    +0.295 HD
ENDBRANCH  32  33
ENDBRANCH  30  32
ENDBRANCH  29  30
ENDBRANCH  26  29
ENDBRANCH  22  23
ENDBRANCH   1  22
TORSDOF 11
ENDMDL
MODEL 4
REMARK VINA RESULT:      -9.0     12.783     17.130
REMARK  Name = 9890801
REMARK  11 active torsions:
REMARK  status: ('A' for Active; 'I' for Inactive)
REMARK    1  A    between atoms: N_1  and  S_2
REMARK    2  A    between atoms: N_1  and  C_11
REMARK    3  A    between atoms: N_1  and  C_22
REMARK    4  A    between atoms: S_2  and  C_6
REMARK    5  A    between atoms: C_11  and  C_13
REMARK    6  A    between atoms: C_12  and  C_18
REMARK    7  A    between atoms: C_22  and  C_23
REMARK    8  A    between atoms: C_26  and  O_29
REMARK    9  A    between atoms: O_29  and  C_30
REMARK   10  A    between atoms: C_30  and  C_32
REMARK   11  A    between atoms: C_32  and  O_33
REMARK                            x       y       z     vdW  Elec       q    Type
REMARK                         _______ _______ _______ _____ _____    ______ ____
ROOT
ATOM      1  N   UNL     1      33.183  -7.276 -22.814  0.00  0.00    -0.147 NA
ENDROOT
BRANCH   1   2
ATOM      2  S   UNL     1      31.556  -7.404 -22.256  0.00  0.00    +0.065 S 
ATOM      3  O   UNL     1      30.733  -7.991 -23.299  0.00  0.00    -0.153 OA
ATOM      4  O   UNL     1      31.152  -6.149 -21.650  0.00  0.00    -0.153 OA
BRANCH   2   6
ATOM      5  N   UNL     1      32.459  -9.156 -18.734  0.00  0.00    -0.241 NA
ATOM      6  C   UNL     1      31.685  -8.599 -20.955  0.00  0.00    +0.141 C 
ATOM      7  C   UNL     1      31.149  -9.874 -21.096  0.00  0.00    +0.023 C 
ATOM      8  C   UNL     1      32.325  -8.292 -19.764  0.00  0.00    +0.119 C 
ATOM      9  C   UNL     1      31.266 -10.791 -20.056  0.00  0.00    +0.022 C 
ATOM     10  C   UNL     1      31.925 -10.385 -18.907  0.00  0.00    +0.099 C 
ENDBRANCH   2   6
ENDBRANCH   1   2
BRANCH   1  11
ATOM     11  C   UNL     1      33.814  -5.933 -22.806  0.00  0.00    +0.122 C 
BRANCH  11  13
ATOM     12  C   UNL     1      33.716  -4.043 -26.646  0.00  0.00    -0.023 C 
ATOM     13  C   UNL     1      33.780  -5.274 -24.143  0.00  0.00    -0.004 C 
ATOM     14  C   UNL     1      34.912  -4.570 -26.158  0.00  0.00    -0.005 C 
ATOM     15  C   UNL     1      32.552  -4.131 -25.883  0.00  0.00    -0.005 C 
ATOM     16  C   UNL     1      34.944  -5.185 -24.907  0.00  0.00    -0.003 C 
ATOM     17  C   UNL     1      32.584  -4.747 -24.631  0.00  0.00    -0.003 C 
BRANCH  12  18
ATOM     18  C   UNL     1      33.682  -3.362 -28.025  0.00  0.00    +0.019 C 
ATOM     19  C   UNL     1      34.935  -2.478 -28.200  0.00  0.00    +0.004 C 
ATOM     20  C   UNL     1      32.419  -2.481 -28.136  0.00  0.00    +0.004 C 
ATOM     21  C   UNL     1      33.653  -4.353 -29.210  0.00  0.00    +0.004 C 
ENDBRANCH  12  18
ENDBRANCH  11  13
ENDBRANCH   1  11
BRANCH   1  22
ATOM     22  C   UNL     1      34.137  -8.341 -22.413  0.00  0.00    +0.123 C 
BRANCH  22  23
ATOM     23  C   UNL     1      34.301  -9.388 -23.478  0.00  0.00    -0.001 C 
ATOM     24  C   UNL     1      33.601 -10.591 -23.388  0.00  0.00    +0.034 C 
ATOM     25  C   UNL     1      35.154  -9.157 -24.557  0.00  0.00    -0.003 C 
ATOM     26  C   UNL     1      33.754 -11.563 -24.376  0.00  0.00    +0.139 C 
ATOM     27  C   UNL     1      35.307 -10.130 -25.546  0.00  0.00    +0.003 C 
ATOM     28  C   UNL     1      34.607 -11.333 -25.456  0.00  0.00    +0.037 C 
BRANCH  26  29
ATOM     29  O   UNL     1      33.072 -12.738 -24.288  0.00  0.00    -0.464 OA
BRANCH  29  30
ATOM     30  C   UNL     1      33.087 -13.584 -25.438  0.00  0.00    +0.314 C 
BRANCH  30  32
ATOM     31  O   UNL     1      33.735 -15.896 -25.816  0.00  0.00    -0.246 OA
ATOM     32  C   UNL     1      33.567 -14.956 -25.053  0.00  0.00    +0.359 C 
BRANCH  32  33
ATOM     33  O   UNL     1      33.797 -15.013 -23.717  0.00  0.00    -0.478 OA
ATOM     34  H   UNL     1      33.529 -14.306 -23.164  0.00  0.00    +0.295 HD
ENDBRANCH  32  33
ENDBRANCH  30  32
ENDBRANCH  29  30
ENDBRANCH  26  29
ENDBRANCH  22  23
ENDBRANCH   1  22
TORSDOF 11
ENDMDL
MODEL 5
REMARK VINA RESULT:      -8.8      3.261      7.715
REMARK  Name = 9890801
REMARK  11 active torsions:
REMARK  status: ('A' for Active; 'I' for Inactive)
REMARK    1  A    between atoms: N_1  and  S_2
REMARK    2  A    between atoms: N_1  and  C_11
REMARK    3  A    between atoms: N_1  and  C_22
REMARK    4  A    between atoms: S_2  and  C_6
REMARK    5  A    between atoms: C_11  and  C_13
REMARK    6  A    between atoms: C_12  and  C_18
REMARK    7  A    between atoms: C_22  and  C_23
REMARK    8  A    between atoms: C_26  and  O_29
REMARK    9  A    between atoms: O_29  and  C_30
REMARK   10  A    between atoms: C_30  and  C_32
REMARK   11  A    between atoms: C_32  and  O_33
REMARK                            x       y       z     vdW  Elec       q    Type
REMARK                         _______ _______ _______ _____ _____    ______ ____
ROOT
ATOM      1  N   UNL     1      32.843 -23.147 -15.921  0.00  0.00    -0.147 NA
ENDROOT
BRANCH   1   2
ATOM      2  S   UNL     1      31.764 -23.303 -14.584  0.00  0.00    +0.065 S 
ATOM      3  O   UNL     1      31.814 -22.097 -13.779  0.00  0.00    -0.153 OA
ATOM      4  O   UNL     1      31.963 -24.594 -13.950  0.00  0.00    -0.153 OA
BRANCH   2   6
ATOM      5  N   UNL     1      28.297 -22.133 -16.289  0.00  0.00    -0.241 NA
ATOM      6  C   UNL     1      30.177 -23.343 -15.370  0.00  0.00    +0.141 C 
ATOM      7  C   UNL     1      29.564 -24.551 -15.685  0.00  0.00    +0.023 C 
ATOM      8  C   UNL     1      29.508 -22.173 -15.691  0.00  0.00    +0.119 C 
ATOM      9  C   UNL     1      28.317 -24.551 -16.303  0.00  0.00    +0.022 C 
ATOM     10  C   UNL     1      27.732 -23.326 -16.581  0.00  0.00    +0.099 C 
ENDBRANCH   2   6
ENDBRANCH   1   2
BRANCH   1  11
ATOM     11  C   UNL     1      33.767 -24.274 -16.200  0.00  0.00    +0.122 C 
BRANCH  11  13
ATOM     12  C   UNL     1      36.916 -24.582 -13.316  0.00  0.00    -0.023 C 
ATOM     13  C   UNL     1      34.864 -24.381 -15.195  0.00  0.00    -0.004 C 
ATOM     14  C   UNL     1      36.513 -25.710 -14.031  0.00  0.00    -0.005 C 
ATOM     15  C   UNL     1      36.293 -23.354 -13.540  0.00  0.00    -0.005 C 
ATOM     16  C   UNL     1      35.487 -25.609 -14.970  0.00  0.00    -0.003 C 
ATOM     17  C   UNL     1      35.267 -23.253 -14.480  0.00  0.00    -0.003 C 
BRANCH  12  18
ATOM     18  C   UNL     1      38.046 -24.693 -12.278  0.00  0.00    +0.019 C 
ATOM     19  C   UNL     1      39.393 -24.914 -12.998  0.00  0.00    +0.004 C 
ATOM     20  C   UNL     1      37.770 -25.885 -11.337  0.00  0.00    +0.004 C 
ATOM     21  C   UNL     1      38.202 -23.438 -11.390  0.00  0.00    +0.004 C 
ENDBRANCH  12  18
ENDBRANCH  11  13
ENDBRANCH   1  11
BRANCH   1  22
ATOM     22  C   UNL     1      32.316 -22.537 -17.168  0.00  0.00    +0.123 C 
BRANCH  22  23
ATOM     23  C   UNL     1      33.406 -21.962 -18.026  0.00  0.00    -0.001 C 
ATOM     24  C   UNL     1      33.090 -21.076 -19.056  0.00  0.00    +0.034 C 
ATOM     25  C   UNL     1      34.736 -22.313 -17.792  0.00  0.00    -0.003 C 
ATOM     26  C   UNL     1      34.103 -20.542 -19.852  0.00  0.00    +0.139 C 
ATOM     27  C   UNL     1      35.749 -21.779 -18.589  0.00  0.00    +0.003 C 
ATOM     28  C   UNL     1      35.432 -20.894 -19.619  0.00  0.00    +0.037 C 
BRANCH  26  29
ATOM     29  O   UNL     1      33.795 -19.679 -20.859  0.00  0.00    -0.464 OA
BRANCH  29  30
ATOM     30  C   UNL     1      34.839 -19.354 -21.777  0.00  0.00    +0.314 C 
BRANCH  30  32
ATOM     31  O   UNL     1      35.266 -17.395 -20.403  0.00  0.00    -0.246 OA
ATOM     32  C   UNL     1      35.382 -17.986 -21.466  0.00  0.00    +0.359 C 
BRANCH  32  33
ATOM     33  O   UNL     1      36.033 -17.486 -22.545  0.00  0.00    -0.478 OA
ATOM     34  H   UNL     1      35.693 -17.628 -23.406  0.00  0.00    +0.295 HD
ENDBRANCH  32  33
ENDBRANCH  30  32
ENDBRANCH  29  30
ENDBRANCH  26  29
ENDBRANCH  22  23
ENDBRANCH   1  22
TORSDOF 11
ENDMDL
MODEL 6
REMARK VINA RESULT:      -8.6     12.726     16.843
REMARK  Name = 9890801
REMARK  11 active torsions:
REMARK  status: ('A' for Active; 'I' for Inactive)
REMARK    1  A    between atoms: N_1  and  S_2
REMARK    2  A    between atoms: N_1  and  C_11
REMARK    3  A    between atoms: N_1  and  C_22
REMARK    4  A    between atoms: S_2  and  C_6
REMARK    5  A    between atoms: C_11  and  C_13
REMARK    6  A    between atoms: C_12  and  C_18
REMARK    7  A    between atoms: C_22  and  C_23
REMARK    8  A    between atoms: C_26  and  O_29
REMARK    9  A    between atoms: O_29  and  C_30
REMARK   10  A    between atoms: C_30  and  C_32
REMARK   11  A    between atoms: C_32  and  O_33
REMARK                            x       y       z     vdW  Elec       q    Type
REMARK                         _______ _______ _______ _____ _____    ______ ____
ROOT
ATOM      1  N   UNL     1      31.487  -8.499 -21.793  0.00  0.00    -0.147 NA
ENDROOT
BRANCH   1   2
ATOM      2  S   UNL     1      32.039  -7.604 -20.426  0.00  0.00    +0.065 S 
ATOM      3  O   UNL     1      33.488  -7.657 -20.366  0.00  0.00    -0.153 OA
ATOM      4  O   UNL     1      31.262  -7.978 -19.258  0.00  0.00    -0.153 OA
BRANCH   2   6
ATOM      5  N   UNL     1      29.880  -4.371 -21.511  0.00  0.00    -0.241 NA
ATOM      6  C   UNL     1      31.591  -5.942 -20.845  0.00  0.00    +0.141 C 
ATOM      7  C   UNL     1      32.538  -4.924 -20.846  0.00  0.00    +0.023 C 
ATOM      8  C   UNL     1      30.287  -5.616 -21.181  0.00  0.00    +0.119 C 
ATOM      9  C   UNL     1      32.157  -3.628 -21.179  0.00  0.00    +0.022 C 
ATOM     10  C   UNL     1      30.827  -3.406 -21.501  0.00  0.00    +0.099 C 
ENDBRANCH   2   6
ENDBRANCH   1   2
BRANCH   1  11
ATOM     11  C   UNL     1      32.396  -8.610 -22.961  0.00  0.00    +0.122 C 
BRANCH  11  13
ATOM     12  C   UNL     1      33.033  -4.858 -24.921  0.00  0.00    -0.023 C 
ATOM     13  C   UNL     1      32.618  -7.303 -23.643  0.00  0.00    -0.004 C 
ATOM     14  C   UNL     1      34.110  -5.540 -24.354  0.00  0.00    -0.005 C 
ATOM     15  C   UNL     1      31.749  -5.398 -24.849  0.00  0.00    -0.005 C 
ATOM     16  C   UNL     1      33.902  -6.762 -23.715  0.00  0.00    -0.003 C 
ATOM     17  C   UNL     1      31.541  -6.621 -24.211  0.00  0.00    -0.003 C 
BRANCH  12  18
ATOM     18  C   UNL     1      33.261  -3.509 -25.624  0.00  0.00    +0.019 C 
ATOM     19  C   UNL     1      34.750  -3.368 -26.007  0.00  0.00    +0.004 C 
ATOM     20  C   UNL     1      32.869  -2.357 -24.674  0.00  0.00    +0.004 C 
ATOM     21  C   UNL     1      32.438  -3.333 -26.919  0.00  0.00    +0.004 C 
ENDBRANCH  12  18
ENDBRANCH  11  13
ENDBRANCH   1  11
BRANCH   1  22
ATOM     22  C   UNL     1      30.748  -9.762 -21.541  0.00  0.00    +0.123 C 
BRANCH  22  23
ATOM     23  C   UNL     1      31.668 -10.942 -21.403  0.00  0.00    -0.001 C 
ATOM     24  C   UNL     1      32.368 -11.414 -22.514  0.00  0.00    +0.034 C 
ATOM     25  C   UNL     1      31.821 -11.566 -20.165  0.00  0.00    -0.003 C 
ATOM     26  C   UNL     1      33.221 -12.510 -22.386  0.00  0.00    +0.139 C 
ATOM     27  C   UNL     1      32.675 -12.663 -20.038  0.00  0.00    +0.003 C 
ATOM     28  C   UNL     1      33.375 -13.135 -21.148  0.00  0.00    +0.037 C 
BRANCH  26  29
ATOM     29  O   UNL     1      33.904 -12.973 -23.469  0.00  0.00    -0.464 OA
BRANCH  29  30
ATOM     30  C   UNL     1      34.070 -14.387 -23.576  0.00  0.00    +0.314 C 
BRANCH  30  32
ATOM     31  O   UNL     1      34.218 -15.655 -25.643  0.00  0.00    -0.246 OA
ATOM     32  C   UNL     1      33.631 -14.848 -24.938  0.00  0.00    +0.359 C 
BRANCH  32  33
ATOM     33  O   UNL     1      32.471 -14.238 -25.287  0.00  0.00    -0.478 OA
ATOM     34  H   UNL     1      32.375 -13.865 -26.141  0.00  0.00    +0.295 HD
ENDBRANCH  32  33
ENDBRANCH  30  32
ENDBRANCH  29  30
ENDBRANCH  26  29
ENDBRANCH  22  23
ENDBRANCH   1  22
TORSDOF 11
ENDMDL
MODEL 7
REMARK VINA RESULT:      -8.6      1.745      2.393
REMARK  Name = 9890801
REMARK  11 active torsions:
REMARK  status: ('A' for Active; 'I' for Inactive)
REMARK    1  A    between atoms: N_1  and  S_2
REMARK    2  A    between atoms: N_1  and  C_11
REMARK    3  A    between atoms: N_1  and  C_22
REMARK    4  A    between atoms: S_2  and  C_6
REMARK    5  A    between atoms: C_11  and  C_13
REMARK    6  A    between atoms: C_12  and  C_18
REMARK    7  A    between atoms: C_22  and  C_23
REMARK    8  A    between atoms: C_26  and  O_29
REMARK    9  A    between atoms: O_29  and  C_30
REMARK   10  A    between atoms: C_30  and  C_32
REMARK   11  A    between atoms: C_32  and  O_33
REMARK                            x       y       z     vdW  Elec       q    Type
REMARK                         _______ _______ _______ _____ _____    ______ ____
ROOT
ATOM      1  N   UNL     1      33.034 -22.976 -16.006  0.00  0.00    -0.147 NA
ENDROOT
BRANCH   1   2
ATOM      2  S   UNL     1      33.980 -24.341 -15.539  0.00  0.00    +0.065 S 
ATOM      3  O   UNL     1      34.103 -25.252 -16.662  0.00  0.00    -0.153 OA
ATOM      4  O   UNL     1      33.506 -24.843 -14.262  0.00  0.00    -0.153 OA
BRANCH   2   6
ATOM      5  N   UNL     1      37.715 -23.724 -14.137  0.00  0.00    -0.241 NA
ATOM      6  C   UNL     1      35.578 -23.628 -15.263  0.00  0.00    +0.141 C 
ATOM      7  C   UNL     1      35.964 -22.462 -15.914  0.00  0.00    +0.023 C 
ATOM      8  C   UNL     1      36.483 -24.216 -14.392  0.00  0.00    +0.119 C 
ATOM      9  C   UNL     1      37.226 -21.926 -15.677  0.00  0.00    +0.022 C 
ATOM     10  C   UNL     1      38.056 -22.590 -14.788  0.00  0.00    +0.099 C 
ENDBRANCH   2   6
ENDBRANCH   1   2
BRANCH   1  11
ATOM     11  C   UNL     1      32.494 -22.948 -17.388  0.00  0.00    +0.122 C 
BRANCH  11  13
ATOM     12  C   UNL     1      34.613 -20.236 -19.934  0.00  0.00    -0.023 C 
ATOM     13  C   UNL     1      33.232 -22.003 -18.275  0.00  0.00    -0.004 C 
ATOM     14  C   UNL     1      35.312 -21.196 -19.203  0.00  0.00    -0.005 C 
ATOM     15  C   UNL     1      33.224 -20.158 -19.835  0.00  0.00    -0.005 C 
ATOM     16  C   UNL     1      34.622 -22.079 -18.374  0.00  0.00    -0.003 C 
ATOM     17  C   UNL     1      32.533 -21.042 -19.005  0.00  0.00    -0.003 C 
BRANCH  12  18
ATOM     18  C   UNL     1      35.374 -19.259 -20.847  0.00  0.00    +0.019 C 
ATOM     19  C   UNL     1      34.941 -17.811 -20.534  0.00  0.00    +0.004 C 
ATOM     20  C   UNL     1      35.057 -19.577 -22.324  0.00  0.00    +0.004 C 
ATOM     21  C   UNL     1      36.909 -19.322 -20.686  0.00  0.00    +0.004 C 
ENDBRANCH  12  18
ENDBRANCH  11  13
ENDBRANCH   1  11
BRANCH   1  22
ATOM     22  C   UNL     1      32.066 -22.435 -15.019  0.00  0.00    +0.123 C 
BRANCH  22  23
ATOM     23  C   UNL     1      30.844 -23.298 -14.887  0.00  0.00    -0.001 C 
ATOM     24  C   UNL     1      29.807 -23.187 -15.813  0.00  0.00    +0.034 C 
ATOM     25  C   UNL     1      30.746 -24.212 -13.837  0.00  0.00    -0.003 C 
ATOM     26  C   UNL     1      28.673 -23.989 -15.690  0.00  0.00    +0.139 C 
ATOM     27  C   UNL     1      29.611 -25.014 -13.714  0.00  0.00    +0.003 C 
ATOM     28  C   UNL     1      28.574 -24.902 -14.641  0.00  0.00    +0.037 C 
BRANCH  26  29
ATOM     29  O   UNL     1      27.660 -23.880 -16.593  0.00  0.00    -0.464 OA
BRANCH  29  30
ATOM     30  C   UNL     1      27.511 -22.622 -17.252  0.00  0.00    +0.314 C 
BRANCH  30  32
ATOM     31  O   UNL     1      25.778 -22.172 -15.608  0.00  0.00    -0.246 OA
ATOM     32  C   UNL     1      26.419 -21.828 -16.589  0.00  0.00    +0.359 C 
BRANCH  32  33
ATOM     33  O   UNL     1      26.239 -20.650 -17.239  0.00  0.00    -0.478 OA
ATOM     34  H   UNL     1      26.755 -20.447 -17.993  0.00  0.00    +0.295 HD
ENDBRANCH  32  33
ENDBRANCH  30  32
ENDBRANCH  29  30
ENDBRANCH  26  29
ENDBRANCH  22  23
ENDBRANCH   1  22
TORSDOF 11
ENDMDL
