MODEL 1
REMARK VINA RESULT:     -13.6      0.000      0.000
REMARK  Name = 71351
REMARK  4 active torsions:
REMARK  status: ('A' for Active; 'I' for Inactive)
REMARK    1  A    between atoms: N_1  and  C_18
REMARK    2  A    between atoms: C_2  and  C_11
REMARK    3  A    between atoms: C_18  and  C_19
REMARK    4  A    between atoms: C_19  and  C_23
REMARK                            x       y       z     vdW  Elec       q    Type
REMARK                         _______ _______ _______ _____ _____    ______ ____
ROOT
ATOM      1  N   UNL     1      35.309 -18.948 -20.531  0.00  0.00    +0.387 N 
ATOM      2  C   UNL     1      35.235 -17.341 -22.984  0.00  0.00    +0.039 C 
ATOM      3  C   UNL     1      35.336 -16.709 -21.586  0.00  0.00    -0.017 C 
ATOM      4  C   UNL     1      34.575 -18.726 -22.885  0.00  0.00    -0.017 C 
ATOM      5  C   UNL     1      36.012 -17.660 -20.595  0.00  0.00    -0.077 C 
ATOM      6  C   UNL     1      35.280 -19.602 -21.846  0.00  0.00    -0.077 C 
ATOM      7  H   UNL     1      34.345 -18.767 -20.248  0.00  0.00    -0.080 HD
ENDROOT
BRANCH   2  11
ATOM      8  F   UNL     1      33.088 -11.214 -24.738  0.00  0.00    -0.204 F 
ATOM      9  O   UNL     1      33.530 -15.883 -25.804  0.00  0.00    -0.354 OA
ATOM     10  N   UNL     1      34.092 -16.956 -25.123  0.00  0.00    -0.081 NA
ATOM     11  C   UNL     1      34.549 -16.439 -23.985  0.00  0.00    +0.100 A 
ATOM     12  C   UNL     1      34.317 -15.059 -23.875  0.00  0.00    +0.054 A 
ATOM     13  C   UNL     1      33.666 -14.753 -25.057  0.00  0.00    +0.179 A 
ATOM     14  C   UNL     1      34.563 -14.036 -22.947  0.00  0.00    +0.007 C 
ATOM     15  C   UNL     1      33.228 -13.478 -25.404  0.00  0.00    +0.070 C 
ATOM     16  C   UNL     1      34.136 -12.739 -23.264  0.00  0.00    +0.030 C 
ATOM     17  C   UNL     1      33.482 -12.467 -24.470  0.00  0.00    +0.143 C 
ENDBRANCH   2  11
BRANCH   1  18
ATOM     18  C   UNL     1      35.933 -19.823 -19.538  0.00  0.00    -0.076 C 
BRANCH  18  19
ATOM     19  C   UNL     1      35.504 -21.264 -19.775  0.00  0.00    -0.007 C 
BRANCH  19  23
ATOM     20  O   UNL     1      36.264 -22.495 -17.408  0.00  0.00    -0.274 OA
ATOM     21  N   UNL     1      34.088 -22.805 -16.615  0.00  0.00    -0.211 N 
ATOM     22  N   UNL     1      32.263 -22.002 -17.906  0.00  0.00    -0.395 NA
ATOM     23  C   UNL     1      34.493 -21.696 -18.754  0.00  0.00    +0.123 C 
ATOM     24  C   UNL     1      33.157 -21.556 -18.847  0.00  0.00    +0.097 C 
ATOM     25  C   UNL     1      35.046 -22.368 -17.535  0.00  0.00    +0.241 C 
ATOM     26  C   UNL     1      32.723 -22.598 -16.848  0.00  0.00    +0.188 C 
ATOM     27  C   UNL     1      32.487 -20.862 -20.005  0.00  0.00    +0.062 C 
ATOM     28  C   UNL     1      31.762 -23.100 -15.802  0.00  0.00    +0.023 C 
ATOM     29  C   UNL     1      34.519 -23.448 -15.460  0.00  0.00    +0.074 C 
ATOM     30  C   UNL     1      32.254 -23.710 -14.714  0.00  0.00    +0.001 C 
ATOM     31  C   UNL     1      33.666 -23.891 -14.533  0.00  0.00    +0.016 C 
ATOM     32  C   UNL     1      30.296 -22.893 -16.025  0.00  0.00    +0.035 C 
ENDBRANCH  19  23
ENDBRANCH  18  19
ENDBRANCH   1  18
TORSDOF 4
ENDMDL
MODEL 2
REMARK VINA RESULT:     -13.4      4.088     10.288
REMARK  Name = 71351
REMARK  4 active torsions:
REMARK  status: ('A' for Active; 'I' for Inactive)
REMARK    1  A    between atoms: N_1  and  C_18
REMARK    2  A    between atoms: C_2  and  C_11
REMARK    3  A    between atoms: C_18  and  C_19
REMARK    4  A    between atoms: C_19  and  C_23
REMARK                            x       y       z     vdW  Elec       q    Type
REMARK                         _______ _______ _______ _____ _____    ______ ____
ROOT
ATOM      1  N   UNL     1      34.401 -15.474 -22.945  0.00  0.00    +0.387 N 
ATOM      2  C   UNL     1      35.921 -17.503 -21.468  0.00  0.00    +0.039 C 
ATOM      3  C   UNL     1      35.317 -17.772 -22.856  0.00  0.00    -0.017 C 
ATOM      4  C   UNL     1      35.132 -16.387 -20.763  0.00  0.00    -0.017 C 
ATOM      5  C   UNL     1      35.191 -16.480 -23.667  0.00  0.00    -0.077 C 
ATOM      6  C   UNL     1      35.014 -15.146 -21.652  0.00  0.00    -0.077 C 
ATOM      7  H   UNL     1      33.478 -15.870 -22.764  0.00  0.00    -0.080 HD
ENDROOT
BRANCH   2  11
ATOM      8  F   UNL     1      32.984 -22.763 -18.480  0.00  0.00    -0.204 F 
ATOM      9  O   UNL     1      36.995 -20.300 -19.466  0.00  0.00    -0.354 OA
ATOM     10  N   UNL     1      37.233 -19.138 -20.191  0.00  0.00    -0.081 NA
ATOM     11  C   UNL     1      36.036 -18.754 -20.628  0.00  0.00    +0.100 A 
ATOM     12  C   UNL     1      35.002 -19.614 -20.226  0.00  0.00    +0.054 A 
ATOM     13  C   UNL     1      35.663 -20.581 -19.490  0.00  0.00    +0.179 A 
ATOM     14  C   UNL     1      33.612 -19.707 -20.382  0.00  0.00    +0.007 C 
ATOM     15  C   UNL     1      35.039 -21.664 -18.877  0.00  0.00    +0.070 C 
ATOM     16  C   UNL     1      32.949 -20.786 -19.779  0.00  0.00    +0.030 C 
ATOM     17  C   UNL     1      33.652 -21.745 -19.041  0.00  0.00    +0.143 C 
ENDBRANCH   2  11
BRANCH   1  18
ATOM     18  C   UNL     1      34.242 -14.268 -23.758  0.00  0.00    -0.076 C 
BRANCH  18  19
ATOM     19  C   UNL     1      32.825 -13.731 -23.615  0.00  0.00    -0.007 C 
BRANCH  19  23
ATOM     20  O   UNL     1      31.882 -13.263 -21.049  0.00  0.00    -0.274 OA
ATOM     21  N   UNL     1      32.246 -10.954 -21.100  0.00  0.00    -0.211 N 
ATOM     22  N   UNL     1      33.224  -9.983 -23.034  0.00  0.00    -0.395 NA
ATOM     23  C   UNL     1      32.834 -12.356 -23.013  0.00  0.00    +0.123 C 
ATOM     24  C   UNL     1      33.272 -11.229 -23.607  0.00  0.00    +0.097 C 
ATOM     25  C   UNL     1      32.273 -12.249 -21.628  0.00  0.00    +0.241 C 
ATOM     26  C   UNL     1      32.730  -9.868 -21.839  0.00  0.00    +0.188 C 
ATOM     27  C   UNL     1      33.892 -11.217 -24.980  0.00  0.00    +0.062 C 
ATOM     28  C   UNL     1      32.665  -8.510 -21.189  0.00  0.00    +0.023 C 
ATOM     29  C   UNL     1      31.732 -10.768 -19.822  0.00  0.00    +0.074 C 
ATOM     30  C   UNL     1      32.155  -8.410 -19.953  0.00  0.00    +0.001 C 
ATOM     31  C   UNL     1      31.675  -9.564 -19.247  0.00  0.00    +0.016 C 
ATOM     32  C   UNL     1      33.175  -7.330 -21.957  0.00  0.00    +0.035 C 
ENDBRANCH  19  23
ENDBRANCH  18  19
ENDBRANCH   1  18
TORSDOF 4
ENDMDL
MODEL 3
REMARK VINA RESULT:     -13.4      1.257      2.216
REMARK  Name = 71351
REMARK  4 active torsions:
REMARK  status: ('A' for Active; 'I' for Inactive)
REMARK    1  A    between atoms: N_1  and  C_18
REMARK    2  A    between atoms: C_2  and  C_11
REMARK    3  A    between atoms: C_18  and  C_19
REMARK    4  A    between atoms: C_19  and  C_23
REMARK                            x       y       z     vdW  Elec       q    Type
REMARK                         _______ _______ _______ _____ _____    ______ ____
ROOT
ATOM      1  N   UNL     1      35.751 -19.460 -20.042  0.00  0.00    +0.387 N 
ATOM      2  C   UNL     1      35.137 -18.449 -22.727  0.00  0.00    +0.039 C 
ATOM      3  C   UNL     1      36.250 -17.848 -21.853  0.00  0.00    -0.017 C 
ATOM      4  C   UNL     1      34.079 -19.121 -21.836  0.00  0.00    -0.017 C 
ATOM      5  C   UNL     1      36.813 -18.886 -20.879  0.00  0.00    -0.077 C 
ATOM      6  C   UNL     1      34.723 -20.113 -20.863  0.00  0.00    -0.077 C 
ATOM      7  H   UNL     1      35.307 -18.698 -19.530  0.00  0.00    -0.080 HD
ENDROOT
BRANCH   2  11
ATOM      8  F   UNL     1      33.512 -12.086 -24.174  0.00  0.00    -0.204 F 
ATOM      9  O   UNL     1      33.591 -16.713 -25.481  0.00  0.00    -0.354 OA
ATOM     10  N   UNL     1      34.056 -17.862 -24.852  0.00  0.00    -0.081 NA
ATOM     11  C   UNL     1      34.538 -17.444 -23.684  0.00  0.00    +0.100 A 
ATOM     12  C   UNL     1      34.416 -16.058 -23.504  0.00  0.00    +0.054 A 
ATOM     13  C   UNL     1      33.807 -15.638 -24.674  0.00  0.00    +0.179 A 
ATOM     14  C   UNL     1      34.732 -15.108 -22.522  0.00  0.00    +0.007 C 
ATOM     15  C   UNL     1      33.478 -14.317 -24.957  0.00  0.00    +0.070 C 
ATOM     16  C   UNL     1      34.415 -13.765 -22.773  0.00  0.00    +0.030 C 
ATOM     17  C   UNL     1      33.800 -13.379 -23.970  0.00  0.00    +0.143 C 
ENDBRANCH   2  11
BRANCH   1  18
ATOM     18  C   UNL     1      36.315 -20.407 -19.080  0.00  0.00    -0.076 C 
BRANCH  18  19
ATOM     19  C   UNL     1      35.625 -21.757 -19.217  0.00  0.00    -0.007 C 
BRANCH  19  23
ATOM     20  O   UNL     1      32.949 -22.401 -18.871  0.00  0.00    -0.274 OA
ATOM     21  N   UNL     1      33.137 -22.901 -16.595  0.00  0.00    -0.211 N 
ATOM     22  N   UNL     1      35.269 -22.766 -15.556  0.00  0.00    -0.395 NA
ATOM     23  C   UNL     1      35.093 -22.222 -17.893  0.00  0.00    +0.123 C 
ATOM     24  C   UNL     1      35.803 -22.375 -16.758  0.00  0.00    +0.097 C 
ATOM     25  C   UNL     1      33.624 -22.512 -17.847  0.00  0.00    +0.241 C 
ATOM     26  C   UNL     1      33.995 -23.010 -15.494  0.00  0.00    +0.188 C 
ATOM     27  C   UNL     1      37.292 -22.153 -16.690  0.00  0.00    +0.062 C 
ATOM     28  C   UNL     1      33.384 -23.438 -14.185  0.00  0.00    +0.023 C 
ATOM     29  C   UNL     1      31.781 -23.179 -16.466  0.00  0.00    +0.074 C 
ATOM     30  C   UNL     1      32.067 -23.690 -14.140  0.00  0.00    +0.001 C 
ATOM     31  C   UNL     1      31.241 -23.559 -15.305  0.00  0.00    +0.016 C 
ATOM     32  C   UNL     1      34.278 -23.563 -12.990  0.00  0.00    +0.035 C 
ENDBRANCH  19  23
ENDBRANCH  18  19
ENDBRANCH   1  18
TORSDOF 4
ENDMDL
MODEL 4
REMARK VINA RESULT:     -13.0      3.374     10.529
REMARK  Name = 71351
REMARK  4 active torsions:
REMARK  status: ('A' for Active; 'I' for Inactive)
REMARK    1  A    between atoms: N_1  and  C_18
REMARK    2  A    between atoms: C_2  and  C_11
REMARK    3  A    between atoms: C_18  and  C_19
REMARK    4  A    between atoms: C_19  and  C_23
REMARK                            x       y       z     vdW  Elec       q    Type
REMARK                         _______ _______ _______ _____ _____    ______ ____
ROOT
ATOM      1  N   UNL     1      34.283 -19.503 -20.748  0.00  0.00    +0.387 N 
ATOM      2  C   UNL     1      34.421 -21.781 -18.904  0.00  0.00    +0.039 C 
ATOM      3  C   UNL     1      33.153 -20.928 -19.069  0.00  0.00    -0.017 C 
ATOM      4  C   UNL     1      35.659 -20.955 -19.290  0.00  0.00    -0.017 C 
ATOM      5  C   UNL     1      33.083 -20.300 -20.464  0.00  0.00    -0.077 C 
ATOM      6  C   UNL     1      35.497 -20.327 -20.677  0.00  0.00    -0.077 C 
ATOM      7  H   UNL     1      34.354 -18.776 -20.036  0.00  0.00    -0.080 HD
ENDROOT
BRANCH   2  11
ATOM      8  F   UNL     1      31.456 -24.364 -13.449  0.00  0.00    -0.204 F 
ATOM      9  O   UNL     1      35.501 -23.158 -15.754  0.00  0.00    -0.354 OA
ATOM     10  N   UNL     1      35.742 -22.587 -16.998  0.00  0.00    -0.081 NA
ATOM     11  C   UNL     1      34.536 -22.396 -17.528  0.00  0.00    +0.100 A 
ATOM     12  C   UNL     1      33.494 -22.817 -16.689  0.00  0.00    +0.054 A 
ATOM     13  C   UNL     1      34.159 -23.295 -15.573  0.00  0.00    +0.179 A 
ATOM     14  C   UNL     1      32.092 -22.861 -16.718  0.00  0.00    +0.007 C 
ATOM     15  C   UNL     1      33.529 -23.826 -14.452  0.00  0.00    +0.070 C 
ATOM     16  C   UNL     1      31.424 -23.391 -15.605  0.00  0.00    +0.030 C 
ATOM     17  C   UNL     1      32.131 -23.864 -14.494  0.00  0.00    +0.143 C 
ENDBRANCH   2  11
BRANCH   1  18
ATOM     18  C   UNL     1      34.174 -18.865 -22.060  0.00  0.00    -0.076 C 
BRANCH  18  19
ATOM     19  C   UNL     1      35.349 -17.921 -22.276  0.00  0.00    -0.007 C 
BRANCH  19  23
ATOM     20  O   UNL     1      34.658 -17.230 -24.872  0.00  0.00    -0.274 OA
ATOM     21  N   UNL     1      34.154 -15.002 -24.378  0.00  0.00    -0.211 N 
ATOM     22  N   UNL     1      34.320 -14.252 -22.131  0.00  0.00    -0.395 NA
ATOM     23  C   UNL     1      34.870 -16.542 -22.621  0.00  0.00    +0.123 C 
ATOM     24  C   UNL     1      34.724 -15.511 -21.766  0.00  0.00    +0.097 C 
ATOM     25  C   UNL     1      34.555 -16.305 -24.066  0.00  0.00    +0.241 C 
ATOM     26  C   UNL     1      34.054 -14.024 -23.382  0.00  0.00    +0.188 C 
ATOM     27  C   UNL     1      34.972 -15.638 -20.285  0.00  0.00    +0.062 C 
ATOM     28  C   UNL     1      33.611 -12.649 -23.808  0.00  0.00    +0.023 C 
ATOM     29  C   UNL     1      33.852 -14.698 -25.701  0.00  0.00    +0.074 C 
ATOM     30  C   UNL     1      33.338 -12.432 -25.103  0.00  0.00    +0.001 C 
ATOM     31  C   UNL     1      33.459 -13.478 -26.078  0.00  0.00    +0.016 C 
ATOM     32  C   UNL     1      33.497 -11.583 -22.763  0.00  0.00    +0.035 C 
ENDBRANCH  19  23
ENDBRANCH  18  19
ENDBRANCH   1  18
TORSDOF 4
ENDMDL
MODEL 5
REMARK VINA RESULT:     -13.0      4.336     10.727
REMARK  Name = 71351
REMARK  4 active torsions:
REMARK  status: ('A' for Active; 'I' for Inactive)
REMARK    1  A    between atoms: N_1  and  C_18
REMARK    2  A    between atoms: C_2  and  C_11
REMARK    3  A    between atoms: C_18  and  C_19
REMARK    4  A    between atoms: C_19  and  C_23
REMARK                            x       y       z     vdW  Elec       q    Type
REMARK                         _______ _______ _______ _____ _____    ______ ____
ROOT
ATOM      1  N   UNL     1      35.086 -14.807 -22.637  0.00  0.00    +0.387 N 
ATOM      2  C   UNL     1      34.830 -17.408 -21.304  0.00  0.00    +0.039 C 
ATOM      3  C   UNL     1      35.103 -16.107 -20.531  0.00  0.00    -0.017 C 
ATOM      4  C   UNL     1      35.327 -17.268 -22.752  0.00  0.00    -0.017 C 
ATOM      5  C   UNL     1      34.544 -14.891 -21.274  0.00  0.00    -0.077 C 
ATOM      6  C   UNL     1      34.758 -16.010 -23.414  0.00  0.00    -0.077 C 
ATOM      7  H   UNL     1      36.102 -14.744 -22.568  0.00  0.00    -0.080 HD
ENDROOT
BRANCH   2  11
ATOM      8  F   UNL     1      33.829 -23.379 -18.377  0.00  0.00    -0.204 F 
ATOM      9  O   UNL     1      36.886 -19.933 -19.760  0.00  0.00    -0.354 OA
ATOM     10  N   UNL     1      36.704 -18.715 -20.405  0.00  0.00    -0.081 NA
ATOM     11  C   UNL     1      35.392 -18.628 -20.611  0.00  0.00    +0.100 A 
ATOM     12  C   UNL     1      34.684 -19.740 -20.129  0.00  0.00    +0.054 A 
ATOM     13  C   UNL     1      35.679 -20.542 -19.598  0.00  0.00    +0.179 A 
ATOM     14  C   UNL     1      33.353 -20.176 -20.070  0.00  0.00    +0.007 C 
ATOM     15  C   UNL     1      35.454 -21.776 -18.995  0.00  0.00    +0.070 C 
ATOM     16  C   UNL     1      33.089 -21.416 -19.470  0.00  0.00    +0.030 C 
ATOM     17  C   UNL     1      34.122 -22.199 -18.943  0.00  0.00    +0.143 C 
ENDBRANCH   2  11
BRANCH   1  18
ATOM     18  C   UNL     1      34.587 -13.609 -23.313  0.00  0.00    -0.076 C 
BRANCH  18  19
ATOM     19  C   UNL     1      33.104 -13.429 -23.018  0.00  0.00    -0.007 C 
BRANCH  19  23
ATOM     20  O   UNL     1      33.705 -11.077 -24.363  0.00  0.00    -0.274 OA
ATOM     21  N   UNL     1      33.026  -9.658 -22.634  0.00  0.00    -0.211 N 
ATOM     22  N   UNL     1      32.124 -10.604 -20.651  0.00  0.00    -0.395 NA
ATOM     23  C   UNL     1      32.841 -12.084 -22.406  0.00  0.00    +0.123 C 
ATOM     24  C   UNL     1      32.312 -11.852 -21.189  0.00  0.00    +0.097 C 
ATOM     25  C   UNL     1      33.237 -10.902 -23.237  0.00  0.00    +0.241 C 
ATOM     26  C   UNL     1      32.472  -9.568 -21.351  0.00  0.00    +0.188 C 
ATOM     27  C   UNL     1      31.840 -12.957 -20.280  0.00  0.00    +0.062 C 
ATOM     28  C   UNL     1      32.279  -8.187 -20.781  0.00  0.00    +0.023 C 
ATOM     29  C   UNL     1      33.376  -8.511 -23.336  0.00  0.00    +0.074 C 
ATOM     30  C   UNL     1      32.641  -7.127 -21.520  0.00  0.00    +0.001 C 
ATOM     31  C   UNL     1      33.204  -7.287 -22.829  0.00  0.00    +0.016 C 
ATOM     32  C   UNL     1      31.689  -8.060 -19.411  0.00  0.00    +0.035 C 
ENDBRANCH  19  23
ENDBRANCH  18  19
ENDBRANCH   1  18
TORSDOF 4
ENDMDL
MODEL 6
REMARK VINA RESULT:     -12.9      3.743     10.507
REMARK  Name = 71351
REMARK  4 active torsions:
REMARK  status: ('A' for Active; 'I' for Inactive)
REMARK    1  A    between atoms: N_1  and  C_18
REMARK    2  A    between atoms: C_2  and  C_11
REMARK    3  A    between atoms: C_18  and  C_19
REMARK    4  A    between atoms: C_19  and  C_23
REMARK                            x       y       z     vdW  Elec       q    Type
REMARK                         _______ _______ _______ _____ _____    ______ ____
ROOT
ATOM      1  N   UNL     1      34.324 -20.625 -19.567  0.00  0.00    +0.387 N 
ATOM      2  C   UNL     1      34.144 -22.785 -17.589  0.00  0.00    +0.039 C 
ATOM      3  C   UNL     1      32.930 -21.931 -17.993  0.00  0.00    -0.017 C 
ATOM      4  C   UNL     1      35.441 -21.997 -17.835  0.00  0.00    -0.017 C 
ATOM      5  C   UNL     1      33.080 -21.391 -19.417  0.00  0.00    -0.077 C 
ATOM      6  C   UNL     1      35.498 -21.455 -19.266  0.00  0.00    -0.077 C 
ATOM      7  H   UNL     1      34.303 -19.856 -18.897  0.00  0.00    -0.080 HD
ENDROOT
BRANCH   2  11
ATOM      8  F   UNL     1      30.390 -24.198 -12.191  0.00  0.00    -0.204 F 
ATOM      9  O   UNL     1      34.709 -24.163 -14.308  0.00  0.00    -0.354 OA
ATOM     10  N   UNL     1      35.139 -23.754 -15.565  0.00  0.00    -0.081 NA
ATOM     11  C   UNL     1      34.042 -23.314 -16.177  0.00  0.00    +0.100 A 
ATOM     12  C   UNL     1      32.891 -23.413 -15.381  0.00  0.00    +0.054 A 
ATOM     13  C   UNL     1      33.367 -23.959 -14.202  0.00  0.00    +0.179 A 
ATOM     14  C   UNL     1      31.524 -23.119 -15.493  0.00  0.00    +0.007 C 
ATOM     15  C   UNL     1      32.575 -24.245 -13.094  0.00  0.00    +0.070 C 
ATOM     16  C   UNL     1      30.696 -23.395 -14.395  0.00  0.00    +0.030 C 
ATOM     17  C   UNL     1      31.214 -23.948 -13.219  0.00  0.00    +0.143 C 
ENDBRANCH   2  11
BRANCH   1  18
ATOM     18  C   UNL     1      34.423 -20.069 -20.917  0.00  0.00    -0.076 C 
BRANCH  18  19
ATOM     19  C   UNL     1      35.540 -19.036 -20.969  0.00  0.00    -0.007 C 
BRANCH  19  23
ATOM     20  O   UNL     1      35.407 -16.449 -19.975  0.00  0.00    -0.274 OA
ATOM     21  N   UNL     1      34.697 -15.481 -21.980  0.00  0.00    -0.211 N 
ATOM     22  N   UNL     1      34.449 -16.854 -23.901  0.00  0.00    -0.395 NA
ATOM     23  C   UNL     1      35.154 -17.877 -21.842  0.00  0.00    +0.123 C 
ATOM     24  C   UNL     1      34.835 -17.935 -23.149  0.00  0.00    +0.097 C 
ATOM     25  C   UNL     1      35.102 -16.542 -21.164  0.00  0.00    +0.241 C 
ATOM     26  C   UNL     1      34.385 -15.691 -23.329  0.00  0.00    +0.188 C 
ATOM     27  C   UNL     1      34.889 -19.212 -23.947  0.00  0.00    +0.062 C 
ATOM     28  C   UNL     1      33.962 -14.489 -24.133  0.00  0.00    +0.023 C 
ATOM     29  C   UNL     1      34.613 -14.209 -21.425  0.00  0.00    +0.074 C 
ATOM     30  C   UNL     1      33.905 -13.295 -23.526  0.00  0.00    +0.001 C 
ATOM     31  C   UNL     1      34.238 -13.145 -22.139  0.00  0.00    +0.016 C 
ATOM     32  C   UNL     1      33.621 -14.685 -25.578  0.00  0.00    +0.035 C 
ENDBRANCH  19  23
ENDBRANCH  18  19
ENDBRANCH   1  18
TORSDOF 4
ENDMDL
MODEL 7
REMARK VINA RESULT:     -12.9      1.120      1.456
REMARK  Name = 71351
REMARK  4 active torsions:
REMARK  status: ('A' for Active; 'I' for Inactive)
REMARK    1  A    between atoms: N_1  and  C_18
REMARK    2  A    between atoms: C_2  and  C_11
REMARK    3  A    between atoms: C_18  and  C_19
REMARK    4  A    between atoms: C_19  and  C_23
REMARK                            x       y       z     vdW  Elec       q    Type
REMARK                         _______ _______ _______ _____ _____    ______ ____
ROOT
ATOM      1  N   UNL     1      35.974 -19.267 -20.077  0.00  0.00    +0.387 N 
ATOM      2  C   UNL     1      35.230 -18.351 -22.763  0.00  0.00    +0.039 C 
ATOM      3  C   UNL     1      36.336 -17.673 -21.936  0.00  0.00    -0.017 C 
ATOM      4  C   UNL     1      34.235 -19.055 -21.826  0.00  0.00    -0.017 C 
ATOM      5  C   UNL     1      36.980 -18.658 -20.958  0.00  0.00    -0.077 C 
ATOM      6  C   UNL     1      34.958 -19.990 -20.852  0.00  0.00    -0.077 C 
ATOM      7  H   UNL     1      35.507 -18.516 -19.568  0.00  0.00    -0.080 HD
ENDROOT
BRANCH   2  11
ATOM      8  F   UNL     1      33.333 -12.098 -24.350  0.00  0.00    -0.204 F 
ATOM      9  O   UNL     1      33.495 -16.766 -25.494  0.00  0.00    -0.354 OA
ATOM     10  N   UNL     1      34.028 -17.877 -24.850  0.00  0.00    -0.081 NA
ATOM     11  C   UNL     1      34.554 -17.401 -23.724  0.00  0.00    +0.100 A 
ATOM     12  C   UNL     1      34.396 -16.013 -23.586  0.00  0.00    +0.054 A 
ATOM     13  C   UNL     1      33.717 -15.656 -24.738  0.00  0.00    +0.179 A 
ATOM     14  C   UNL     1      34.729 -15.018 -22.656  0.00  0.00    +0.007 C 
ATOM     15  C   UNL     1      33.331 -14.356 -25.051  0.00  0.00    +0.070 C 
ATOM     16  C   UNL     1      34.357 -13.696 -22.938  0.00  0.00    +0.030 C 
ATOM     17  C   UNL     1      33.672 -13.374 -24.115  0.00  0.00    +0.143 C 
ENDBRANCH   2  11
BRANCH   1  18
ATOM     18  C   UNL     1      36.614 -20.161 -19.111  0.00  0.00    -0.076 C 
BRANCH  18  19
ATOM     19  C   UNL     1      36.093 -21.579 -19.295  0.00  0.00    -0.007 C 
BRANCH  19  23
ATOM     20  O   UNL     1      37.431 -22.000 -16.901  0.00  0.00    -0.274 OA
ATOM     21  N   UNL     1      35.549 -22.736 -15.726  0.00  0.00    -0.211 N 
ATOM     22  N   UNL     1      33.446 -22.784 -16.828  0.00  0.00    -0.395 NA
ATOM     23  C   UNL     1      35.374 -22.048 -18.064  0.00  0.00    +0.123 C 
ATOM     24  C   UNL     1      34.058 -22.317 -17.965  0.00  0.00    +0.097 C 
ATOM     25  C   UNL     1      36.227 -22.255 -16.851  0.00  0.00    +0.241 C 
ATOM     26  C   UNL     1      34.172 -22.981 -15.770  0.00  0.00    +0.188 C 
ATOM     27  C   UNL     1      33.094 -22.111 -19.104  0.00  0.00    +0.062 C 
ATOM     28  C   UNL     1      33.524 -23.495 -14.511  0.00  0.00    +0.023 C 
ATOM     29  C   UNL     1      36.272 -22.963 -14.561  0.00  0.00    +0.074 C 
ATOM     30  C   UNL     1      34.287 -23.690 -13.426  0.00  0.00    +0.001 C 
ATOM     31  C   UNL     1      35.696 -23.419 -13.445  0.00  0.00    +0.016 C 
ATOM     32  C   UNL     1      32.051 -23.767 -14.529  0.00  0.00    +0.035 C 
ENDBRANCH  19  23
ENDBRANCH  18  19
ENDBRANCH   1  18
TORSDOF 4
ENDMDL
MODEL 8
REMARK VINA RESULT:     -12.8      3.497     10.455
REMARK  Name = 71351
REMARK  4 active torsions:
REMARK  status: ('A' for Active; 'I' for Inactive)
REMARK    1  A    between atoms: N_1  and  C_18
REMARK    2  A    between atoms: C_2  and  C_11
REMARK    3  A    between atoms: C_18  and  C_19
REMARK    4  A    between atoms: C_19  and  C_23
REMARK                            x       y       z     vdW  Elec       q    Type
REMARK                         _______ _______ _______ _____ _____    ______ ____
ROOT
ATOM      1  N   UNL     1      34.345 -19.412 -20.788  0.00  0.00    +0.387 N 
ATOM      2  C   UNL     1      34.320 -21.728 -18.987  0.00  0.00    +0.039 C 
ATOM      3  C   UNL     1      33.078 -20.852 -19.223  0.00  0.00    -0.017 C 
ATOM      4  C   UNL     1      35.594 -20.913 -19.266  0.00  0.00    -0.017 C 
ATOM      5  C   UNL     1      33.116 -20.197 -20.606  0.00  0.00    -0.077 C 
ATOM      6  C   UNL     1      35.539 -20.256 -20.648  0.00  0.00    -0.077 C 
ATOM      7  H   UNL     1      34.375 -18.701 -20.058  0.00  0.00    -0.080 HD
ENDROOT
BRANCH   2  11
ATOM      8  F   UNL     1      37.627 -23.294 -13.344  0.00  0.00    -0.204 F 
ATOM      9  O   UNL     1      33.559 -23.435 -15.906  0.00  0.00    -0.354 OA
ATOM     10  N   UNL     1      33.221 -22.953 -17.165  0.00  0.00    -0.081 NA
ATOM     11  C   UNL     1      34.329 -22.371 -17.619  0.00  0.00    +0.100 A 
ATOM     12  C   UNL     1      35.399 -22.444 -16.714  0.00  0.00    +0.054 A 
ATOM     13  C   UNL     1      34.859 -23.130 -15.639  0.00  0.00    +0.179 A 
ATOM     14  C   UNL     1      36.737 -22.029 -16.654  0.00  0.00    +0.007 C 
ATOM     15  C   UNL     1      35.558 -23.446 -14.479  0.00  0.00    +0.070 C 
ATOM     16  C   UNL     1      37.473 -22.330 -15.499  0.00  0.00    +0.030 C 
ATOM     17  C   UNL     1      36.891 -23.025 -14.432  0.00  0.00    +0.143 C 
ENDBRANCH   2  11
BRANCH   1  18
ATOM     18  C   UNL     1      34.338 -18.747 -22.091  0.00  0.00    -0.076 C 
BRANCH  18  19
ATOM     19  C   UNL     1      35.460 -17.720 -22.153  0.00  0.00    -0.007 C 
BRANCH  19  23
ATOM     20  O   UNL     1      34.792 -17.100 -24.774  0.00  0.00    -0.274 OA
ATOM     21  N   UNL     1      34.179 -14.890 -24.326  0.00  0.00    -0.211 N 
ATOM     22  N   UNL     1      34.265 -14.099 -22.088  0.00  0.00    -0.395 NA
ATOM     23  C   UNL     1      34.927 -16.369 -22.530  0.00  0.00    +0.123 C 
ATOM     24  C   UNL     1      34.718 -15.333 -21.694  0.00  0.00    +0.097 C 
ATOM     25  C   UNL     1      34.631 -16.168 -23.985  0.00  0.00    +0.241 C 
ATOM     26  C   UNL     1      34.015 -13.902 -23.347  0.00  0.00    +0.188 C 
ATOM     27  C   UNL     1      34.940 -15.426 -20.207  0.00  0.00    +0.062 C 
ATOM     28  C   UNL     1      33.521 -12.555 -23.805  0.00  0.00    +0.023 C 
ATOM     29  C   UNL     1      33.891 -14.619 -25.659  0.00  0.00    +0.074 C 
ATOM     30  C   UNL     1      33.264 -12.370 -25.108  0.00  0.00    +0.001 C 
ATOM     31  C   UNL     1      33.452 -13.424 -26.063  0.00  0.00    +0.016 C 
ATOM     32  C   UNL     1      33.337 -11.479 -22.779  0.00  0.00    +0.035 C 
ENDBRANCH  19  23
ENDBRANCH  18  19
ENDBRANCH   1  18
TORSDOF 4
ENDMDL
MODEL 9
REMARK VINA RESULT:     -12.5      4.103     10.672
REMARK  Name = 71351
REMARK  4 active torsions:
REMARK  status: ('A' for Active; 'I' for Inactive)
REMARK    1  A    between atoms: N_1  and  C_18
REMARK    2  A    between atoms: C_2  and  C_11
REMARK    3  A    between atoms: C_18  and  C_19
REMARK    4  A    between atoms: C_19  and  C_23
REMARK                            x       y       z     vdW  Elec       q    Type
REMARK                         _______ _______ _______ _____ _____    ______ ____
ROOT
ATOM      1  N   UNL     1      34.403 -20.871 -19.291  0.00  0.00    +0.387 N 
ATOM      2  C   UNL     1      34.447 -22.873 -17.147  0.00  0.00    +0.039 C 
ATOM      3  C   UNL     1      33.143 -22.229 -17.649  0.00  0.00    -0.017 C 
ATOM      4  C   UNL     1      35.633 -21.935 -17.424  0.00  0.00    -0.017 C 
ATOM      5  C   UNL     1      33.270 -21.787 -19.109  0.00  0.00    -0.077 C 
ATOM      6  C   UNL     1      35.667 -21.505 -18.893  0.00  0.00    -0.077 C 
ATOM      7  H   UNL     1      34.254 -20.062 -18.687  0.00  0.00    -0.080 HD
ENDROOT
BRANCH   2  11
ATOM      8  F   UNL     1      37.552 -24.707 -11.470  0.00  0.00    -0.204 F 
ATOM      9  O   UNL     1      33.449 -23.812 -13.814  0.00  0.00    -0.354 OA
ATOM     10  N   UNL     1      33.175 -23.412 -15.117  0.00  0.00    -0.081 NA
ATOM     11  C   UNL     1      34.367 -23.299 -15.698  0.00  0.00    +0.100 A 
ATOM     12  C   UNL     1      35.431 -23.606 -14.837  0.00  0.00    +0.054 A 
ATOM     13  C   UNL     1      34.795 -23.926 -13.650  0.00  0.00    +0.179 A 
ATOM     14  C   UNL     1      36.831 -23.659 -14.895  0.00  0.00    +0.007 C 
ATOM     15  C   UNL     1      35.454 -24.304 -12.484  0.00  0.00    +0.070 C 
ATOM     16  C   UNL     1      37.528 -24.035 -13.738  0.00  0.00    +0.030 C 
ATOM     17  C   UNL     1      36.850 -24.351 -12.556  0.00  0.00    +0.143 C 
ENDBRANCH   2  11
BRANCH   1  18
ATOM     18  C   UNL     1      34.474 -20.414 -20.679  0.00  0.00    -0.076 C 
BRANCH  18  19
ATOM     19  C   UNL     1      35.652 -19.466 -20.852  0.00  0.00    -0.007 C 
BRANCH  19  23
ATOM     20  O   UNL     1      35.627 -16.884 -19.839  0.00  0.00    -0.274 OA
ATOM     21  N   UNL     1      34.880 -15.882 -21.813  0.00  0.00    -0.211 N 
ATOM     22  N   UNL     1      34.530 -17.235 -23.734  0.00  0.00    -0.395 NA
ATOM     23  C   UNL     1      35.272 -18.291 -21.704  0.00  0.00    +0.123 C 
ATOM     24  C   UNL     1      34.909 -18.331 -23.001  0.00  0.00    +0.097 C 
ATOM     25  C   UNL     1      35.280 -16.960 -21.018  0.00  0.00    +0.241 C 
ATOM     26  C   UNL     1      34.519 -16.074 -23.152  0.00  0.00    +0.188 C 
ATOM     27  C   UNL     1      34.900 -19.604 -23.807  0.00  0.00    +0.062 C 
ATOM     28  C   UNL     1      34.104 -14.855 -23.935  0.00  0.00    +0.023 C 
ATOM     29  C   UNL     1      34.851 -14.612 -21.248  0.00  0.00    +0.074 C 
ATOM     30  C   UNL     1      34.102 -13.664 -23.320  0.00  0.00    +0.001 C 
ATOM     31  C   UNL     1      34.484 -13.533 -21.943  0.00  0.00    +0.016 C 
ATOM     32  C   UNL     1      33.711 -15.031 -25.369  0.00  0.00    +0.035 C 
ENDBRANCH  19  23
ENDBRANCH  18  19
ENDBRANCH   1  18
TORSDOF 4
ENDMDL
