MODEL 1
REMARK VINA RESULT:     -11.5      0.000      0.000
REMARK  Name = 6914613
REMARK  8 active torsions:
REMARK  status: ('A' for Active; 'I' for Inactive)
REMARK    1  A    between atoms: C_1  and  N_2
REMARK    2  A    between atoms: C_1  and  C_6
REMARK    3  A    between atoms: C_1  and  C_17
REMARK    4  A    between atoms: C_6  and  C_8
REMARK    5  A    between atoms: C_17  and  O_18
REMARK    6  A    between atoms: O_18  and  C_20
REMARK    7  A    between atoms: C_23  and  C_25
REMARK    8  A    between atoms: C_26  and  C_28
REMARK                            x       y       z     vdW  Elec       q    Type
REMARK                         _______ _______ _______ _____ _____    ______ ____
ROOT
ATOM      1  C   UNL     1      33.758 -12.660 -22.485  0.00  0.00    -0.017 C 
ENDROOT
BRANCH   1   2
ATOM      2  N   UNL     1      33.723 -12.550 -23.948  0.00  0.00    +0.384 N 
ATOM      3  H   UNL     1      33.484 -11.594 -24.211  0.00  0.00    -0.089 HD
ATOM      4  H   UNL     1      33.022 -13.190 -24.320  0.00  0.00    -0.089 HD
ATOM      5  H   UNL     1      34.638 -12.790 -24.329  0.00  0.00    -0.089 HD
ENDBRANCH   1   2
BRANCH   1   6
ATOM      6  C   UNL     1      32.317 -12.533 -21.924  0.00  0.00    +0.009 C 
BRANCH   6   8
ATOM      7  N   UNL     1      31.849 -10.316 -19.060  0.00  0.00    -0.312 N 
ATOM      8  C   UNL     1      32.131 -11.429 -20.960  0.00  0.00    -0.008 C 
ATOM      9  C   UNL     1      32.048 -10.041 -21.266  0.00  0.00    +0.011 C 
ATOM     10  C   UNL     1      31.872  -9.364 -20.057  0.00  0.00    +0.048 C 
ATOM     11  C   UNL     1      32.006 -11.566 -19.597  0.00  0.00    +0.058 C 
ATOM     12  C   UNL     1      32.106  -9.294 -22.459  0.00  0.00    +0.001 C 
ATOM     13  C   UNL     1      31.750  -7.973 -19.980  0.00  0.00    +0.015 C 
ATOM     14  C   UNL     1      31.986  -7.900 -22.398  0.00  0.00    +0.000 C 
ATOM     15  C   UNL     1      31.810  -7.253 -21.177  0.00  0.00    +0.001 C 
ATOM     16  H   UNL     1      31.738 -10.124 -18.101  0.00  0.00    +0.152 HD
ENDBRANCH   6   8
ENDBRANCH   1   6
BRANCH   1  17
ATOM     17  C   UNL     1      34.450 -13.976 -22.109  0.00  0.00    +0.184 C 
BRANCH  17  18
ATOM     18  O   UNL     1      35.116 -14.560 -23.222  0.00  0.00    -0.476 OA
BRANCH  18  20
ATOM     19  N   UNL     1      34.012 -17.505 -25.063  0.00  0.00    -0.239 NA
ATOM     20  C   UNL     1      34.826 -15.871 -23.497  0.00  0.00    +0.158 C 
ATOM     21  C   UNL     1      35.034 -16.851 -22.544  0.00  0.00    +0.040 C 
ATOM     22  C   UNL     1      34.321 -16.232 -24.727  0.00  0.00    +0.136 C 
ATOM     23  C   UNL     1      34.728 -18.172 -22.853  0.00  0.00    +0.022 C 
ATOM     24  C   UNL     1      34.224 -18.444 -24.114  0.00  0.00    +0.099 C 
BRANCH  23  25
ATOM     25  C   UNL     1      34.930 -19.233 -21.883  0.00  0.00    +0.002 C 
ATOM     26  C   UNL     1      34.185 -19.428 -20.767  0.00  0.00    +0.000 C 
BRANCH  26  28
ATOM     27  N   UNL     1      34.741 -22.564 -17.954  0.00  0.00    -0.242 NA
ATOM     28  C   UNL     1      34.378 -20.516 -19.792  0.00  0.00    +0.003 C 
ATOM     29  C   UNL     1      35.657 -20.855 -19.398  0.00  0.00    +0.021 C 
ATOM     30  C   UNL     1      33.276 -21.179 -19.288  0.00  0.00    +0.021 C 
ATOM     31  C   UNL     1      35.785 -21.883 -18.479  0.00  0.00    +0.099 C 
ATOM     32  C   UNL     1      33.511 -22.192 -18.374  0.00  0.00    +0.099 C 
ENDBRANCH  26  28
ENDBRANCH  23  25
ENDBRANCH  18  20
ENDBRANCH  17  18
ENDBRANCH   1  17
TORSDOF 8
ENDMDL
MODEL 2
REMARK VINA RESULT:     -11.2      1.239      1.911
REMARK  Name = 6914613
REMARK  8 active torsions:
REMARK  status: ('A' for Active; 'I' for Inactive)
REMARK    1  A    between atoms: C_1  and  N_2
REMARK    2  A    between atoms: C_1  and  C_6
REMARK    3  A    between atoms: C_1  and  C_17
REMARK    4  A    between atoms: C_6  and  C_8
REMARK    5  A    between atoms: C_17  and  O_18
REMARK    6  A    between atoms: O_18  and  C_20
REMARK    7  A    between atoms: C_23  and  C_25
REMARK    8  A    between atoms: C_26  and  C_28
REMARK                            x       y       z     vdW  Elec       q    Type
REMARK                         _______ _______ _______ _____ _____    ______ ____
ROOT
ATOM      1  C   UNL     1      33.575 -12.967 -23.186  0.00  0.00    -0.017 C 
ENDROOT
BRANCH   1   2
ATOM      2  N   UNL     1      32.677 -13.621 -24.145  0.00  0.00    +0.384 N 
ATOM      3  H   UNL     1      33.192 -13.842 -24.997  0.00  0.00    -0.089 HD
ATOM      4  H   UNL     1      31.904 -12.993 -24.369  0.00  0.00    -0.089 HD
ATOM      5  H   UNL     1      32.310 -14.479 -23.736  0.00  0.00    -0.089 HD
ENDBRANCH   1   2
BRANCH   1   6
ATOM      6  C   UNL     1      32.756 -12.009 -22.282  0.00  0.00    +0.009 C 
BRANCH   6   8
ATOM      7  N   UNL     1      33.821  -8.686 -23.357  0.00  0.00    -0.312 N 
ATOM      8  C   UNL     1      33.050 -10.576 -22.484  0.00  0.00    -0.008 C 
ATOM      9  C   UNL     1      32.648  -9.501 -21.642  0.00  0.00    +0.011 C 
ATOM     10  C   UNL     1      33.144  -8.326 -22.213  0.00  0.00    +0.048 C 
ATOM     11  C   UNL     1      33.769 -10.044 -23.529  0.00  0.00    +0.058 C 
ATOM     12  C   UNL     1      31.908  -9.414 -20.447  0.00  0.00    +0.001 C 
ATOM     13  C   UNL     1      32.936  -7.064 -21.646  0.00  0.00    +0.015 C 
ATOM     14  C   UNL     1      31.692  -8.158 -19.868  0.00  0.00    +0.000 C 
ATOM     15  C   UNL     1      32.199  -7.003 -20.459  0.00  0.00    +0.001 C 
ATOM     16  H   UNL     1      34.275  -8.058 -23.964  0.00  0.00    +0.152 HD
ENDBRANCH   6   8
ENDBRANCH   1   6
BRANCH   1  17
ATOM     17  C   UNL     1      34.331 -14.051 -22.407  0.00  0.00    +0.184 C 
BRANCH  17  18
ATOM     18  O   UNL     1      35.198 -14.800 -23.249  0.00  0.00    -0.476 OA
BRANCH  18  20
ATOM     19  N   UNL     1      34.101 -17.915 -24.790  0.00  0.00    -0.239 NA
ATOM     20  C   UNL     1      34.918 -16.134 -23.396  0.00  0.00    +0.158 C 
ATOM     21  C   UNL     1      35.145 -17.017 -22.357  0.00  0.00    +0.040 C 
ATOM     22  C   UNL     1      34.402 -16.614 -24.580  0.00  0.00    +0.136 C 
ATOM     23  C   UNL     1      34.848 -18.364 -22.535  0.00  0.00    +0.022 C 
ATOM     24  C   UNL     1      34.332 -18.758 -23.759  0.00  0.00    +0.099 C 
BRANCH  23  25
ATOM     25  C   UNL     1      35.070 -19.327 -21.471  0.00  0.00    +0.002 C 
ATOM     26  C   UNL     1      34.115 -19.808 -20.638  0.00  0.00    +0.000 C 
BRANCH  26  28
ATOM     27  N   UNL     1      34.756 -22.669 -17.561  0.00  0.00    -0.242 NA
ATOM     28  C   UNL     1      34.337 -20.799 -19.570  0.00  0.00    +0.003 C 
ATOM     29  C   UNL     1      33.258 -21.470 -19.032  0.00  0.00    +0.021 C 
ATOM     30  C   UNL     1      35.622 -21.042 -19.125  0.00  0.00    +0.021 C 
ATOM     31  C   UNL     1      33.519 -22.393 -18.032  0.00  0.00    +0.099 C 
ATOM     32  C   UNL     1      35.778 -21.983 -18.122  0.00  0.00    +0.099 C 
ENDBRANCH  26  28
ENDBRANCH  23  25
ENDBRANCH  18  20
ENDBRANCH  17  18
ENDBRANCH   1  17
TORSDOF 8
ENDMDL
MODEL 3
REMARK VINA RESULT:     -11.1      1.615      9.968
REMARK  Name = 6914613
REMARK  8 active torsions:
REMARK  status: ('A' for Active; 'I' for Inactive)
REMARK    1  A    between atoms: C_1  and  N_2
REMARK    2  A    between atoms: C_1  and  C_6
REMARK    3  A    between atoms: C_1  and  C_17
REMARK    4  A    between atoms: C_6  and  C_8
REMARK    5  A    between atoms: C_17  and  O_18
REMARK    6  A    between atoms: O_18  and  C_20
REMARK    7  A    between atoms: C_23  and  C_25
REMARK    8  A    between atoms: C_26  and  C_28
REMARK                            x       y       z     vdW  Elec       q    Type
REMARK                         _______ _______ _______ _____ _____    ______ ____
ROOT
ATOM      1  C   UNL     1      35.500 -19.076 -21.286  0.00  0.00    -0.017 C 
ENDROOT
BRANCH   1   2
ATOM      2  N   UNL     1      35.536 -17.968 -20.324  0.00  0.00    +0.384 N 
ATOM      3  H   UNL     1      34.769 -18.070 -19.660  0.00  0.00    -0.089 HD
ATOM      4  H   UNL     1      35.439 -17.083 -20.821  0.00  0.00    -0.089 HD
ATOM      5  H   UNL     1      36.424 -17.982 -19.823  0.00  0.00    -0.089 HD
ENDBRANCH   1   2
BRANCH   1   6
ATOM      6  C   UNL     1      34.627 -20.225 -20.717  0.00  0.00    +0.009 C 
BRANCH   6   8
ATOM      7  N   UNL     1      36.646 -21.641 -18.025  0.00  0.00    -0.312 N 
ATOM      8  C   UNL     1      35.195 -20.896 -19.531  0.00  0.00    -0.008 C 
ATOM      9  C   UNL     1      34.476 -21.631 -18.546  0.00  0.00    +0.011 C 
ATOM     10  C   UNL     1      35.409 -22.087 -17.612  0.00  0.00    +0.048 C 
ATOM     11  C   UNL     1      36.526 -20.920 -19.183  0.00  0.00    +0.058 C 
ATOM     12  C   UNL     1      33.118 -21.952 -18.359  0.00  0.00    +0.001 C 
ATOM     13  C   UNL     1      35.051 -22.851 -16.497  0.00  0.00    +0.015 C 
ATOM     14  C   UNL     1      32.743 -22.716 -17.247  0.00  0.00    +0.000 C 
ATOM     15  C   UNL     1      33.696 -23.158 -16.332  0.00  0.00    +0.001 C 
ATOM     16  H   UNL     1      37.493 -21.815 -17.554  0.00  0.00    +0.152 HD
ENDBRANCH   6   8
ENDBRANCH   1   6
BRANCH   1  17
ATOM     17  C   UNL     1      35.005 -18.538 -22.635  0.00  0.00    +0.184 C 
BRANCH  17  18
ATOM     18  O   UNL     1      35.654 -17.324 -22.990  0.00  0.00    -0.476 OA
BRANCH  18  20
ATOM     19  N   UNL     1      33.705 -15.694 -25.603  0.00  0.00    -0.239 NA
ATOM     20  C   UNL     1      34.892 -16.379 -23.627  0.00  0.00    +0.158 C 
ATOM     21  C   UNL     1      34.552 -15.202 -22.985  0.00  0.00    +0.040 C 
ATOM     22  C   UNL     1      34.456 -16.585 -24.917  0.00  0.00    +0.136 C 
ATOM     23  C   UNL     1      33.780 -14.261 -23.657  0.00  0.00    +0.022 C 
ATOM     24  C   UNL     1      33.386 -14.552 -24.953  0.00  0.00    +0.099 C 
BRANCH  23  25
ATOM     25  C   UNL     1      33.400 -13.012 -23.022  0.00  0.00    +0.002 C 
ATOM     26  C   UNL     1      32.608 -12.900 -21.927  0.00  0.00    +0.000 C 
BRANCH  26  28
ATOM     27  N   UNL     1      31.543  -9.248 -20.033  0.00  0.00    -0.242 NA
ATOM     28  C   UNL     1      32.238 -11.634 -21.270  0.00  0.00    +0.003 C 
ATOM     29  C   UNL     1      31.932 -11.632 -19.924  0.00  0.00    +0.021 C 
ATOM     30  C   UNL     1      32.204 -10.469 -22.012  0.00  0.00    +0.021 C 
ATOM     31  C   UNL     1      31.592 -10.416 -19.353  0.00  0.00    +0.099 C 
ATOM     32  C   UNL     1      31.851  -9.306 -21.348  0.00  0.00    +0.099 C 
ENDBRANCH  26  28
ENDBRANCH  23  25
ENDBRANCH  18  20
ENDBRANCH  17  18
ENDBRANCH   1  17
TORSDOF 8
ENDMDL
MODEL 4
REMARK VINA RESULT:     -10.9      3.306      6.775
REMARK  Name = 6914613
REMARK  8 active torsions:
REMARK  status: ('A' for Active; 'I' for Inactive)
REMARK    1  A    between atoms: C_1  and  N_2
REMARK    2  A    between atoms: C_1  and  C_6
REMARK    3  A    between atoms: C_1  and  C_17
REMARK    4  A    between atoms: C_6  and  C_8
REMARK    5  A    between atoms: C_17  and  O_18
REMARK    6  A    between atoms: O_18  and  C_20
REMARK    7  A    between atoms: C_23  and  C_25
REMARK    8  A    between atoms: C_26  and  C_28
REMARK                            x       y       z     vdW  Elec       q    Type
REMARK                         _______ _______ _______ _____ _____    ______ ____
ROOT
ATOM      1  C   UNL     1      34.971 -18.142 -21.476  0.00  0.00    -0.017 C 
ENDROOT
BRANCH   1   2
ATOM      2  N   UNL     1      35.678 -17.650 -20.288  0.00  0.00    +0.384 N 
ATOM      3  H   UNL     1      36.102 -18.436 -19.795  0.00  0.00    -0.089 HD
ATOM      4  H   UNL     1      35.018 -17.178 -19.670  0.00  0.00    -0.089 HD
ATOM      5  H   UNL     1      36.405 -16.994 -20.573  0.00  0.00    -0.089 HD
ENDBRANCH   1   2
BRANCH   1   6
ATOM      6  C   UNL     1      35.645 -17.571 -22.751  0.00  0.00    +0.009 C 
BRANCH   6   8
ATOM      7  N   UNL     1      33.518 -15.803 -25.135  0.00  0.00    -0.312 N 
ATOM      8  C   UNL     1      34.798 -16.643 -23.527  0.00  0.00    -0.008 C 
ATOM      9  C   UNL     1      34.433 -15.317 -23.158  0.00  0.00    +0.011 C 
ATOM     10  C   UNL     1      33.629 -14.813 -24.183  0.00  0.00    +0.048 C 
ATOM     11  C   UNL     1      34.221 -16.912 -24.747  0.00  0.00    +0.058 C 
ATOM     12  C   UNL     1      34.709 -14.496 -22.048  0.00  0.00    +0.001 C 
ATOM     13  C   UNL     1      33.086 -13.524 -24.153  0.00  0.00    +0.015 C 
ATOM     14  C   UNL     1      34.172 -13.204 -22.003  0.00  0.00    +0.000 C 
ATOM     15  C   UNL     1      33.374 -12.728 -23.040  0.00  0.00    +0.001 C 
ATOM     16  H   UNL     1      33.006 -15.724 -25.972  0.00  0.00    +0.152 HD
ENDBRANCH   6   8
ENDBRANCH   1   6
BRANCH   1  17
ATOM     17  C   UNL     1      34.945 -19.676 -21.430  0.00  0.00    +0.184 C 
BRANCH  17  18
ATOM     18  O   UNL     1      33.931 -20.161 -20.560  0.00  0.00    -0.476 OA
BRANCH  18  20
ATOM     19  N   UNL     1      36.148 -21.735 -18.132  0.00  0.00    -0.239 NA
ATOM     20  C   UNL     1      34.342 -20.925 -19.498  0.00  0.00    +0.158 C 
ATOM     21  C   UNL     1      33.423 -21.634 -18.747  0.00  0.00    +0.040 C 
ATOM     22  C   UNL     1      35.676 -20.999 -19.164  0.00  0.00    +0.136 C 
ATOM     23  C   UNL     1      33.870 -22.402 -17.677  0.00  0.00    +0.022 C 
ATOM     24  C   UNL     1      35.229 -22.419 -17.414  0.00  0.00    +0.099 C 
BRANCH  23  25
ATOM     25  C   UNL     1      32.940 -23.164 -16.862  0.00  0.00    +0.002 C 
ATOM     26  C   UNL     1      31.741 -22.715 -16.415  0.00  0.00    +0.000 C 
BRANCH  26  28
ATOM     27  N   UNL     1      28.996 -24.965 -14.078  0.00  0.00    -0.242 NA
ATOM     28  C   UNL     1      30.789 -23.494 -15.604  0.00  0.00    +0.003 C 
ATOM     29  C   UNL     1      29.439 -23.419 -15.884  0.00  0.00    +0.021 C 
ATOM     30  C   UNL     1      31.262 -24.289 -14.578  0.00  0.00    +0.021 C 
ATOM     31  C   UNL     1      28.585 -24.172 -15.094  0.00  0.00    +0.099 C 
ATOM     32  C   UNL     1      30.327 -25.002 -13.847  0.00  0.00    +0.099 C 
ENDBRANCH  26  28
ENDBRANCH  23  25
ENDBRANCH  18  20
ENDBRANCH  17  18
ENDBRANCH   1  17
TORSDOF 8
ENDMDL
MODEL 5
REMARK VINA RESULT:     -10.9      2.074     10.411
REMARK  Name = 6914613
REMARK  8 active torsions:
REMARK  status: ('A' for Active; 'I' for Inactive)
REMARK    1  A    between atoms: C_1  and  N_2
REMARK    2  A    between atoms: C_1  and  C_6
REMARK    3  A    between atoms: C_1  and  C_17
REMARK    4  A    between atoms: C_6  and  C_8
REMARK    5  A    between atoms: C_17  and  O_18
REMARK    6  A    between atoms: O_18  and  C_20
REMARK    7  A    between atoms: C_23  and  C_25
REMARK    8  A    between atoms: C_26  and  C_28
REMARK                            x       y       z     vdW  Elec       q    Type
REMARK                         _______ _______ _______ _____ _____    ______ ____
ROOT
ATOM      1  C   UNL     1      35.525 -16.529 -21.817  0.00  0.00    -0.017 C 
ENDROOT
BRANCH   1   2
ATOM      2  N   UNL     1      34.962 -15.877 -20.629  0.00  0.00    +0.384 N 
ATOM      3  H   UNL     1      34.624 -14.948 -20.880  0.00  0.00    -0.089 HD
ATOM      4  H   UNL     1      35.684 -15.794 -19.913  0.00  0.00    -0.089 HD
ATOM      5  H   UNL     1      34.189 -16.436 -20.269  0.00  0.00    -0.089 HD
ENDBRANCH   1   2
BRANCH   1   6
ATOM      6  C   UNL     1      34.937 -17.960 -21.947  0.00  0.00    +0.009 C 
BRANCH   6   8
ATOM      7  N   UNL     1      36.899 -20.068 -19.703  0.00  0.00    -0.312 N 
ATOM      8  C   UNL     1      35.481 -18.935 -20.981  0.00  0.00    -0.008 C 
ATOM      9  C   UNL     1      34.744 -19.919 -20.264  0.00  0.00    +0.011 C 
ATOM     10  C   UNL     1      35.657 -20.616 -19.469  0.00  0.00    +0.048 C 
ATOM     11  C   UNL     1      36.802 -19.051 -20.615  0.00  0.00    +0.058 C 
ATOM     12  C   UNL     1      33.385 -20.285 -20.214  0.00  0.00    +0.001 C 
ATOM     13  C   UNL     1      35.278 -21.665 -18.624  0.00  0.00    +0.015 C 
ATOM     14  C   UNL     1      32.990 -21.332 -19.373  0.00  0.00    +0.000 C 
ATOM     15  C   UNL     1      33.923 -22.010 -18.592  0.00  0.00    +0.001 C 
ATOM     16  H   UNL     1      37.735 -20.364 -19.275  0.00  0.00    +0.152 HD
ENDBRANCH   6   8
ENDBRANCH   1   6
BRANCH   1  17
ATOM     17  C   UNL     1      35.254 -15.641 -23.038  0.00  0.00    +0.184 C 
BRANCH  17  18
ATOM     18  O   UNL     1      33.999 -14.979 -22.942  0.00  0.00    -0.476 OA
BRANCH  18  20
ATOM     19  N   UNL     1      33.400 -13.070 -25.988  0.00  0.00    -0.239 NA
ATOM     20  C   UNL     1      33.803 -13.903 -23.769  0.00  0.00    +0.158 C 
ATOM     21  C   UNL     1      33.812 -12.617 -23.261  0.00  0.00    +0.040 C 
ATOM     22  C   UNL     1      33.597 -14.087 -25.118  0.00  0.00    +0.136 C 
ATOM     23  C   UNL     1      33.613 -11.545 -24.125  0.00  0.00    +0.022 C 
ATOM     24  C   UNL     1      33.413 -11.823 -25.467  0.00  0.00    +0.099 C 
BRANCH  23  25
ATOM     25  C   UNL     1      33.614 -10.179 -23.635  0.00  0.00    +0.002 C 
ATOM     26  C   UNL     1      32.756  -9.675 -22.715  0.00  0.00    +0.000 C 
BRANCH  26  28
ATOM     27  N   UNL     1      32.793  -5.689 -21.242  0.00  0.00    -0.242 NA
ATOM     28  C   UNL     1      32.769  -8.293 -22.204  0.00  0.00    +0.003 C 
ATOM     29  C   UNL     1      33.545  -7.343 -22.837  0.00  0.00    +0.021 C 
ATOM     30  C   UNL     1      32.005  -7.970 -21.099  0.00  0.00    +0.021 C 
ATOM     31  C   UNL     1      33.522  -6.058 -22.319  0.00  0.00    +0.099 C 
ATOM     32  C   UNL     1      32.051  -6.658 -20.659  0.00  0.00    +0.099 C 
ENDBRANCH  26  28
ENDBRANCH  23  25
ENDBRANCH  18  20
ENDBRANCH  17  18
ENDBRANCH   1  17
TORSDOF 8
ENDMDL
MODEL 6
REMARK VINA RESULT:     -10.9      5.277     11.415
REMARK  Name = 6914613
REMARK  8 active torsions:
REMARK  status: ('A' for Active; 'I' for Inactive)
REMARK    1  A    between atoms: C_1  and  N_2
REMARK    2  A    between atoms: C_1  and  C_6
REMARK    3  A    between atoms: C_1  and  C_17
REMARK    4  A    between atoms: C_6  and  C_8
REMARK    5  A    between atoms: C_17  and  O_18
REMARK    6  A    between atoms: O_18  and  C_20
REMARK    7  A    between atoms: C_23  and  C_25
REMARK    8  A    between atoms: C_26  and  C_28
REMARK                            x       y       z     vdW  Elec       q    Type
REMARK                         _______ _______ _______ _____ _____    ______ ____
ROOT
ATOM      1  C   UNL     1      36.150 -22.974 -15.604  0.00  0.00    -0.017 C 
ENDROOT
BRANCH   1   2
ATOM      2  N   UNL     1      37.295 -23.526 -14.872  0.00  0.00    +0.384 N 
ATOM      3  H   UNL     1      37.379 -23.059 -13.969  0.00  0.00    -0.089 HD
ATOM      4  H   UNL     1      38.148 -23.378 -15.412  0.00  0.00    -0.089 HD
ATOM      5  H   UNL     1      37.155 -24.526 -14.726  0.00  0.00    -0.089 HD
ENDBRANCH   1   2
BRANCH   1   6
ATOM      6  C   UNL     1      35.136 -22.371 -14.596  0.00  0.00    +0.009 C 
BRANCH   6   8
ATOM      7  N   UNL     1      33.302 -24.971 -12.805  0.00  0.00    -0.312 N 
ATOM      8  C   UNL     1      34.176 -23.344 -14.037  0.00  0.00    -0.008 C 
ATOM      9  C   UNL     1      32.818 -23.515 -14.426  0.00  0.00    +0.011 C 
ATOM     10  C   UNL     1      32.292 -24.541 -13.638  0.00  0.00    +0.048 C 
ATOM     11  C   UNL     1      34.444 -24.252 -13.039  0.00  0.00    +0.058 C 
ATOM     12  C   UNL     1      31.983 -22.894 -15.376  0.00  0.00    +0.001 C 
ATOM     13  C   UNL     1      30.968 -24.980 -13.753  0.00  0.00    +0.015 C 
ATOM     14  C   UNL     1      30.656 -23.322 -15.502  0.00  0.00    +0.000 C 
ATOM     15  C   UNL     1      30.159 -24.348 -14.702  0.00  0.00    +0.001 C 
ATOM     16  H   UNL     1      33.214 -25.689 -12.138  0.00  0.00    +0.152 HD
ENDBRANCH   6   8
ENDBRANCH   1   6
BRANCH   1  17
ATOM     17  C   UNL     1      36.669 -21.962 -16.634  0.00  0.00    +0.184 C 
BRANCH  17  18
ATOM     18  O   UNL     1      36.374 -22.364 -17.965  0.00  0.00    -0.476 OA
BRANCH  18  20
ATOM     19  N   UNL     1      32.829 -21.951 -18.705  0.00  0.00    -0.239 NA
ATOM     20  C   UNL     1      35.226 -21.864 -18.522  0.00  0.00    +0.158 C 
ATOM     21  C   UNL     1      35.282 -20.821 -19.428  0.00  0.00    +0.040 C 
ATOM     22  C   UNL     1      33.999 -22.395 -18.191  0.00  0.00    +0.136 C 
ATOM     23  C   UNL     1      34.100 -20.337 -19.979  0.00  0.00    +0.022 C 
ATOM     24  C   UNL     1      32.912 -20.931 -19.588  0.00  0.00    +0.099 C 
BRANCH  23  25
ATOM     25  C   UNL     1      34.113 -19.243 -20.934  0.00  0.00    +0.002 C 
ATOM     26  C   UNL     1      34.606 -19.310 -22.195  0.00  0.00    +0.000 C 
BRANCH  26  28
ATOM     27  N   UNL     1      34.594 -16.128 -25.012  0.00  0.00    -0.242 NA
ATOM     28  C   UNL     1      34.601 -18.206 -23.171  0.00  0.00    +0.003 C 
ATOM     29  C   UNL     1      35.316 -17.057 -22.900  0.00  0.00    +0.021 C 
ATOM     30  C   UNL     1      33.882 -18.339 -24.343  0.00  0.00    +0.021 C 
ATOM     31  C   UNL     1      35.282 -16.049 -23.850  0.00  0.00    +0.099 C 
ATOM     32  C   UNL     1      33.910 -17.274 -25.228  0.00  0.00    +0.099 C 
ENDBRANCH  26  28
ENDBRANCH  23  25
ENDBRANCH  18  20
ENDBRANCH  17  18
ENDBRANCH   1  17
TORSDOF 8
ENDMDL
MODEL 7
REMARK VINA RESULT:     -10.8      3.908      7.223
REMARK  Name = 6914613
REMARK  8 active torsions:
REMARK  status: ('A' for Active; 'I' for Inactive)
REMARK    1  A    between atoms: C_1  and  N_2
REMARK    2  A    between atoms: C_1  and  C_6
REMARK    3  A    between atoms: C_1  and  C_17
REMARK    4  A    between atoms: C_6  and  C_8
REMARK    5  A    between atoms: C_17  and  O_18
REMARK    6  A    between atoms: O_18  and  C_20
REMARK    7  A    between atoms: C_23  and  C_25
REMARK    8  A    between atoms: C_26  and  C_28
REMARK                            x       y       z     vdW  Elec       q    Type
REMARK                         _______ _______ _______ _____ _____    ______ ____
ROOT
ATOM      1  C   UNL     1      35.656 -18.562 -20.740  0.00  0.00    -0.017 C 
ENDROOT
BRANCH   1   2
ATOM      2  N   UNL     1      37.037 -18.986 -20.483  0.00  0.00    +0.384 N 
ATOM      3  H   UNL     1      37.171 -19.118 -19.481  0.00  0.00    -0.089 HD
ATOM      4  H   UNL     1      37.681 -18.271 -20.821  0.00  0.00    -0.089 HD
ATOM      5  H   UNL     1      37.218 -19.864 -20.969  0.00  0.00    -0.089 HD
ENDBRANCH   1   2
BRANCH   1   6
ATOM      6  C   UNL     1      35.568 -17.914 -22.147  0.00  0.00    +0.009 C 
BRANCH   6   8
ATOM      7  N   UNL     1      34.533 -14.478 -21.472  0.00  0.00    -0.312 N 
ATOM      8  C   UNL     1      35.078 -16.521 -22.149  0.00  0.00    -0.008 C 
ATOM      9  C   UNL     1      34.538 -15.814 -23.260  0.00  0.00    +0.011 C 
ATOM     10  C   UNL     1      34.205 -14.534 -22.809  0.00  0.00    +0.048 C 
ATOM     11  C   UNL     1      35.061 -15.674 -21.065  0.00  0.00    +0.058 C 
ATOM     12  C   UNL     1      34.300 -16.140 -24.610  0.00  0.00    +0.001 C 
ATOM     13  C   UNL     1      33.644 -13.561 -23.643  0.00  0.00    +0.015 C 
ATOM     14  C   UNL     1      33.740 -15.176 -25.457  0.00  0.00    +0.000 C 
ATOM     15  C   UNL     1      33.418 -13.908 -24.979  0.00  0.00    +0.001 C 
ATOM     16  H   UNL     1      34.407 -13.691 -20.894  0.00  0.00    +0.152 HD
ENDBRANCH   6   8
ENDBRANCH   1   6
BRANCH   1  17
ATOM     17  C   UNL     1      34.731 -19.773 -20.563  0.00  0.00    +0.184 C 
BRANCH  17  18
ATOM     18  O   UNL     1      35.397 -20.860 -19.934  0.00  0.00    -0.476 OA
BRANCH  18  20
ATOM     19  N   UNL     1      32.610 -22.318 -18.093  0.00  0.00    -0.239 NA
ATOM     20  C   UNL     1      34.711 -21.518 -18.946  0.00  0.00    +0.158 C 
ATOM     21  C   UNL     1      35.379 -22.024 -17.846  0.00  0.00    +0.040 C 
ATOM     22  C   UNL     1      33.347 -21.682 -19.032  0.00  0.00    +0.136 C 
ATOM     23  C   UNL     1      34.656 -22.685 -16.859  0.00  0.00    +0.022 C 
ATOM     24  C   UNL     1      33.286 -22.803 -17.028  0.00  0.00    +0.099 C 
BRANCH  23  25
ATOM     25  C   UNL     1      35.315 -23.232 -15.687  0.00  0.00    +0.002 C 
ATOM     26  C   UNL     1      34.691 -23.839 -14.648  0.00  0.00    +0.000 C 
BRANCH  26  28
ATOM     27  N   UNL     1      36.629 -25.487 -11.244  0.00  0.00    -0.242 NA
ATOM     28  C   UNL     1      35.363 -24.411 -13.467  0.00  0.00    +0.003 C 
ATOM     29  C   UNL     1      36.430 -25.270 -13.643  0.00  0.00    +0.021 C 
ATOM     30  C   UNL     1      34.914 -24.079 -12.204  0.00  0.00    +0.021 C 
ATOM     31  C   UNL     1      37.028 -25.779 -12.502  0.00  0.00    +0.099 C 
ATOM     32  C   UNL     1      35.579 -24.642 -11.128  0.00  0.00    +0.099 C 
ENDBRANCH  26  28
ENDBRANCH  23  25
ENDBRANCH  18  20
ENDBRANCH  17  18
ENDBRANCH   1  17
TORSDOF 8
ENDMDL
MODEL 8
REMARK VINA RESULT:     -10.8      1.565     10.070
REMARK  Name = 6914613
REMARK  8 active torsions:
REMARK  status: ('A' for Active; 'I' for Inactive)
REMARK    1  A    between atoms: C_1  and  N_2
REMARK    2  A    between atoms: C_1  and  C_6
REMARK    3  A    between atoms: C_1  and  C_17
REMARK    4  A    between atoms: C_6  and  C_8
REMARK    5  A    between atoms: C_17  and  O_18
REMARK    6  A    between atoms: O_18  and  C_20
REMARK    7  A    between atoms: C_23  and  C_25
REMARK    8  A    between atoms: C_26  and  C_28
REMARK                            x       y       z     vdW  Elec       q    Type
REMARK                         _______ _______ _______ _____ _____    ______ ____
ROOT
ATOM      1  C   UNL     1      34.832 -19.186 -21.126  0.00  0.00    -0.017 C 
ENDROOT
BRANCH   1   2
ATOM      2  N   UNL     1      34.838 -19.689 -22.504  0.00  0.00    +0.384 N 
ATOM      3  H   UNL     1      33.887 -19.936 -22.780  0.00  0.00    -0.089 HD
ATOM      4  H   UNL     1      35.434 -20.515 -22.562  0.00  0.00    -0.089 HD
ATOM      5  H   UNL     1      35.196 -18.967 -23.129  0.00  0.00    -0.089 HD
ENDBRANCH   1   2
BRANCH   1   6
ATOM      6  C   UNL     1      35.586 -20.185 -20.209  0.00  0.00    +0.009 C 
BRANCH   6   8
ATOM      7  N   UNL     1      32.925 -22.083 -18.580  0.00  0.00    -0.312 N 
ATOM      8  C   UNL     1      34.709 -21.013 -19.357  0.00  0.00    -0.008 C 
ATOM      9  C   UNL     1      35.076 -21.671 -18.149  0.00  0.00    +0.011 C 
ATOM     10  C   UNL     1      33.939 -22.335 -17.682  0.00  0.00    +0.048 C 
ATOM     11  C   UNL     1      33.382 -21.286 -19.596  0.00  0.00    +0.058 C 
ATOM     12  C   UNL     1      36.268 -21.764 -17.405  0.00  0.00    +0.001 C 
ATOM     13  C   UNL     1      33.935 -23.091 -16.505  0.00  0.00    +0.015 C 
ATOM     14  C   UNL     1      36.280 -22.518 -16.225  0.00  0.00    +0.000 C 
ATOM     15  C   UNL     1      35.131 -23.169 -15.784  0.00  0.00    +0.001 C 
ATOM     16  H   UNL     1      32.006 -22.428 -18.504  0.00  0.00    +0.152 HD
ENDBRANCH   6   8
ENDBRANCH   1   6
BRANCH   1  17
ATOM     17  C   UNL     1      35.431 -17.773 -21.118  0.00  0.00    +0.184 C 
BRANCH  17  18
ATOM     18  O   UNL     1      35.835 -17.363 -22.418  0.00  0.00    -0.476 OA
BRANCH  18  20
ATOM     19  N   UNL     1      33.843 -15.678 -24.964  0.00  0.00    -0.239 NA
ATOM     20  C   UNL     1      35.073 -16.399 -23.027  0.00  0.00    +0.158 C 
ATOM     21  C   UNL     1      34.774 -15.222 -22.368  0.00  0.00    +0.040 C 
ATOM     22  C   UNL     1      34.597 -16.588 -24.306  0.00  0.00    +0.136 C 
ATOM     23  C   UNL     1      34.001 -14.261 -23.012  0.00  0.00    +0.022 C 
ATOM     24  C   UNL     1      33.565 -14.536 -24.298  0.00  0.00    +0.099 C 
BRANCH  23  25
ATOM     25  C   UNL     1      33.663 -13.010 -22.357  0.00  0.00    +0.002 C 
ATOM     26  C   UNL     1      32.505 -12.759 -21.699  0.00  0.00    +0.000 C 
BRANCH  26  28
ATOM     27  N   UNL     1      31.534  -9.117 -19.736  0.00  0.00    -0.242 NA
ATOM     28  C   UNL     1      32.169 -11.495 -21.018  0.00  0.00    +0.003 C 
ATOM     29  C   UNL     1      32.057 -10.335 -21.757  0.00  0.00    +0.021 C 
ATOM     30  C   UNL     1      31.972 -11.493 -19.651  0.00  0.00    +0.021 C 
ATOM     31  C   UNL     1      31.738  -9.175 -21.071  0.00  0.00    +0.099 C 
ATOM     32  C   UNL     1      31.657 -10.281 -19.059  0.00  0.00    +0.099 C 
ENDBRANCH  26  28
ENDBRANCH  23  25
ENDBRANCH  18  20
ENDBRANCH  17  18
ENDBRANCH   1  17
TORSDOF 8
ENDMDL
MODEL 9
REMARK VINA RESULT:     -10.8      5.556     11.563
REMARK  Name = 6914613
REMARK  8 active torsions:
REMARK  status: ('A' for Active; 'I' for Inactive)
REMARK    1  A    between atoms: C_1  and  N_2
REMARK    2  A    between atoms: C_1  and  C_6
REMARK    3  A    between atoms: C_1  and  C_17
REMARK    4  A    between atoms: C_6  and  C_8
REMARK    5  A    between atoms: C_17  and  O_18
REMARK    6  A    between atoms: O_18  and  C_20
REMARK    7  A    between atoms: C_23  and  C_25
REMARK    8  A    between atoms: C_26  and  C_28
REMARK                            x       y       z     vdW  Elec       q    Type
REMARK                         _______ _______ _______ _____ _____    ______ ____
ROOT
ATOM      1  C   UNL     1      34.155 -24.107 -15.025  0.00  0.00    -0.017 C 
ENDROOT
BRANCH   1   2
ATOM      2  N   UNL     1      35.023 -25.028 -14.283  0.00  0.00    +0.384 N 
ATOM      3  H   UNL     1      35.981 -24.941 -14.624  0.00  0.00    -0.089 HD
ATOM      4  H   UNL     1      34.700 -25.986 -14.421  0.00  0.00    -0.089 HD
ATOM      5  H   UNL     1      34.993 -24.798 -13.290  0.00  0.00    -0.089 HD
ENDBRANCH   1   2
BRANCH   1   6
ATOM      6  C   UNL     1      33.171 -23.420 -14.041  0.00  0.00    +0.009 C 
BRANCH   6   8
ATOM      7  N   UNL     1      30.154 -25.362 -13.363  0.00  0.00    -0.312 N 
ATOM      8  C   UNL     1      31.836 -24.047 -13.973  0.00  0.00    -0.008 C 
ATOM      9  C   UNL     1      30.705 -23.723 -14.775  0.00  0.00    +0.011 C 
ATOM     10  C   UNL     1      29.663 -24.562 -14.372  0.00  0.00    +0.048 C 
ATOM     11  C   UNL     1      31.466 -25.057 -13.115  0.00  0.00    +0.058 C 
ATOM     12  C   UNL     1      30.468 -22.795 -15.808  0.00  0.00    +0.001 C 
ATOM     13  C   UNL     1      28.391 -24.519 -14.952  0.00  0.00    +0.015 C 
ATOM     14  C   UNL     1      29.199 -22.740 -16.397  0.00  0.00    +0.000 C 
ATOM     15  C   UNL     1      28.179 -23.589 -15.975  0.00  0.00    +0.001 C 
ATOM     16  H   UNL     1      29.636 -26.051 -12.889  0.00  0.00    +0.152 HD
ENDBRANCH   6   8
ENDBRANCH   1   6
BRANCH   1  17
ATOM     17  C   UNL     1      35.037 -23.120 -15.800  0.00  0.00    +0.184 C 
BRANCH  17  18
ATOM     18  O   UNL     1      34.555 -22.906 -17.121  0.00  0.00    -0.476 OA
BRANCH  18  20
ATOM     19  N   UNL     1      37.210 -20.667 -18.229  0.00  0.00    -0.239 NA
ATOM     20  C   UNL     1      35.229 -21.987 -17.883  0.00  0.00    +0.158 C 
ATOM     21  C   UNL     1      34.650 -21.461 -19.023  0.00  0.00    +0.040 C 
ATOM     22  C   UNL     1      36.492 -21.571 -17.524  0.00  0.00    +0.136 C 
ATOM     23  C   UNL     1      35.357 -20.529 -19.775  0.00  0.00    +0.022 C 
ATOM     24  C   UNL     1      36.621 -20.169 -19.339  0.00  0.00    +0.099 C 
BRANCH  23  25
ATOM     25  C   UNL     1      34.787 -19.951 -20.979  0.00  0.00    +0.002 C 
ATOM     26  C   UNL     1      35.254 -18.849 -21.616  0.00  0.00    +0.000 C 
BRANCH  26  28
ATOM     27  N   UNL     1      33.618 -17.188 -25.169  0.00  0.00    -0.242 NA
ATOM     28  C   UNL     1      34.687 -18.274 -22.849  0.00  0.00    +0.003 C 
ATOM     29  C   UNL     1      33.851 -19.042 -23.634  0.00  0.00    +0.021 C 
ATOM     30  C   UNL     1      35.001 -16.975 -23.198  0.00  0.00    +0.021 C 
ATOM     31  C   UNL     1      33.343 -18.454 -24.782  0.00  0.00    +0.099 C 
ATOM     32  C   UNL     1      34.442 -16.480 -24.364  0.00  0.00    +0.099 C 
ENDBRANCH  26  28
ENDBRANCH  23  25
ENDBRANCH  18  20
ENDBRANCH  17  18
ENDBRANCH   1  17
TORSDOF 8
ENDMDL
