MODEL 1
REMARK VINA RESULT:     -11.7      0.000      0.000
REMARK  Name = 456199
REMARK  5 active torsions:
REMARK  status: ('A' for Active; 'I' for Inactive)
REMARK    1  A    between atoms: O_1  and  C_5
REMARK    2  A    between atoms: O_1  and  C_14
REMARK    3  A    between atoms: C_14  and  C_15
REMARK    4  A    between atoms: C_20  and  O_21
REMARK    5  A    between atoms: O_21  and  C_25
REMARK                            x       y       z     vdW  Elec       q    Type
REMARK                         _______ _______ _______ _____ _____    ______ ____
ROOT
ATOM      1  O   UNL     1      33.093 -22.671 -17.070  0.00  0.00    -0.346 OA
ENDROOT
BRANCH   1   5
ATOM      2  O   UNL     1      32.419 -24.164 -13.768  0.00  0.00    -0.438 OA
ATOM      3  N   UNL     1      34.704 -23.495 -13.893  0.00  0.00    -0.242 N 
ATOM      4  N   UNL     1      33.977 -24.475 -12.041  0.00  0.00    -0.333 NA
ATOM      5  C   UNL     1      33.375 -23.469 -15.931  0.00  0.00    +0.179 C 
ATOM      6  C   UNL     1      34.639 -22.971 -15.237  0.00  0.00    +0.130 C 
ATOM      7  C   UNL     1      32.196 -23.401 -14.960  0.00  0.00    +0.241 C 
ATOM      8  C   UNL     1      33.635 -24.043 -13.235  0.00  0.00    +0.345 C 
ATOM      9  C   UNL     1      35.787 -23.560 -13.073  0.00  0.00    +0.181 C 
ATOM     10  C   UNL     1      35.314 -24.168 -11.931  0.00  0.00    +0.274 C 
ATOM     11  O   UNL     1      37.232 -24.186 -10.658  0.00  0.00    -0.124 OA
ATOM     12  O   UNL     1      35.397 -25.042  -9.803  0.00  0.00    -0.124 OA
ATOM     13  N   UNL     1      36.007 -24.477 -10.754  0.00  0.00    +0.085 N 
ENDBRANCH   1   5
BRANCH   1  14
ATOM     14  C   UNL     1      33.924 -23.023 -18.166  0.00  0.00    +0.169 C 
BRANCH  14  15
ATOM     15  C   UNL     1      34.204 -21.796 -18.982  0.00  0.00    +0.007 C 
ATOM     16  C   UNL     1      33.148 -21.056 -19.497  0.00  0.00    +0.001 C 
ATOM     17  C   UNL     1      35.520 -21.410 -19.214  0.00  0.00    +0.001 C 
ATOM     18  C   UNL     1      33.409 -19.914 -20.256  0.00  0.00    +0.037 C 
ATOM     19  C   UNL     1      35.782 -20.269 -19.972  0.00  0.00    +0.037 C 
ATOM     20  C   UNL     1      34.726 -19.521 -20.493  0.00  0.00    +0.147 C 
BRANCH  20  21
ATOM     21  O   UNL     1      34.981 -18.407 -21.233  0.00  0.00    -0.404 OA
BRANCH  21  25
ATOM     22  F   UNL     1      36.847 -18.492 -22.551  0.00  0.00    -0.133 F 
ATOM     23  F   UNL     1      35.018 -17.591 -23.338  0.00  0.00    -0.133 F 
ATOM     24  F   UNL     1      35.114 -19.759 -23.074  0.00  0.00    -0.133 F 
ATOM     25  C   UNL     1      35.501 -18.577 -22.546  0.00  0.00    +0.575 C 
ENDBRANCH  21  25
ENDBRANCH  20  21
ENDBRANCH  14  15
ENDBRANCH   1  14
TORSDOF 5
ENDMDL
MODEL 2
REMARK VINA RESULT:     -11.4      1.499      2.224
REMARK  Name = 456199
REMARK  5 active torsions:
REMARK  status: ('A' for Active; 'I' for Inactive)
REMARK    1  A    between atoms: O_1  and  C_5
REMARK    2  A    between atoms: O_1  and  C_14
REMARK    3  A    between atoms: C_14  and  C_15
REMARK    4  A    between atoms: C_20  and  O_21
REMARK    5  A    between atoms: O_21  and  C_25
REMARK                            x       y       z     vdW  Elec       q    Type
REMARK                         _______ _______ _______ _____ _____    ______ ____
ROOT
ATOM      1  O   UNL     1      34.573 -23.224 -17.279  0.00  0.00    -0.346 OA
ENDROOT
BRANCH   1   5
ATOM      2  O   UNL     1      36.743 -22.257 -14.461  0.00  0.00    -0.438 OA
ATOM      3  N   UNL     1      35.164 -23.887 -13.733  0.00  0.00    -0.242 N 
ATOM      4  N   UNL     1      36.599 -23.057 -12.261  0.00  0.00    -0.333 NA
ATOM      5  C   UNL     1      34.869 -22.890 -15.932  0.00  0.00    +0.179 C 
ATOM      6  C   UNL     1      34.507 -24.049 -15.009  0.00  0.00    +0.130 C 
ATOM      7  C   UNL     1      36.361 -22.578 -15.804  0.00  0.00    +0.241 C 
ATOM      8  C   UNL     1      36.216 -23.038 -13.518  0.00  0.00    +0.345 C 
ATOM      9  C   UNL     1      34.866 -24.501 -12.557  0.00  0.00    +0.181 C 
ATOM     10  C   UNL     1      35.768 -23.974 -11.659  0.00  0.00    +0.274 C 
ATOM     11  O   UNL     1      35.153 -25.109  -9.754  0.00  0.00    -0.124 OA
ATOM     12  O   UNL     1      36.810 -23.671  -9.629  0.00  0.00    -0.124 OA
ATOM     13  N   UNL     1      35.915 -24.262 -10.296  0.00  0.00    +0.085 N 
ENDBRANCH   1   5
BRANCH   1  14
ATOM     14  C   UNL     1      33.463 -22.483 -17.763  0.00  0.00    +0.169 C 
BRANCH  14  15
ATOM     15  C   UNL     1      33.929 -21.554 -18.846  0.00  0.00    +0.007 C 
ATOM     16  C   UNL     1      35.282 -21.486 -19.158  0.00  0.00    +0.001 C 
ATOM     17  C   UNL     1      33.004 -20.771 -19.527  0.00  0.00    +0.001 C 
ATOM     18  C   UNL     1      35.716 -20.623 -20.165  0.00  0.00    +0.037 C 
ATOM     19  C   UNL     1      33.437 -19.908 -20.533  0.00  0.00    +0.037 C 
ATOM     20  C   UNL     1      34.793 -19.834 -20.852  0.00  0.00    +0.147 C 
BRANCH  20  21
ATOM     21  O   UNL     1      35.217 -18.992 -21.834  0.00  0.00    -0.404 OA
BRANCH  21  25
ATOM     22  F   UNL     1      35.868 -17.500 -20.228  0.00  0.00    -0.133 F 
ATOM     23  F   UNL     1      35.920 -16.905 -22.330  0.00  0.00    -0.133 F 
ATOM     24  F   UNL     1      37.395 -18.338 -21.589  0.00  0.00    -0.133 F 
ATOM     25  C   UNL     1      36.108 -17.941 -21.481  0.00  0.00    +0.575 C 
ENDBRANCH  21  25
ENDBRANCH  20  21
ENDBRANCH  14  15
ENDBRANCH   1  14
TORSDOF 5
ENDMDL
MODEL 3
REMARK VINA RESULT:     -11.1      1.586      2.157
REMARK  Name = 456199
REMARK  5 active torsions:
REMARK  status: ('A' for Active; 'I' for Inactive)
REMARK    1  A    between atoms: O_1  and  C_5
REMARK    2  A    between atoms: O_1  and  C_14
REMARK    3  A    between atoms: C_14  and  C_15
REMARK    4  A    between atoms: C_20  and  O_21
REMARK    5  A    between atoms: O_21  and  C_25
REMARK                            x       y       z     vdW  Elec       q    Type
REMARK                         _______ _______ _______ _____ _____    ______ ____
ROOT
ATOM      1  O   UNL     1      35.360 -22.784 -17.563  0.00  0.00    -0.346 OA
ENDROOT
BRANCH   1   5
ATOM      2  O   UNL     1      37.383 -22.207 -14.536  0.00  0.00    -0.438 OA
ATOM      3  N   UNL     1      35.585 -23.687 -14.028  0.00  0.00    -0.242 N 
ATOM      4  N   UNL     1      36.976 -23.098 -12.405  0.00  0.00    -0.333 NA
ATOM      5  C   UNL     1      35.579 -22.553 -16.180  0.00  0.00    +0.179 C 
ATOM      6  C   UNL     1      35.022 -23.711 -15.358  0.00  0.00    +0.130 C 
ATOM      7  C   UNL     1      37.080 -22.415 -15.921  0.00  0.00    +0.241 C 
ATOM      8  C   UNL     1      36.701 -22.972 -13.684  0.00  0.00    +0.345 C 
ATOM      9  C   UNL     1      35.129 -24.324 -12.916  0.00  0.00    +0.181 C 
ATOM     10  C   UNL     1      36.005 -23.946 -11.923  0.00  0.00    +0.274 C 
ATOM     11  O   UNL     1      35.119 -25.102 -10.140  0.00  0.00    -0.124 OA
ATOM     12  O   UNL     1      36.904 -23.864  -9.805  0.00  0.00    -0.124 OA
ATOM     13  N   UNL     1      36.009 -24.318 -10.572  0.00  0.00    +0.085 N 
ENDBRANCH   1   5
BRANCH   1  14
ATOM     14  C   UNL     1      34.071 -22.342 -17.962  0.00  0.00    +0.169 C 
BRANCH  14  15
ATOM     15  C   UNL     1      34.221 -21.304 -19.035  0.00  0.00    +0.007 C 
ATOM     16  C   UNL     1      33.088 -20.733 -19.603  0.00  0.00    +0.001 C 
ATOM     17  C   UNL     1      35.491 -20.922 -19.450  0.00  0.00    +0.001 C 
ATOM     18  C   UNL     1      33.227 -19.767 -20.600  0.00  0.00    +0.037 C 
ATOM     19  C   UNL     1      35.632 -19.956 -20.447  0.00  0.00    +0.037 C 
ATOM     20  C   UNL     1      34.499 -19.379 -21.022  0.00  0.00    +0.147 C 
BRANCH  20  21
ATOM     21  O   UNL     1      34.635 -18.437 -21.995  0.00  0.00    -0.404 OA
BRANCH  21  25
ATOM     22  F   UNL     1      35.146 -19.988 -23.595  0.00  0.00    -0.133 F 
ATOM     23  F   UNL     1      34.989 -17.881 -24.154  0.00  0.00    -0.133 F 
ATOM     24  F   UNL     1      33.173 -18.995 -23.664  0.00  0.00    -0.133 F 
ATOM     25  C   UNL     1      34.478 -18.842 -23.350  0.00  0.00    +0.575 C 
ENDBRANCH  21  25
ENDBRANCH  20  21
ENDBRANCH  14  15
ENDBRANCH   1  14
TORSDOF 5
ENDMDL
MODEL 4
REMARK VINA RESULT:     -10.8      6.361     11.154
REMARK  Name = 456199
REMARK  5 active torsions:
REMARK  status: ('A' for Active; 'I' for Inactive)
REMARK    1  A    between atoms: O_1  and  C_5
REMARK    2  A    between atoms: O_1  and  C_14
REMARK    3  A    between atoms: C_14  and  C_15
REMARK    4  A    between atoms: C_20  and  O_21
REMARK    5  A    between atoms: O_21  and  C_25
REMARK                            x       y       z     vdW  Elec       q    Type
REMARK                         _______ _______ _______ _____ _____    ______ ____
ROOT
ATOM      1  O   UNL     1      35.036 -19.297 -22.363  0.00  0.00    -0.346 OA
ENDROOT
BRANCH   1   5
ATOM      2  O   UNL     1      33.370 -17.547 -25.146  0.00  0.00    -0.438 OA
ATOM      3  N   UNL     1      34.330 -15.953 -23.658  0.00  0.00    -0.242 N 
ATOM      4  N   UNL     1      33.210 -15.224 -25.428  0.00  0.00    -0.333 NA
ATOM      5  C   UNL     1      34.246 -18.282 -22.963  0.00  0.00    +0.179 C 
ATOM      6  C   UNL     1      34.882 -16.915 -22.733  0.00  0.00    +0.130 C 
ATOM      7  C   UNL     1      34.133 -18.550 -24.464  0.00  0.00    +0.241 C 
ATOM      8  C   UNL     1      33.630 -16.291 -24.785  0.00  0.00    +0.345 C 
ATOM      9  C   UNL     1      34.381 -14.595 -23.581  0.00  0.00    +0.181 C 
ATOM     10  C   UNL     1      33.683 -14.165 -24.687  0.00  0.00    +0.274 C 
ATOM     11  O   UNL     1      33.874 -11.886 -24.423  0.00  0.00    -0.124 OA
ATOM     12  O   UNL     1      32.764 -12.652 -26.159  0.00  0.00    -0.124 OA
ATOM     13  N   UNL     1      33.431 -12.851 -25.105  0.00  0.00    +0.085 N 
ENDBRANCH   1   5
BRANCH   1  14
ATOM     14  C   UNL     1      35.346 -18.980 -21.014  0.00  0.00    +0.169 C 
BRANCH  14  15
ATOM     15  C   UNL     1      34.985 -20.147 -20.142  0.00  0.00    +0.007 C 
ATOM     16  C   UNL     1      35.991 -20.917 -19.571  0.00  0.00    +0.001 C 
ATOM     17  C   UNL     1      33.647 -20.447 -19.914  0.00  0.00    +0.001 C 
ATOM     18  C   UNL     1      35.655 -22.001 -18.760  0.00  0.00    +0.037 C 
ATOM     19  C   UNL     1      33.310 -21.531 -19.103  0.00  0.00    +0.037 C 
ATOM     20  C   UNL     1      34.315 -22.308 -18.526  0.00  0.00    +0.147 C 
BRANCH  20  21
ATOM     21  O   UNL     1      33.988 -23.366 -17.735  0.00  0.00    -0.404 OA
BRANCH  21  25
ATOM     22  F   UNL     1      34.849 -22.294 -15.908  0.00  0.00    -0.133 F 
ATOM     23  F   UNL     1      34.096 -24.335 -15.699  0.00  0.00    -0.133 F 
ATOM     24  F   UNL     1      32.677 -22.697 -15.984  0.00  0.00    -0.133 F 
ATOM     25  C   UNL     1      33.900 -23.155 -16.331  0.00  0.00    +0.575 C 
ENDBRANCH  21  25
ENDBRANCH  20  21
ENDBRANCH  14  15
ENDBRANCH   1  14
TORSDOF 5
ENDMDL
MODEL 5
REMARK VINA RESULT:     -10.6      6.210     10.825
REMARK  Name = 456199
REMARK  5 active torsions:
REMARK  status: ('A' for Active; 'I' for Inactive)
REMARK    1  A    between atoms: O_1  and  C_5
REMARK    2  A    between atoms: O_1  and  C_14
REMARK    3  A    between atoms: C_14  and  C_15
REMARK    4  A    between atoms: C_20  and  O_21
REMARK    5  A    between atoms: O_21  and  C_25
REMARK                            x       y       z     vdW  Elec       q    Type
REMARK                         _______ _______ _______ _____ _____    ______ ____
ROOT
ATOM      1  O   UNL     1      35.780 -18.368 -20.711  0.00  0.00    -0.346 OA
ENDROOT
BRANCH   1   5
ATOM      2  O   UNL     1      34.944 -14.779 -20.625  0.00  0.00    -0.438 OA
ATOM      3  N   UNL     1      34.609 -15.627 -22.827  0.00  0.00    -0.242 N 
ATOM      4  N   UNL     1      34.235 -13.476 -22.442  0.00  0.00    -0.333 NA
ATOM      5  C   UNL     1      35.745 -17.037 -21.203  0.00  0.00    +0.179 C 
ATOM      6  C   UNL     1      34.998 -16.986 -22.532  0.00  0.00    +0.130 C 
ATOM      7  C   UNL     1      35.043 -16.138 -20.184  0.00  0.00    +0.241 C 
ATOM      8  C   UNL     1      34.592 -14.619 -21.901  0.00  0.00    +0.345 C 
ATOM      9  C   UNL     1      34.224 -15.110 -24.025  0.00  0.00    +0.181 C 
ATOM     10  C   UNL     1      33.996 -13.777 -23.763  0.00  0.00    +0.274 C 
ATOM     11  O   UNL     1      33.346 -13.060 -25.852  0.00  0.00    -0.124 OA
ATOM     12  O   UNL     1      33.414 -11.596 -24.214  0.00  0.00    -0.124 OA
ATOM     13  N   UNL     1      33.570 -12.774 -24.643  0.00  0.00    +0.085 N 
ENDBRANCH   1   5
BRANCH   1  14
ATOM     14  C   UNL     1      34.569 -19.054 -20.989  0.00  0.00    +0.169 C 
BRANCH  14  15
ATOM     15  C   UNL     1      34.447 -20.228 -20.063  0.00  0.00    +0.007 C 
ATOM     16  C   UNL     1      35.592 -20.891 -19.638  0.00  0.00    +0.001 C 
ATOM     17  C   UNL     1      33.190 -20.643 -19.640  0.00  0.00    +0.001 C 
ATOM     18  C   UNL     1      35.480 -21.983 -18.777  0.00  0.00    +0.037 C 
ATOM     19  C   UNL     1      33.075 -21.734 -18.779  0.00  0.00    +0.037 C 
ATOM     20  C   UNL     1      34.221 -22.404 -18.347  0.00  0.00    +0.147 C 
BRANCH  20  21
ATOM     21  O   UNL     1      34.111 -23.470 -17.507  0.00  0.00    -0.404 OA
BRANCH  21  25
ATOM     22  F   UNL     1      34.511 -24.347 -15.434  0.00  0.00    -0.133 F 
ATOM     23  F   UNL     1      32.936 -22.852 -15.681  0.00  0.00    -0.133 F 
ATOM     24  F   UNL     1      35.029 -22.233 -15.816  0.00  0.00    -0.133 F 
ATOM     25  C   UNL     1      34.164 -23.230 -16.106  0.00  0.00    +0.575 C 
ENDBRANCH  21  25
ENDBRANCH  20  21
ENDBRANCH  14  15
ENDBRANCH   1  14
TORSDOF 5
ENDMDL
MODEL 6
REMARK VINA RESULT:     -10.4      1.910      2.557
REMARK  Name = 456199
REMARK  5 active torsions:
REMARK  status: ('A' for Active; 'I' for Inactive)
REMARK    1  A    between atoms: O_1  and  C_5
REMARK    2  A    between atoms: O_1  and  C_14
REMARK    3  A    between atoms: C_14  and  C_15
REMARK    4  A    between atoms: C_20  and  O_21
REMARK    5  A    between atoms: O_21  and  C_25
REMARK                            x       y       z     vdW  Elec       q    Type
REMARK                         _______ _______ _______ _____ _____    ______ ____
ROOT
ATOM      1  O   UNL     1      36.285 -21.262 -17.740  0.00  0.00    -0.346 OA
ENDROOT
BRANCH   1   5
ATOM      2  O   UNL     1      34.835 -23.867 -15.572  0.00  0.00    -0.438 OA
ATOM      3  N   UNL     1      36.697 -22.859 -14.478  0.00  0.00    -0.242 N 
ATOM      4  N   UNL     1      35.618 -24.505 -13.455  0.00  0.00    -0.333 NA
ATOM      5  C   UNL     1      36.316 -22.347 -16.825  0.00  0.00    +0.179 C 
ATOM      6  C   UNL     1      37.014 -21.927 -15.535  0.00  0.00    +0.130 C 
ATOM      7  C   UNL     1      34.885 -22.789 -16.515  0.00  0.00    +0.241 C 
ATOM      8  C   UNL     1      35.660 -23.751 -14.531  0.00  0.00    +0.345 C 
ATOM      9  C   UNL     1      37.346 -23.033 -13.295  0.00  0.00    +0.181 C 
ATOM     10  C   UNL     1      36.660 -24.056 -12.677  0.00  0.00    +0.274 C 
ATOM     11  O   UNL     1      37.853 -24.213 -10.714  0.00  0.00    -0.124 OA
ATOM     12  O   UNL     1      36.155 -25.574 -11.023  0.00  0.00    -0.124 OA
ATOM     13  N   UNL     1      36.899 -24.636 -11.425  0.00  0.00    +0.085 N 
ENDBRANCH   1   5
BRANCH   1  14
ATOM     14  C   UNL     1      35.379 -21.511 -18.805  0.00  0.00    +0.169 C 
BRANCH  14  15
ATOM     15  C   UNL     1      35.552 -20.451 -19.852  0.00  0.00    +0.007 C 
ATOM     16  C   UNL     1      36.739 -19.731 -19.913  0.00  0.00    +0.001 C 
ATOM     17  C   UNL     1      34.524 -20.199 -20.753  0.00  0.00    +0.001 C 
ATOM     18  C   UNL     1      36.901 -18.745 -20.887  0.00  0.00    +0.037 C 
ATOM     19  C   UNL     1      34.684 -19.213 -21.727  0.00  0.00    +0.037 C 
ATOM     20  C   UNL     1      35.873 -18.487 -21.794  0.00  0.00    +0.147 C 
BRANCH  20  21
ATOM     21  O   UNL     1      36.031 -17.525 -22.744  0.00  0.00    -0.404 OA
BRANCH  21  25
ATOM     22  F   UNL     1      35.749 -15.306 -23.221  0.00  0.00    -0.133 F 
ATOM     23  F   UNL     1      34.800 -16.151 -21.443  0.00  0.00    -0.133 F 
ATOM     24  F   UNL     1      34.020 -16.668 -23.418  0.00  0.00    -0.133 F 
ATOM     25  C   UNL     1      35.150 -16.408 -22.724  0.00  0.00    +0.575 C 
ENDBRANCH  21  25
ENDBRANCH  20  21
ENDBRANCH  14  15
ENDBRANCH   1  14
TORSDOF 5
ENDMDL
MODEL 7
REMARK VINA RESULT:     -10.4      2.608      3.997
REMARK  Name = 456199
REMARK  5 active torsions:
REMARK  status: ('A' for Active; 'I' for Inactive)
REMARK    1  A    between atoms: O_1  and  C_5
REMARK    2  A    between atoms: O_1  and  C_14
REMARK    3  A    between atoms: C_14  and  C_15
REMARK    4  A    between atoms: C_20  and  O_21
REMARK    5  A    between atoms: O_21  and  C_25
REMARK                            x       y       z     vdW  Elec       q    Type
REMARK                         _______ _______ _______ _____ _____    ______ ____
ROOT
ATOM      1  O   UNL     1      36.017 -20.551 -19.978  0.00  0.00    -0.346 OA
ENDROOT
BRANCH   1   5
ATOM      2  O   UNL     1      34.387 -22.813 -17.566  0.00  0.00    -0.438 OA
ATOM      3  N   UNL     1      36.466 -22.057 -16.677  0.00  0.00    -0.242 N 
ATOM      4  N   UNL     1      35.246 -23.475 -15.486  0.00  0.00    -0.333 NA
ATOM      5  C   UNL     1      35.965 -21.589 -19.011  0.00  0.00    +0.179 C 
ATOM      6  C   UNL     1      36.826 -21.229 -17.804  0.00  0.00    +0.130 C 
ATOM      7  C   UNL     1      34.517 -21.795 -18.566  0.00  0.00    +0.241 C 
ATOM      8  C   UNL     1      35.307 -22.782 -16.601  0.00  0.00    +0.345 C 
ATOM      9  C   UNL     1      37.181 -22.280 -15.542  0.00  0.00    +0.181 C 
ATOM     10  C   UNL     1      36.407 -23.159 -14.818  0.00  0.00    +0.274 C 
ATOM     11  O   UNL     1      37.727 -23.416 -12.950  0.00  0.00    -0.124 OA
ATOM     12  O   UNL     1      35.825 -24.513 -13.050  0.00  0.00    -0.124 OA
ATOM     13  N   UNL     1      36.663 -23.717 -13.559  0.00  0.00    +0.085 N 
ENDBRANCH   1   5
BRANCH   1  14
ATOM     14  C   UNL     1      34.729 -20.005 -20.219  0.00  0.00    +0.169 C 
BRANCH  14  15
ATOM     15  C   UNL     1      34.824 -18.997 -21.326  0.00  0.00    +0.007 C 
ATOM     16  C   UNL     1      35.306 -17.722 -21.056  0.00  0.00    +0.001 C 
ATOM     17  C   UNL     1      34.430 -19.348 -22.612  0.00  0.00    +0.001 C 
ATOM     18  C   UNL     1      35.395 -16.784 -22.085  0.00  0.00    +0.037 C 
ATOM     19  C   UNL     1      34.519 -18.412 -23.642  0.00  0.00    +0.037 C 
ATOM     20  C   UNL     1      35.001 -17.130 -23.378  0.00  0.00    +0.147 C 
BRANCH  20  21
ATOM     21  O   UNL     1      35.088 -16.214 -24.382  0.00  0.00    -0.404 OA
BRANCH  21  25
ATOM     22  F   UNL     1      33.436 -14.753 -23.777  0.00  0.00    -0.133 F 
ATOM     23  F   UNL     1      32.950 -16.447 -25.071  0.00  0.00    -0.133 F 
ATOM     24  F   UNL     1      34.116 -14.784 -25.880  0.00  0.00    -0.133 F 
ATOM     25  C   UNL     1      33.903 -15.532 -24.775  0.00  0.00    +0.575 C 
ENDBRANCH  21  25
ENDBRANCH  20  21
ENDBRANCH  14  15
ENDBRANCH   1  14
TORSDOF 5
ENDMDL
MODEL 8
REMARK VINA RESULT:     -10.3      5.594      6.915
REMARK  Name = 456199
REMARK  5 active torsions:
REMARK  status: ('A' for Active; 'I' for Inactive)
REMARK    1  A    between atoms: O_1  and  C_5
REMARK    2  A    between atoms: O_1  and  C_14
REMARK    3  A    between atoms: C_14  and  C_15
REMARK    4  A    between atoms: C_20  and  O_21
REMARK    5  A    between atoms: O_21  and  C_25
REMARK                            x       y       z     vdW  Elec       q    Type
REMARK                         _______ _______ _______ _____ _____    ______ ____
ROOT
ATOM      1  O   UNL     1      33.587 -23.972 -12.781  0.00  0.00    -0.346 OA
ENDROOT
BRANCH   1   5
ATOM      2  O   UNL     1      36.629 -25.464 -11.329  0.00  0.00    -0.438 OA
ATOM      3  N   UNL     1      37.002 -24.963 -13.629  0.00  0.00    -0.242 N 
ATOM      4  N   UNL     1      38.631 -25.915 -12.464  0.00  0.00    -0.333 NA
ATOM      5  C   UNL     1      34.735 -24.807 -12.762  0.00  0.00    +0.179 C 
ATOM      6  C   UNL     1      35.691 -24.414 -13.884  0.00  0.00    +0.130 C 
ATOM      7  C   UNL     1      35.440 -24.668 -11.413  0.00  0.00    +0.241 C 
ATOM      8  C   UNL     1      37.406 -25.441 -12.411  0.00  0.00    +0.345 C 
ATOM      9  C   UNL     1      38.028 -25.120 -14.509  0.00  0.00    +0.181 C 
ATOM     10  C   UNL     1      39.026 -25.710 -13.766  0.00  0.00    +0.274 C 
ATOM     11  O   UNL     1      40.669 -25.889 -15.369  0.00  0.00    -0.124 OA
ATOM     12  O   UNL     1      41.097 -26.621 -13.341  0.00  0.00    -0.124 OA
ATOM     13  N   UNL     1      40.312 -26.087 -14.174  0.00  0.00    +0.085 N 
ENDBRANCH   1   5
BRANCH   1  14
ATOM     14  C   UNL     1      32.394 -24.735 -12.885  0.00  0.00    +0.169 C 
BRANCH  14  15
ATOM     15  C   UNL     1      31.466 -24.062 -13.852  0.00  0.00    +0.007 C 
ATOM     16  C   UNL     1      30.114 -23.958 -13.549  0.00  0.00    +0.001 C 
ATOM     17  C   UNL     1      31.967 -23.550 -15.044  0.00  0.00    +0.001 C 
ATOM     18  C   UNL     1      29.250 -23.333 -14.449  0.00  0.00    +0.037 C 
ATOM     19  C   UNL     1      31.105 -22.924 -15.944  0.00  0.00    +0.037 C 
ATOM     20  C   UNL     1      29.746 -22.816 -15.646  0.00  0.00    +0.147 C 
BRANCH  20  21
ATOM     21  O   UNL     1      28.903 -22.206 -16.524  0.00  0.00    -0.404 OA
BRANCH  21  25
ATOM     22  F   UNL     1      27.002 -22.245 -17.795  0.00  0.00    -0.133 F 
ATOM     23  F   UNL     1      26.846 -22.431 -15.623  0.00  0.00    -0.133 F 
ATOM     24  F   UNL     1      27.648 -24.100 -16.783  0.00  0.00    -0.133 F 
ATOM     25  C   UNL     1      27.601 -22.753 -16.698  0.00  0.00    +0.575 C 
ENDBRANCH  21  25
ENDBRANCH  20  21
ENDBRANCH  14  15
ENDBRANCH   1  14
TORSDOF 5
ENDMDL
MODEL 9
REMARK VINA RESULT:     -10.2      2.410      3.381
REMARK  Name = 456199
REMARK  5 active torsions:
REMARK  status: ('A' for Active; 'I' for Inactive)
REMARK    1  A    between atoms: O_1  and  C_5
REMARK    2  A    between atoms: O_1  and  C_14
REMARK    3  A    between atoms: C_14  and  C_15
REMARK    4  A    between atoms: C_20  and  O_21
REMARK    5  A    between atoms: O_21  and  C_25
REMARK                            x       y       z     vdW  Elec       q    Type
REMARK                         _______ _______ _______ _____ _____    ______ ____
ROOT
ATOM      1  O   UNL     1      35.460 -22.426 -18.314  0.00  0.00    -0.346 OA
ENDROOT
BRANCH   1   5
ATOM      2  O   UNL     1      34.819 -22.785 -14.701  0.00  0.00    -0.438 OA
ATOM      3  N   UNL     1      32.855 -23.359 -15.924  0.00  0.00    -0.242 N 
ATOM      4  N   UNL     1      32.794 -23.429 -13.708  0.00  0.00    -0.333 NA
ATOM      5  C   UNL     1      34.701 -22.319 -17.119  0.00  0.00    +0.179 C 
ATOM      6  C   UNL     1      33.416 -23.132 -17.236  0.00  0.00    +0.130 C 
ATOM      7  C   UNL     1      35.531 -22.836 -15.943  0.00  0.00    +0.241 C 
ATOM      8  C   UNL     1      33.550 -23.191 -14.756  0.00  0.00    +0.345 C 
ATOM      9  C   UNL     1      31.589 -23.746 -15.612  0.00  0.00    +0.181 C 
ATOM     10  C   UNL     1      31.573 -23.784 -14.235  0.00  0.00    +0.274 C 
ATOM     11  O   UNL     1      29.403 -24.462 -13.875  0.00  0.00    -0.124 OA
ATOM     12  O   UNL     1      30.695 -24.106 -12.132  0.00  0.00    -0.124 OA
ATOM     13  N   UNL     1      30.517 -24.130 -13.383  0.00  0.00    +0.085 N 
ENDBRANCH   1   5
BRANCH   1  14
ATOM     14  C   UNL     1      36.366 -21.342 -18.449  0.00  0.00    +0.169 C 
BRANCH  14  15
ATOM     15  C   UNL     1      35.899 -20.450 -19.562  0.00  0.00    +0.007 C 
ATOM     16  C   UNL     1      34.581 -20.523 -19.995  0.00  0.00    +0.001 C 
ATOM     17  C   UNL     1      36.791 -19.561 -20.150  0.00  0.00    +0.001 C 
ATOM     18  C   UNL     1      34.146 -19.694 -21.030  0.00  0.00    +0.037 C 
ATOM     19  C   UNL     1      36.358 -18.731 -21.185  0.00  0.00    +0.037 C 
ATOM     20  C   UNL     1      35.035 -18.798 -21.625  0.00  0.00    +0.147 C 
BRANCH  20  21
ATOM     21  O   UNL     1      34.611 -17.990 -22.634  0.00  0.00    -0.404 OA
BRANCH  21  25
ATOM     22  F   UNL     1      35.038 -19.697 -24.095  0.00  0.00    -0.133 F 
ATOM     23  F   UNL     1      34.587 -17.705 -24.874  0.00  0.00    -0.133 F 
ATOM     24  F   UNL     1      32.986 -18.887 -23.970  0.00  0.00    -0.133 F 
ATOM     25  C   UNL     1      34.300 -18.586 -23.888  0.00  0.00    +0.575 C 
ENDBRANCH  21  25
ENDBRANCH  20  21
ENDBRANCH  14  15
ENDBRANCH   1  14
TORSDOF 5
ENDMDL
