MODEL 1
REMARK VINA RESULT:     -12.9      0.000      0.000
REMARK  Name = 447731
REMARK  4 active torsions:
REMARK  status: ('A' for Active; 'I' for Inactive)
REMARK    1  A    between atoms: N_2  and  C_13
REMARK    2  A    between atoms: C_3  and  C_19
REMARK    3  A    between atoms: C_6  and  C_17
REMARK    4  A    between atoms: C_27  and  C_31
REMARK                            x       y       z     vdW  Elec       q    Type
REMARK                         _______ _______ _______ _____ _____    ______ ____
ROOT
ATOM      1  O   UNL     1      33.887 -23.727 -17.716  0.00  0.00    -0.270 OA
ATOM      2  N   UNL     1      35.155 -22.249 -16.397  0.00  0.00    -0.280 N 
ATOM      3  C   UNL     1      34.433 -22.644 -17.530  0.00  0.00    +0.249 C 
ATOM      4  H   UNL     1      35.527 -21.337 -16.418  0.00  0.00    +0.155 HD
ENDROOT
BRANCH   2  13
ATOM      5  N   UNL     1      37.100 -26.408 -11.874  0.00  0.00    +0.387 N 
ATOM      6  C   UNL     1      38.047 -25.462 -13.950  0.00  0.00    +0.001 C 
ATOM      7  C   UNL     1      36.833 -24.547 -14.020  0.00  0.00    -0.029 C 
ATOM      8  C   UNL     1      38.329 -25.938 -12.511  0.00  0.00    -0.077 C 
ATOM      9  C   UNL     1      35.926 -24.497 -12.942  0.00  0.00    -0.048 C 
ATOM     10  C   UNL     1      36.177 -25.287 -11.682  0.00  0.00    -0.055 C 
ATOM     11  C   UNL     1      36.547 -23.802 -15.176  0.00  0.00    +0.010 C 
ATOM     12  C   UNL     1      34.797 -23.667 -13.015  0.00  0.00    -0.005 C 
ATOM     13  C   UNL     1      35.413 -22.989 -15.242  0.00  0.00    +0.050 C 
ATOM     14  C   UNL     1      34.543 -22.918 -14.160  0.00  0.00    +0.014 C 
ATOM     15  H   UNL     1      37.325 -26.819 -10.968  0.00  0.00    -0.084 HD
ATOM     16  H   UNL     1      36.659 -27.108 -12.471  0.00  0.00    -0.084 HD
BRANCH   6  17
ATOM     17  C   UNL     1      39.326 -24.832 -14.515  0.00  0.00    +0.002 C 
ATOM     18  C   UNL     1      40.542 -25.665 -14.174  0.00  0.00    +0.000 C 
ENDBRANCH   6  17
ENDBRANCH   2  13
BRANCH   3  19
ATOM     19  C   UNL     1      34.354 -21.635 -18.619  0.00  0.00    +0.054 C 
ATOM     20  C   UNL     1      35.455 -20.057 -20.063  0.00  0.00    +0.000 C 
ATOM     21  C   UNL     1      34.205 -19.751 -20.654  0.00  0.00    +0.000 C 
ATOM     22  C   UNL     1      35.513 -21.013 -19.035  0.00  0.00    +0.005 C 
ATOM     23  C   UNL     1      33.127 -21.355 -19.177  0.00  0.00    +0.005 C 
ATOM     24  C   UNL     1      33.051 -20.409 -20.198  0.00  0.00    +0.000 C 
ATOM     25  C   UNL     1      34.147 -18.795 -21.681  0.00  0.00    +0.003 C 
ATOM     26  C   UNL     1      36.609 -19.399 -20.518  0.00  0.00    +0.000 C 
ATOM     27  C   UNL     1      35.304 -18.150 -22.120  0.00  0.00    +0.031 C 
ATOM     28  C   UNL     1      36.532 -18.452 -21.539  0.00  0.00    +0.003 C 
BRANCH  27  31
ATOM     29  N   UNL     1      34.519 -17.417 -24.358  0.00  0.00    -0.343 N 
ATOM     30  N   UNL     1      35.838 -16.001 -23.051  0.00  0.00    -0.285 NA
ATOM     31  C   UNL     1      35.226 -17.163 -23.185  0.00  0.00    +0.117 C 
ATOM     32  H   UNL     1      34.479 -16.735 -25.067  0.00  0.00    +0.144 HD
ATOM     33  H   UNL     1      34.058 -18.279 -24.479  0.00  0.00    +0.144 HD
ATOM     34  H   UNL     1      35.787 -15.331 -23.771  0.00  0.00    +0.188 HD
ENDBRANCH  27  31
ENDBRANCH   3  19
TORSDOF 4
ENDMDL
MODEL 2
REMARK VINA RESULT:     -12.3      1.196      2.651
REMARK  Name = 447731
REMARK  4 active torsions:
REMARK  status: ('A' for Active; 'I' for Inactive)
REMARK    1  A    between atoms: N_2  and  C_13
REMARK    2  A    between atoms: C_3  and  C_19
REMARK    3  A    between atoms: C_6  and  C_17
REMARK    4  A    between atoms: C_27  and  C_31
REMARK                            x       y       z     vdW  Elec       q    Type
REMARK                         _______ _______ _______ _____ _____    ______ ____
ROOT
ATOM      1  O   UNL     1      34.309 -23.283 -17.858  0.00  0.00    -0.270 OA
ATOM      2  N   UNL     1      35.867 -21.802 -16.904  0.00  0.00    -0.280 N 
ATOM      3  C   UNL     1      34.933 -22.227 -17.858  0.00  0.00    +0.249 C 
ATOM      4  H   UNL     1      36.275 -20.920 -17.062  0.00  0.00    +0.155 HD
ENDROOT
BRANCH   2  13
ATOM      5  N   UNL     1      36.706 -24.415 -11.072  0.00  0.00    +0.387 N 
ATOM      6  C   UNL     1      34.778 -23.802 -12.489  0.00  0.00    +0.001 C 
ATOM      7  C   UNL     1      35.768 -23.481 -13.599  0.00  0.00    -0.029 C 
ATOM      8  C   UNL     1      35.357 -24.807 -11.473  0.00  0.00    -0.077 C 
ATOM      9  C   UNL     1      37.131 -23.802 -13.441  0.00  0.00    -0.048 C 
ATOM     10  C   UNL     1      37.619 -24.528 -12.213  0.00  0.00    -0.055 C 
ATOM     11  C   UNL     1      35.367 -22.793 -14.757  0.00  0.00    +0.010 C 
ATOM     12  C   UNL     1      38.046 -23.489 -14.458  0.00  0.00    -0.005 C 
ATOM     13  C   UNL     1      36.290 -22.476 -15.756  0.00  0.00    +0.050 C 
ATOM     14  C   UNL     1      37.627 -22.829 -15.609  0.00  0.00    +0.014 C 
ATOM     15  H   UNL     1      37.027 -25.027 -10.321  0.00  0.00    -0.084 HD
ATOM     16  H   UNL     1      36.693 -23.448 -10.748  0.00  0.00    -0.084 HD
BRANCH   6  17
ATOM     17  C   UNL     1      33.436 -24.341 -12.998  0.00  0.00    +0.002 C 
ATOM     18  C   UNL     1      32.353 -23.289 -12.900  0.00  0.00    +0.000 C 
ENDBRANCH   6  17
ENDBRANCH   2  13
BRANCH   3  19
ATOM     19  C   UNL     1      34.712 -21.293 -18.993  0.00  0.00    +0.054 C 
ATOM     20  C   UNL     1      35.596 -19.711 -20.575  0.00  0.00    +0.000 C 
ATOM     21  C   UNL     1      34.297 -19.549 -21.113  0.00  0.00    +0.000 C 
ATOM     22  C   UNL     1      35.789 -20.598 -19.502  0.00  0.00    +0.005 C 
ATOM     23  C   UNL     1      33.440 -21.153 -19.498  0.00  0.00    +0.005 C 
ATOM     24  C   UNL     1      33.230 -20.277 -20.563  0.00  0.00    +0.000 C 
ATOM     25  C   UNL     1      34.104 -18.662 -22.185  0.00  0.00    +0.003 C 
ATOM     26  C   UNL     1      36.663 -18.983 -21.124  0.00  0.00    +0.000 C 
ATOM     27  C   UNL     1      35.176 -17.947 -22.719  0.00  0.00    +0.031 C 
ATOM     28  C   UNL     1      36.453 -18.107 -22.189  0.00  0.00    +0.003 C 
BRANCH  27  31
ATOM     29  N   UNL     1      35.482 -15.741 -23.817  0.00  0.00    -0.343 N 
ATOM     30  N   UNL     1      34.251 -17.422 -24.873  0.00  0.00    -0.285 NA
ATOM     31  C   UNL     1      34.959 -17.033 -23.829  0.00  0.00    +0.117 C 
ATOM     32  H   UNL     1      35.324 -15.139 -24.579  0.00  0.00    +0.144 HD
ATOM     33  H   UNL     1      36.011 -15.431 -23.046  0.00  0.00    +0.144 HD
ATOM     34  H   UNL     1      34.103 -16.805 -25.626  0.00  0.00    +0.188 HD
ENDBRANCH  27  31
ENDBRANCH   3  19
TORSDOF 4
ENDMDL
MODEL 3
REMARK VINA RESULT:     -11.3      1.498      3.276
REMARK  Name = 447731
REMARK  4 active torsions:
REMARK  status: ('A' for Active; 'I' for Inactive)
REMARK    1  A    between atoms: N_2  and  C_13
REMARK    2  A    between atoms: C_3  and  C_19
REMARK    3  A    between atoms: C_6  and  C_17
REMARK    4  A    between atoms: C_27  and  C_31
REMARK                            x       y       z     vdW  Elec       q    Type
REMARK                         _______ _______ _______ _____ _____    ______ ____
ROOT
ATOM      1  O   UNL     1      35.197 -22.755 -18.705  0.00  0.00    -0.270 OA
ATOM      2  N   UNL     1      36.437 -21.403 -17.234  0.00  0.00    -0.280 N 
ATOM      3  C   UNL     1      35.778 -21.710 -18.431  0.00  0.00    +0.249 C 
ATOM      4  H   UNL     1      36.852 -20.511 -17.186  0.00  0.00    +0.155 HD
ENDROOT
BRANCH   2  13
ATOM      5  N   UNL     1      35.963 -24.517 -11.610  0.00  0.00    +0.387 N 
ATOM      6  C   UNL     1      34.388 -23.564 -13.258  0.00  0.00    +0.001 C 
ATOM      7  C   UNL     1      35.584 -23.291 -14.159  0.00  0.00    -0.029 C 
ATOM      8  C   UNL     1      34.667 -24.705 -12.259  0.00  0.00    -0.077 C 
ATOM      9  C   UNL     1      36.855 -23.792 -13.813  0.00  0.00    -0.048 C 
ATOM     10  C   UNL     1      37.039 -24.661 -12.594  0.00  0.00    -0.055 C 
ATOM     11  C   UNL     1      35.468 -22.476 -15.298  0.00  0.00    +0.010 C 
ATOM     12  C   UNL     1      37.960 -23.524 -14.634  0.00  0.00    -0.005 C 
ATOM     13  C   UNL     1      36.578 -22.206 -16.100  0.00  0.00    +0.050 C 
ATOM     14  C   UNL     1      37.822 -22.735 -15.772  0.00  0.00    +0.014 C 
ATOM     15  H   UNL     1      36.079 -25.217 -10.877  0.00  0.00    -0.084 HD
ATOM     16  H   UNL     1      36.003 -23.581 -11.205  0.00  0.00    -0.084 HD
BRANCH   6  17
ATOM     17  C   UNL     1      33.102 -23.891 -14.025  0.00  0.00    +0.002 C 
ATOM     18  C   UNL     1      31.947 -23.039 -13.544  0.00  0.00    +0.000 C 
ENDBRANCH   6  17
ENDBRANCH   2  13
BRANCH   3  19
ATOM     19  C   UNL     1      35.824 -20.652 -19.474  0.00  0.00    +0.054 C 
ATOM     20  C   UNL     1      34.796 -19.542 -21.344  0.00  0.00    +0.000 C 
ATOM     21  C   UNL     1      35.911 -18.673 -21.420  0.00  0.00    +0.000 C 
ATOM     22  C   UNL     1      34.768 -20.538 -20.353  0.00  0.00    +0.005 C 
ATOM     23  C   UNL     1      36.920 -19.820 -19.526  0.00  0.00    +0.005 C 
ATOM     24  C   UNL     1      36.965 -18.826 -20.504  0.00  0.00    +0.000 C 
ATOM     25  C   UNL     1      35.941 -17.678 -22.411  0.00  0.00    +0.003 C 
ATOM     26  C   UNL     1      33.744 -19.390 -22.261  0.00  0.00    +0.000 C 
ATOM     27  C   UNL     1      34.886 -17.542 -23.314  0.00  0.00    +0.031 C 
ATOM     28  C   UNL     1      33.789 -18.396 -23.238  0.00  0.00    +0.003 C 
BRANCH  27  31
ATOM     29  N   UNL     1      35.716 -15.366 -24.174  0.00  0.00    -0.343 N 
ATOM     30  N   UNL     1      34.216 -16.636 -25.435  0.00  0.00    -0.285 NA
ATOM     31  C   UNL     1      34.931 -16.506 -24.333  0.00  0.00    +0.117 C 
ATOM     32  H   UNL     1      35.732 -14.677 -24.877  0.00  0.00    +0.144 HD
ATOM     33  H   UNL     1      36.255 -15.248 -23.358  0.00  0.00    +0.144 HD
ATOM     34  H   UNL     1      34.245 -15.936 -26.127  0.00  0.00    +0.188 HD
ENDBRANCH  27  31
ENDBRANCH   3  19
TORSDOF 4
ENDMDL
MODEL 4
REMARK VINA RESULT:     -11.3      0.734      1.646
REMARK  Name = 447731
REMARK  4 active torsions:
REMARK  status: ('A' for Active; 'I' for Inactive)
REMARK    1  A    between atoms: N_2  and  C_13
REMARK    2  A    between atoms: C_3  and  C_19
REMARK    3  A    between atoms: C_6  and  C_17
REMARK    4  A    between atoms: C_27  and  C_31
REMARK                            x       y       z     vdW  Elec       q    Type
REMARK                         _______ _______ _______ _____ _____    ______ ____
ROOT
ATOM      1  O   UNL     1      34.475 -23.152 -17.787  0.00  0.00    -0.270 OA
ATOM      2  N   UNL     1      36.063 -22.014 -16.478  0.00  0.00    -0.280 N 
ATOM      3  C   UNL     1      35.271 -22.234 -17.611  0.00  0.00    +0.249 C 
ATOM      4  H   UNL     1      36.649 -21.223 -16.507  0.00  0.00    +0.155 HD
ENDROOT
BRANCH   2  13
ATOM      5  N   UNL     1      37.060 -26.384 -11.845  0.00  0.00    +0.387 N 
ATOM      6  C   UNL     1      38.290 -25.580 -13.831  0.00  0.00    +0.001 C 
ATOM      7  C   UNL     1      37.220 -24.510 -13.992  0.00  0.00    -0.029 C 
ATOM      8  C   UNL     1      38.388 -26.085 -12.377  0.00  0.00    -0.077 C 
ATOM      9  C   UNL     1      36.243 -24.336 -12.990  0.00  0.00    -0.048 C 
ATOM     10  C   UNL     1      36.283 -25.148 -11.719  0.00  0.00    -0.055 C 
ATOM     11  C   UNL     1      37.131 -23.737 -15.161  0.00  0.00    +0.010 C 
ATOM     12  C   UNL     1      35.246 -23.362 -13.147  0.00  0.00    -0.005 C 
ATOM     13  C   UNL     1      36.125 -22.779 -15.311  0.00  0.00    +0.050 C 
ATOM     14  C   UNL     1      35.188 -22.588 -14.303  0.00  0.00    +0.014 C 
ATOM     15  H   UNL     1      37.154 -26.819 -10.927  0.00  0.00    -0.084 HD
ATOM     16  H   UNL     1      36.579 -27.020 -12.481  0.00  0.00    -0.084 HD
BRANCH   6  17
ATOM     17  C   UNL     1      39.683 -25.129 -14.286  0.00  0.00    +0.002 C 
ATOM     18  C   UNL     1      40.740 -26.137 -13.889  0.00  0.00    +0.000 C 
ENDBRANCH   6  17
ENDBRANCH   2  13
BRANCH   3  19
ATOM     19  C   UNL     1      35.449 -21.253 -18.713  0.00  0.00    +0.054 C 
ATOM     20  C   UNL     1      34.522 -20.030 -20.566  0.00  0.00    +0.000 C 
ATOM     21  C   UNL     1      35.783 -19.420 -20.772  0.00  0.00    +0.000 C 
ATOM     22  C   UNL     1      34.370 -20.956 -19.520  0.00  0.00    +0.005 C 
ATOM     23  C   UNL     1      36.684 -20.674 -18.892  0.00  0.00    +0.005 C 
ATOM     24  C   UNL     1      36.854 -19.753 -19.926  0.00  0.00    +0.000 C 
ATOM     25  C   UNL     1      35.936 -18.495 -21.818  0.00  0.00    +0.003 C 
ATOM     26  C   UNL     1      33.453 -19.697 -21.412  0.00  0.00    +0.000 C 
ATOM     27  C   UNL     1      34.862 -18.176 -22.649  0.00  0.00    +0.031 C 
ATOM     28  C   UNL     1      33.622 -18.777 -22.446  0.00  0.00    +0.003 C 
BRANCH  27  31
ATOM     29  N   UNL     1      35.719 -16.019 -23.527  0.00  0.00    -0.343 N 
ATOM     30  N   UNL     1      34.540 -17.473 -24.923  0.00  0.00    -0.285 NA
ATOM     31  C   UNL     1      35.037 -17.217 -23.727  0.00  0.00    +0.117 C 
ATOM     32  H   UNL     1      35.826 -15.383 -24.271  0.00  0.00    +0.144 HD
ATOM     33  H   UNL     1      36.095 -15.807 -22.642  0.00  0.00    +0.144 HD
ATOM     34  H   UNL     1      34.656 -16.824 -25.655  0.00  0.00    +0.188 HD
ENDBRANCH  27  31
ENDBRANCH   3  19
TORSDOF 4
ENDMDL
MODEL 5
REMARK VINA RESULT:     -11.0      8.224     15.133
REMARK  Name = 447731
REMARK  4 active torsions:
REMARK  status: ('A' for Active; 'I' for Inactive)
REMARK    1  A    between atoms: N_2  and  C_13
REMARK    2  A    between atoms: C_3  and  C_19
REMARK    3  A    between atoms: C_6  and  C_17
REMARK    4  A    between atoms: C_27  and  C_31
REMARK                            x       y       z     vdW  Elec       q    Type
REMARK                         _______ _______ _______ _____ _____    ______ ____
ROOT
ATOM      1  O   UNL     1      33.456 -11.000 -24.926  0.00  0.00    -0.270 OA
ATOM      2  N   UNL     1      33.002 -10.597 -22.654  0.00  0.00    -0.280 N 
ATOM      3  C   UNL     1      33.420 -11.358 -23.754  0.00  0.00    +0.249 C 
ATOM      4  H   UNL     1      33.039 -11.046 -21.779  0.00  0.00    +0.155 HD
ENDROOT
BRANCH   2  13
ATOM      5  N   UNL     1      32.161  -4.207 -22.666  0.00  0.00    +0.387 N 
ATOM      6  C   UNL     1      33.815  -5.788 -23.596  0.00  0.00    +0.001 C 
ATOM      7  C   UNL     1      32.915  -6.920 -23.125  0.00  0.00    -0.029 C 
ATOM      8  C   UNL     1      33.032  -4.477 -23.809  0.00  0.00    -0.077 C 
ATOM      9  C   UNL     1      31.633  -6.633 -22.613  0.00  0.00    -0.048 C 
ATOM     10  C   UNL     1      31.106  -5.221 -22.592  0.00  0.00    -0.055 C 
ATOM     11  C   UNL     1      33.363  -8.251 -23.112  0.00  0.00    +0.010 C 
ATOM     12  C   UNL     1      30.810  -7.676 -22.162  0.00  0.00    -0.005 C 
ATOM     13  C   UNL     1      32.540  -9.279 -22.647  0.00  0.00    +0.050 C 
ATOM     14  C   UNL     1      31.263  -8.993 -22.179  0.00  0.00    +0.014 C 
ATOM     15  H   UNL     1      31.737  -3.285 -22.775  0.00  0.00    -0.084 HD
ATOM     16  H   UNL     1      32.714  -4.234 -21.809  0.00  0.00    -0.084 HD
BRANCH   6  17
ATOM     17  C   UNL     1      34.586  -6.109 -24.882  0.00  0.00    +0.002 C 
ATOM     18  C   UNL     1      34.981  -4.845 -25.613  0.00  0.00    +0.000 C 
ENDBRANCH   6  17
ENDBRANCH   2  13
BRANCH   3  19
ATOM     19  C   UNL     1      33.835 -12.751 -23.444  0.00  0.00    +0.054 C 
ATOM     20  C   UNL     1      34.466 -14.411 -21.821  0.00  0.00    +0.000 C 
ATOM     21  C   UNL     1      34.609 -15.355 -22.866  0.00  0.00    +0.000 C 
ATOM     22  C   UNL     1      34.073 -13.098 -22.130  0.00  0.00    +0.005 C 
ATOM     23  C   UNL     1      33.967 -13.649 -24.478  0.00  0.00    +0.005 C 
ATOM     24  C   UNL     1      34.357 -14.957 -24.190  0.00  0.00    +0.000 C 
ATOM     25  C   UNL     1      35.003 -16.667 -22.558  0.00  0.00    +0.003 C 
ATOM     26  C   UNL     1      34.719 -14.808 -20.499  0.00  0.00    +0.000 C 
ATOM     27  C   UNL     1      35.251 -17.044 -21.238  0.00  0.00    +0.031 C 
ATOM     28  C   UNL     1      35.109 -16.115 -20.210  0.00  0.00    +0.003 C 
BRANCH  27  31
ATOM     29  N   UNL     1      34.995 -19.500 -21.490  0.00  0.00    -0.343 N 
ATOM     30  N   UNL     1      36.668 -18.626 -20.116  0.00  0.00    -0.285 NA
ATOM     31  C   UNL     1      35.657 -18.407 -20.935  0.00  0.00    +0.117 C 
ATOM     32  H   UNL     1      35.286 -20.415 -21.272  0.00  0.00    +0.144 HD
ATOM     33  H   UNL     1      34.236 -19.359 -22.102  0.00  0.00    +0.144 HD
ATOM     34  H   UNL     1      36.945 -19.548 -19.909  0.00  0.00    +0.188 HD
ENDBRANCH  27  31
ENDBRANCH   3  19
TORSDOF 4
ENDMDL
MODEL 6
REMARK VINA RESULT:     -11.0      2.143     10.214
REMARK  Name = 447731
REMARK  4 active torsions:
REMARK  status: ('A' for Active; 'I' for Inactive)
REMARK    1  A    between atoms: N_2  and  C_13
REMARK    2  A    between atoms: C_3  and  C_19
REMARK    3  A    between atoms: C_6  and  C_17
REMARK    4  A    between atoms: C_27  and  C_31
REMARK                            x       y       z     vdW  Elec       q    Type
REMARK                         _______ _______ _______ _____ _____    ______ ____
ROOT
ATOM      1  O   UNL     1      32.628 -20.627 -20.269  0.00  0.00    -0.270 OA
ATOM      2  N   UNL     1      34.851 -19.903 -20.528  0.00  0.00    -0.280 N 
ATOM      3  C   UNL     1      33.806 -20.616 -19.926  0.00  0.00    +0.249 C 
ATOM      4  H   UNL     1      35.740 -20.011 -20.119  0.00  0.00    +0.155 HD
ENDROOT
BRANCH   2  13
ATOM      5  N   UNL     1      33.919 -15.179 -24.812  0.00  0.00    +0.387 N 
ATOM      6  C   UNL     1      34.271 -15.327 -22.371  0.00  0.00    +0.001 C 
ATOM      7  C   UNL     1      34.526 -16.816 -22.555  0.00  0.00    -0.029 C 
ATOM      8  C   UNL     1      34.547 -14.530 -23.662  0.00  0.00    -0.077 C 
ATOM      9  C   UNL     1      34.629 -17.357 -23.853  0.00  0.00    -0.048 C 
ATOM     10  C   UNL     1      34.562 -16.469 -25.070  0.00  0.00    -0.055 C 
ATOM     11  C   UNL     1      34.583 -17.687 -21.455  0.00  0.00    +0.010 C 
ATOM     12  C   UNL     1      34.846 -18.733 -24.022  0.00  0.00    -0.005 C 
ATOM     13  C   UNL     1      34.786 -19.057 -21.637  0.00  0.00    +0.050 C 
ATOM     14  C   UNL     1      34.924 -19.578 -22.918  0.00  0.00    +0.014 C 
ATOM     15  H   UNL     1      34.018 -14.581 -25.633  0.00  0.00    -0.084 HD
ATOM     16  H   UNL     1      32.930 -15.330 -24.613  0.00  0.00    -0.084 HD
BRANCH   6  17
ATOM     17  C   UNL     1      35.080 -14.701 -21.230  0.00  0.00    +0.002 C 
ATOM     18  C   UNL     1      34.172 -14.046 -20.211  0.00  0.00    +0.000 C 
ENDBRANCH   6  17
ENDBRANCH   2  13
BRANCH   3  19
ATOM     19  C   UNL     1      34.186 -21.416 -18.732  0.00  0.00    +0.054 C 
ATOM     20  C   UNL     1      35.846 -22.064 -17.117  0.00  0.00    +0.000 C 
ATOM     21  C   UNL     1      34.893 -22.911 -16.502  0.00  0.00    +0.000 C 
ATOM     22  C   UNL     1      35.472 -21.314 -18.244  0.00  0.00    +0.005 C 
ATOM     23  C   UNL     1      33.241 -22.232 -18.153  0.00  0.00    +0.005 C 
ATOM     24  C   UNL     1      33.594 -22.984 -17.033  0.00  0.00    +0.000 C 
ATOM     25  C   UNL     1      35.266 -23.662 -15.375  0.00  0.00    +0.003 C 
ATOM     26  C   UNL     1      37.144 -21.992 -16.586  0.00  0.00    +0.000 C 
ATOM     27  C   UNL     1      36.561 -23.578 -14.861  0.00  0.00    +0.031 C 
ATOM     28  C   UNL     1      37.497 -22.744 -15.466  0.00  0.00    +0.003 C 
BRANCH  27  31
ATOM     29  N   UNL     1      36.169 -25.452 -13.281  0.00  0.00    -0.343 N 
ATOM     30  N   UNL     1      38.008 -24.040 -13.001  0.00  0.00    -0.285 NA
ATOM     31  C   UNL     1      36.932 -24.361 -13.694  0.00  0.00    +0.117 C 
ATOM     32  H   UNL     1      36.438 -25.969 -12.488  0.00  0.00    +0.144 HD
ATOM     33  H   UNL     1      35.361 -25.707 -13.783  0.00  0.00    +0.144 HD
ATOM     34  H   UNL     1      38.261 -24.569 -12.209  0.00  0.00    +0.188 HD
ENDBRANCH  27  31
ENDBRANCH   3  19
TORSDOF 4
ENDMDL
MODEL 7
REMARK VINA RESULT:     -10.9      9.367     14.371
REMARK  Name = 447731
REMARK  4 active torsions:
REMARK  status: ('A' for Active; 'I' for Inactive)
REMARK    1  A    between atoms: N_2  and  C_13
REMARK    2  A    between atoms: C_3  and  C_19
REMARK    3  A    between atoms: C_6  and  C_17
REMARK    4  A    between atoms: C_27  and  C_31
REMARK                            x       y       z     vdW  Elec       q    Type
REMARK                         _______ _______ _______ _____ _____    ______ ____
ROOT
ATOM      1  O   UNL     1      31.912 -11.011 -21.120  0.00  0.00    -0.270 OA
ATOM      2  N   UNL     1      33.104 -10.646 -23.114  0.00  0.00    -0.280 N 
ATOM      3  C   UNL     1      32.409 -10.267 -21.959  0.00  0.00    +0.249 C 
ATOM      4  H   UNL     1      33.438  -9.912 -23.679  0.00  0.00    +0.155 HD
ENDROOT
BRANCH   2  13
ATOM      5  N   UNL     1      35.317 -16.593 -24.245  0.00  0.00    +0.387 N 
ATOM      6  C   UNL     1      35.103 -15.116 -22.277  0.00  0.00    +0.001 C 
ATOM      7  C   UNL     1      34.337 -14.142 -23.161  0.00  0.00    -0.029 C 
ATOM      8  C   UNL     1      35.032 -16.560 -22.812  0.00  0.00    -0.077 C 
ATOM      9  C   UNL     1      33.964 -14.522 -24.466  0.00  0.00    -0.048 C 
ATOM     10  C   UNL     1      34.251 -15.910 -24.981  0.00  0.00    -0.055 C 
ATOM     11  C   UNL     1      34.057 -12.834 -22.733  0.00  0.00    +0.010 C 
ATOM     12  C   UNL     1      33.274 -13.617 -25.288  0.00  0.00    -0.005 C 
ATOM     13  C   UNL     1      33.381 -11.939 -23.565  0.00  0.00    +0.050 C 
ATOM     14  C   UNL     1      32.985 -12.332 -24.838  0.00  0.00    +0.014 C 
ATOM     15  H   UNL     1      35.374 -17.564 -24.556  0.00  0.00    -0.084 HD
ATOM     16  H   UNL     1      36.203 -16.121 -24.422  0.00  0.00    -0.084 HD
BRANCH   6  17
ATOM     17  C   UNL     1      34.640 -15.114 -20.815  0.00  0.00    +0.002 C 
ATOM     18  C   UNL     1      35.055 -16.387 -20.109  0.00  0.00    +0.000 C 
ENDBRANCH   6  17
ENDBRANCH   2  13
BRANCH   3  19
ATOM     19  C   UNL     1      32.250  -8.802 -21.763  0.00  0.00    +0.054 C 
ATOM     20  C   UNL     1      31.525  -6.668 -22.604  0.00  0.00    +0.000 C 
ATOM     21  C   UNL     1      31.954  -6.065 -21.396  0.00  0.00    +0.000 C 
ATOM     22  C   UNL     1      31.682  -8.054 -22.773  0.00  0.00    +0.005 C 
ATOM     23  C   UNL     1      32.676  -8.241 -20.581  0.00  0.00    +0.005 C 
ATOM     24  C   UNL     1      32.528  -6.866 -20.395  0.00  0.00    +0.000 C 
ATOM     25  C   UNL     1      31.798  -4.680 -21.227  0.00  0.00    +0.003 C 
ATOM     26  C   UNL     1      30.952  -5.867 -23.604  0.00  0.00    +0.000 C 
ATOM     27  C   UNL     1      31.226  -3.900 -22.232  0.00  0.00    +0.031 C 
ATOM     28  C   UNL     1      30.804  -4.493 -23.419  0.00  0.00    +0.003 C 
BRANCH  27  31
ATOM     29  N   UNL     1      29.961  -1.785 -22.536  0.00  0.00    -0.343 N 
ATOM     30  N   UNL     1      31.996  -1.786 -21.390  0.00  0.00    -0.285 NA
ATOM     31  C   UNL     1      31.071  -2.467 -22.041  0.00  0.00    +0.117 C 
ATOM     32  H   UNL     1      29.876  -0.815 -22.395  0.00  0.00    +0.144 HD
ATOM     33  H   UNL     1      29.261  -2.275 -23.027  0.00  0.00    +0.144 HD
ATOM     34  H   UNL     1      31.893  -0.815 -21.259  0.00  0.00    +0.188 HD
ENDBRANCH  27  31
ENDBRANCH   3  19
TORSDOF 4
ENDMDL
MODEL 8
REMARK VINA RESULT:     -10.8      9.289     14.342
REMARK  Name = 447731
REMARK  4 active torsions:
REMARK  status: ('A' for Active; 'I' for Inactive)
REMARK    1  A    between atoms: N_2  and  C_13
REMARK    2  A    between atoms: C_3  and  C_19
REMARK    3  A    between atoms: C_6  and  C_17
REMARK    4  A    between atoms: C_27  and  C_31
REMARK                            x       y       z     vdW  Elec       q    Type
REMARK                         _______ _______ _______ _____ _____    ______ ____
ROOT
ATOM      1  O   UNL     1      32.182 -10.846 -21.664  0.00  0.00    -0.270 OA
ATOM      2  N   UNL     1      33.380 -10.818 -23.688  0.00  0.00    -0.280 N 
ATOM      3  C   UNL     1      32.708 -10.250 -22.598  0.00  0.00    +0.249 C 
ATOM      4  H   UNL     1      33.743 -10.186 -24.350  0.00  0.00    +0.155 HD
ENDROOT
BRANCH   2  13
ATOM      5  N   UNL     1      35.294 -16.968 -23.942  0.00  0.00    +0.387 N 
ATOM      6  C   UNL     1      35.114 -15.228 -22.197  0.00  0.00    +0.001 C 
ATOM      7  C   UNL     1      34.422 -14.346 -23.227  0.00  0.00    -0.029 C 
ATOM      8  C   UNL     1      34.978 -16.726 -22.536  0.00  0.00    -0.077 C 
ATOM      9  C   UNL     1      34.061 -14.880 -24.481  0.00  0.00    -0.048 C 
ATOM     10  C   UNL     1      34.283 -16.337 -24.796  0.00  0.00    -0.055 C 
ATOM     11  C   UNL     1      34.204 -12.979 -22.988  0.00  0.00    +0.010 C 
ATOM     12  C   UNL     1      33.439 -14.062 -25.436  0.00  0.00    -0.005 C 
ATOM     13  C   UNL     1      33.597 -12.172 -23.952  0.00  0.00    +0.050 C 
ATOM     14  C   UNL     1      33.209 -12.714 -25.172  0.00  0.00    +0.014 C 
ATOM     15  H   UNL     1      35.306 -17.973 -24.118  0.00  0.00    -0.084 HD
ATOM     16  H   UNL     1      36.208 -16.569 -24.154  0.00  0.00    -0.084 HD
BRANCH   6  17
ATOM     17  C   UNL     1      34.619 -15.004 -20.764  0.00  0.00    +0.002 C 
ATOM     18  C   UNL     1      34.966 -16.180 -19.876  0.00  0.00    +0.000 C 
ENDBRANCH   6  17
ENDBRANCH   2  13
BRANCH   3  19
ATOM     19  C   UNL     1      32.615  -8.766 -22.610  0.00  0.00    +0.054 C 
ATOM     20  C   UNL     1      31.438  -6.760 -21.995  0.00  0.00    +0.000 C 
ATOM     21  C   UNL     1      32.443  -5.995 -22.634  0.00  0.00    +0.000 C 
ATOM     22  C   UNL     1      31.541  -8.162 -21.991  0.00  0.00    +0.005 C 
ATOM     23  C   UNL     1      33.604  -8.045 -23.239  0.00  0.00    +0.005 C 
ATOM     24  C   UNL     1      33.519  -6.653 -23.253  0.00  0.00    +0.000 C 
ATOM     25  C   UNL     1      32.341  -4.594 -22.639  0.00  0.00    +0.003 C 
ATOM     26  C   UNL     1      30.363  -6.103 -21.378  0.00  0.00    +0.000 C 
ATOM     27  C   UNL     1      31.264  -3.957 -22.020  0.00  0.00    +0.031 C 
ATOM     28  C   UNL     1      30.277  -4.711 -21.391  0.00  0.00    +0.003 C 
BRANCH  27  31
ATOM     29  N   UNL     1      30.176  -1.849 -22.751  0.00  0.00    -0.343 N 
ATOM     30  N   UNL     1      32.050  -1.786 -21.358  0.00  0.00    -0.285 NA
ATOM     31  C   UNL     1      31.173  -2.506 -22.033  0.00  0.00    +0.117 C 
ATOM     32  H   UNL     1      30.132  -0.865 -22.746  0.00  0.00    +0.144 HD
ATOM     33  H   UNL     1      29.514  -2.368 -23.263  0.00  0.00    +0.144 HD
ATOM     34  H   UNL     1      31.990  -0.803 -21.366  0.00  0.00    +0.188 HD
ENDBRANCH  27  31
ENDBRANCH   3  19
TORSDOF 4
ENDMDL
MODEL 9
REMARK VINA RESULT:     -10.7      2.137     10.457
REMARK  Name = 447731
REMARK  4 active torsions:
REMARK  status: ('A' for Active; 'I' for Inactive)
REMARK    1  A    between atoms: N_2  and  C_13
REMARK    2  A    between atoms: C_3  and  C_19
REMARK    3  A    between atoms: C_6  and  C_17
REMARK    4  A    between atoms: C_27  and  C_31
REMARK                            x       y       z     vdW  Elec       q    Type
REMARK                         _______ _______ _______ _____ _____    ______ ____
ROOT
ATOM      1  O   UNL     1      33.224 -20.808 -20.154  0.00  0.00    -0.270 OA
ATOM      2  N   UNL     1      35.278 -19.742 -20.573  0.00  0.00    -0.280 N 
ATOM      3  C   UNL     1      34.401 -20.591 -19.886  0.00  0.00    +0.249 C 
ATOM      4  H   UNL     1      36.195 -19.687 -20.217  0.00  0.00    +0.155 HD
ENDROOT
BRANCH   2  13
ATOM      5  N   UNL     1      33.507 -15.301 -24.896  0.00  0.00    +0.387 N 
ATOM      6  C   UNL     1      34.223 -15.300 -22.531  0.00  0.00    +0.001 C 
ATOM      7  C   UNL     1      34.516 -16.786 -22.678  0.00  0.00    -0.029 C 
ATOM      8  C   UNL     1      34.268 -14.566 -23.887  0.00  0.00    -0.077 C 
ATOM      9  C   UNL     1      34.450 -17.394 -23.948  0.00  0.00    -0.048 C 
ATOM     10  C   UNL     1      34.164 -16.578 -25.184  0.00  0.00    -0.055 C 
ATOM     11  C   UNL     1      34.775 -17.592 -21.557  0.00  0.00    +0.010 C 
ATOM     12  C   UNL     1      34.703 -18.768 -24.080  0.00  0.00    -0.005 C 
ATOM     13  C   UNL     1      35.012 -18.961 -21.700  0.00  0.00    +0.050 C 
ATOM     14  C   UNL     1      34.981 -19.547 -22.960  0.00  0.00    +0.014 C 
ATOM     15  H   UNL     1      33.456 -14.746 -25.751  0.00  0.00    -0.084 HD
ATOM     16  H   UNL     1      32.566 -15.479 -24.543  0.00  0.00    -0.084 HD
BRANCH   6  17
ATOM     17  C   UNL     1      35.162 -14.581 -21.556  0.00  0.00    +0.002 C 
ATOM     18  C   UNL     1      34.422 -14.134 -20.314  0.00  0.00    +0.000 C 
ENDBRANCH   6  17
ENDBRANCH   2  13
BRANCH   3  19
ATOM     19  C   UNL     1      34.975 -21.271 -18.695  0.00  0.00    +0.054 C 
ATOM     20  C   UNL     1      34.670 -22.670 -16.762  0.00  0.00    +0.000 C 
ATOM     21  C   UNL     1      36.050 -22.541 -16.471  0.00  0.00    +0.000 C 
ATOM     22  C   UNL     1      34.143 -22.021 -17.891  0.00  0.00    +0.005 C 
ATOM     23  C   UNL     1      36.320 -21.130 -18.435  0.00  0.00    +0.005 C 
ATOM     24  C   UNL     1      36.860 -21.767 -17.318  0.00  0.00    +0.000 C 
ATOM     25  C   UNL     1      36.577 -23.188 -15.342  0.00  0.00    +0.003 C 
ATOM     26  C   UNL     1      33.859 -23.443 -15.916  0.00  0.00    +0.000 C 
ATOM     27  C   UNL     1      35.757 -23.953 -14.512  0.00  0.00    +0.031 C 
ATOM     28  C   UNL     1      34.400 -24.079 -14.799  0.00  0.00    +0.003 C 
BRANCH  27  31
ATOM     29  N   UNL     1      37.664 -24.978 -13.297  0.00  0.00    -0.343 N 
ATOM     30  N   UNL     1      35.548 -24.893 -12.312  0.00  0.00    -0.285 NA
ATOM     31  C   UNL     1      36.319 -24.617 -13.347  0.00  0.00    +0.117 C 
ATOM     32  H   UNL     1      38.024 -25.427 -12.499  0.00  0.00    +0.144 HD
ATOM     33  H   UNL     1      38.255 -24.783 -14.061  0.00  0.00    +0.144 HD
ATOM     34  H   UNL     1      35.926 -25.344 -11.522  0.00  0.00    +0.188 HD
ENDBRANCH  27  31
ENDBRANCH   3  19
TORSDOF 4
ENDMDL
