MODEL 1
REMARK VINA RESULT:     -12.0      0.000      0.000
REMARK  Name = 448942
REMARK  8 active torsions:
REMARK  status: ('A' for Active; 'I' for Inactive)
REMARK    1  A    between atoms: C_2  and  C_20
REMARK    2  A    between atoms: C_3  and  C_6
REMARK    3  A    between atoms: C_7  and  C_13
REMARK    4  A    between atoms: N_19  and  C_22
REMARK    5  A    between atoms: C_22  and  C_23
REMARK    6  A    between atoms: C_22  and  C_29
REMARK    7  A    between atoms: C_29  and  C_31
REMARK    8  A    between atoms: C_31  and  O_32
REMARK                            x       y       z     vdW  Elec       q    Type
REMARK                         _______ _______ _______ _____ _____    ______ ____
ROOT
ATOM      1  S   UNL     1      34.824 -23.200 -16.631  0.00  0.00    -0.082 S 
ATOM      2  C   UNL     1      36.276 -22.336 -16.525  0.00  0.00    +0.083 C 
ATOM      3  C   UNL     1      35.351 -21.406 -18.394  0.00  0.00    +0.007 C 
ATOM      4  C   UNL     1      36.459 -21.417 -17.498  0.00  0.00    +0.012 C 
ATOM      5  C   UNL     1      34.391 -22.327 -18.039  0.00  0.00    +0.036 C 
ENDROOT
BRANCH   3   6
ATOM      6  C   UNL     1      35.179 -20.569 -19.551  0.00  0.00    +0.001 C 
ATOM      7  C   UNL     1      34.844 -18.945 -21.792  0.00  0.00    +0.000 C 
ATOM      8  C   UNL     1      36.276 -19.908 -20.100  0.00  0.00    +0.000 C 
ATOM      9  C   UNL     1      33.914 -20.420 -20.119  0.00  0.00    +0.000 C 
ATOM     10  C   UNL     1      36.109 -19.095 -21.222  0.00  0.00    +0.000 C 
ATOM     11  C   UNL     1      33.748 -19.607 -21.240  0.00  0.00    +0.000 C 
BRANCH   7  13
ATOM     12  N   UNL     1      34.334 -16.469 -25.198  0.00  0.00    -0.242 NA
ATOM     13  C   UNL     1      34.671 -18.102 -22.954  0.00  0.00    +0.003 C 
ATOM     14  C   UNL     1      35.275 -16.851 -23.004  0.00  0.00    +0.021 C 
ATOM     15  C   UNL     1      33.897 -18.537 -24.025  0.00  0.00    +0.021 C 
ATOM     16  C   UNL     1      35.078 -16.080 -24.138  0.00  0.00    +0.099 C 
ATOM     17  C   UNL     1      33.761 -17.691 -25.113  0.00  0.00    +0.099 C 
ENDBRANCH   7  13
ENDBRANCH   3   6
BRANCH   2  20
ATOM     18  O   UNL     1      37.930 -21.811 -14.912  0.00  0.00    -0.270 OA
ATOM     19  N   UNL     1      37.170 -23.977 -14.984  0.00  0.00    -0.298 N 
ATOM     20  C   UNL     1      37.184 -22.653 -15.414  0.00  0.00    +0.252 C 
ATOM     21  H   UNL     1      36.556 -24.613 -15.418  0.00  0.00    +0.150 HD
BRANCH  19  22
ATOM     22  C   UNL     1      38.030 -24.449 -13.920  0.00  0.00    +0.105 C 
BRANCH  22  23
ATOM     23  C   UNL     1      37.346 -24.272 -12.579  0.00  0.00    -0.004 C 
ATOM     24  C   UNL     1      36.354 -25.161 -12.208  0.00  0.00    -0.003 C 
ATOM     25  C   UNL     1      37.729 -23.226 -11.760  0.00  0.00    -0.003 C 
ATOM     26  C   UNL     1      35.724 -24.999 -10.974  0.00  0.00    -0.000 C 
ATOM     27  C   UNL     1      37.100 -23.063 -10.527  0.00  0.00    -0.000 C 
ATOM     28  C   UNL     1      36.096 -23.949 -10.134  0.00  0.00    -0.000 C 
ENDBRANCH  22  23
BRANCH  22  29
ATOM     29  C   UNL     1      38.476 -25.895 -14.198  0.00  0.00    +0.133 C 
BRANCH  29  31
ATOM     30  O   UNL     1      40.761 -26.342 -13.474  0.00  0.00    -0.250 OA
ATOM     31  C   UNL     1      39.974 -26.040 -14.360  0.00  0.00    +0.316 C 
BRANCH  31  32
ATOM     32  O   UNL     1      40.366 -25.765 -15.633  0.00  0.00    -0.480 OA
ATOM     33  H   UNL     1      40.880 -25.003 -15.810  0.00  0.00    +0.295 HD
ENDBRANCH  31  32
ENDBRANCH  29  31
ENDBRANCH  22  29
ENDBRANCH  19  22
ENDBRANCH   2  20
TORSDOF 8
ENDMDL
MODEL 2
REMARK VINA RESULT:     -11.2      7.410     11.440
REMARK  Name = 448942
REMARK  8 active torsions:
REMARK  status: ('A' for Active; 'I' for Inactive)
REMARK    1  A    between atoms: C_2  and  C_20
REMARK    2  A    between atoms: C_3  and  C_6
REMARK    3  A    between atoms: C_7  and  C_13
REMARK    4  A    between atoms: N_19  and  C_22
REMARK    5  A    between atoms: C_22  and  C_23
REMARK    6  A    between atoms: C_22  and  C_29
REMARK    7  A    between atoms: C_29  and  C_31
REMARK    8  A    between atoms: C_31  and  O_32
REMARK                            x       y       z     vdW  Elec       q    Type
REMARK                         _______ _______ _______ _____ _____    ______ ____
ROOT
ATOM      1  S   UNL     1      33.384 -14.600 -20.455  0.00  0.00    -0.082 S 
ATOM      2  C   UNL     1      34.112 -14.355 -21.964  0.00  0.00    +0.083 C 
ATOM      3  C   UNL     1      33.088 -12.340 -21.642  0.00  0.00    +0.007 C 
ATOM      4  C   UNL     1      33.897 -13.136 -22.504  0.00  0.00    +0.012 C 
ATOM      5  C   UNL     1      32.738 -13.014 -20.494  0.00  0.00    +0.036 C 
ENDROOT
BRANCH   3   6
ATOM      6  C   UNL     1      32.645 -10.991 -21.870  0.00  0.00    +0.001 C 
ATOM      7  C   UNL     1      31.787  -8.375 -22.309  0.00  0.00    +0.000 C 
ATOM      8  C   UNL     1      33.115 -10.281 -22.973  0.00  0.00    +0.000 C 
ATOM      9  C   UNL     1      31.747 -10.395 -20.985  0.00  0.00    +0.000 C 
ATOM     10  C   UNL     1      32.686  -8.972 -23.193  0.00  0.00    +0.000 C 
ATOM     11  C   UNL     1      31.319  -9.086 -21.205  0.00  0.00    +0.000 C 
BRANCH   7  13
ATOM     12  N   UNL     1      30.490  -4.392 -22.976  0.00  0.00    -0.242 NA
ATOM     13  C   UNL     1      31.344  -7.017 -22.536  0.00  0.00    +0.003 C 
ATOM     14  C   UNL     1      31.349  -6.487 -23.821  0.00  0.00    +0.021 C 
ATOM     15  C   UNL     1      30.912  -6.235 -21.470  0.00  0.00    +0.021 C 
ATOM     16  C   UNL     1      30.916  -5.182 -23.987  0.00  0.00    +0.099 C 
ATOM     17  C   UNL     1      30.499  -4.941 -21.740  0.00  0.00    +0.099 C 
ENDBRANCH   7  13
ENDBRANCH   3   6
BRANCH   2  20
ATOM     18  O   UNL     1      35.855 -15.270 -23.283  0.00  0.00    -0.270 OA
ATOM     19  N   UNL     1      34.457 -16.740 -22.206  0.00  0.00    -0.298 N 
ATOM     20  C   UNL     1      34.892 -15.460 -22.536  0.00  0.00    +0.252 C 
ATOM     21  H   UNL     1      33.683 -16.840 -21.606  0.00  0.00    +0.150 HD
BRANCH  19  22
ATOM     22  C   UNL     1      35.105 -17.929 -22.717  0.00  0.00    +0.105 C 
BRANCH  22  23
ATOM     23  C   UNL     1      35.537 -18.822 -21.570  0.00  0.00    -0.004 C 
ATOM     24  C   UNL     1      36.826 -18.710 -21.081  0.00  0.00    -0.003 C 
ATOM     25  C   UNL     1      34.634 -19.726 -21.044  0.00  0.00    -0.003 C 
ATOM     26  C   UNL     1      37.224 -19.531 -20.026  0.00  0.00    -0.000 C 
ATOM     27  C   UNL     1      35.032 -20.547 -19.990  0.00  0.00    -0.000 C 
ATOM     28  C   UNL     1      36.328 -20.451 -19.481  0.00  0.00    -0.000 C 
ENDBRANCH  22  23
BRANCH  22  29
ATOM     29  C   UNL     1      34.194 -18.634 -23.737  0.00  0.00    +0.133 C 
BRANCH  29  31
ATOM     30  O   UNL     1      32.521 -17.662 -25.221  0.00  0.00    -0.250 OA
ATOM     31  C   UNL     1      33.675 -17.709 -24.818  0.00  0.00    +0.316 C 
BRANCH  31  32
ATOM     32  O   UNL     1      34.667 -16.930 -25.325  0.00  0.00    -0.480 OA
ATOM     33  H   UNL     1      35.169 -16.383 -24.755  0.00  0.00    +0.295 HD
ENDBRANCH  31  32
ENDBRANCH  29  31
ENDBRANCH  22  29
ENDBRANCH  19  22
ENDBRANCH   2  20
TORSDOF 8
ENDMDL
MODEL 3
REMARK VINA RESULT:     -11.0      1.792      3.031
REMARK  Name = 448942
REMARK  8 active torsions:
REMARK  status: ('A' for Active; 'I' for Inactive)
REMARK    1  A    between atoms: C_2  and  C_20
REMARK    2  A    between atoms: C_3  and  C_6
REMARK    3  A    between atoms: C_7  and  C_13
REMARK    4  A    between atoms: N_19  and  C_22
REMARK    5  A    between atoms: C_22  and  C_23
REMARK    6  A    between atoms: C_22  and  C_29
REMARK    7  A    between atoms: C_29  and  C_31
REMARK    8  A    between atoms: C_31  and  O_32
REMARK                            x       y       z     vdW  Elec       q    Type
REMARK                         _______ _______ _______ _____ _____    ______ ____
ROOT
ATOM      1  S   UNL     1      33.940 -23.555 -16.239  0.00  0.00    -0.082 S 
ATOM      2  C   UNL     1      35.455 -22.820 -16.061  0.00  0.00    +0.083 C 
ATOM      3  C   UNL     1      34.712 -21.829 -17.979  0.00  0.00    +0.007 C 
ATOM      4  C   UNL     1      35.767 -21.929 -17.027  0.00  0.00    +0.012 C 
ATOM      5  C   UNL     1      33.657 -22.660 -17.671  0.00  0.00    +0.036 C 
ENDROOT
BRANCH   3   6
ATOM      6  C   UNL     1      34.673 -20.990 -19.147  0.00  0.00    +0.001 C 
ATOM      7  C   UNL     1      34.596 -19.363 -21.409  0.00  0.00    +0.000 C 
ATOM      8  C   UNL     1      35.858 -20.503 -19.693  0.00  0.00    +0.000 C 
ATOM      9  C   UNL     1      33.448 -20.666 -19.729  0.00  0.00    +0.000 C 
ATOM     10  C   UNL     1      35.821 -19.689 -20.825  0.00  0.00    +0.000 C 
ATOM     11  C   UNL     1      33.411 -19.851 -20.861  0.00  0.00    +0.000 C 
BRANCH   7  13
ATOM     12  N   UNL     1      34.480 -16.882 -24.847  0.00  0.00    -0.242 NA
ATOM     13  C   UNL     1      34.557 -18.518 -22.582  0.00  0.00    +0.003 C 
ATOM     14  C   UNL     1      35.239 -17.307 -22.591  0.00  0.00    +0.021 C 
ATOM     15  C   UNL     1      33.836 -18.912 -23.704  0.00  0.00    +0.021 C 
ATOM     16  C   UNL     1      35.170 -16.532 -23.738  0.00  0.00    +0.099 C 
ATOM     17  C   UNL     1      33.829 -18.065 -24.800  0.00  0.00    +0.099 C 
ENDBRANCH   7  13
ENDBRANCH   3   6
BRANCH   2  20
ATOM     18  O   UNL     1      37.374 -22.701 -14.678  0.00  0.00    -0.270 OA
ATOM     19  N   UNL     1      35.738 -24.203 -14.093  0.00  0.00    -0.298 N 
ATOM     20  C   UNL     1      36.273 -23.206 -14.904  0.00  0.00    +0.252 C 
ATOM     21  H   UNL     1      34.854 -24.575 -14.315  0.00  0.00    +0.150 HD
BRANCH  19  22
ATOM     22  C   UNL     1      36.440 -24.710 -12.933  0.00  0.00    +0.105 C 
BRANCH  22  23
ATOM     23  C   UNL     1      37.830 -25.172 -13.326  0.00  0.00    -0.004 C 
ATOM     24  C   UNL     1      38.928 -24.581 -12.729  0.00  0.00    -0.003 C 
ATOM     25  C   UNL     1      37.965 -26.172 -14.271  0.00  0.00    -0.003 C 
ATOM     26  C   UNL     1      40.207 -25.006 -13.090  0.00  0.00    -0.000 C 
ATOM     27  C   UNL     1      39.243 -26.596 -14.632  0.00  0.00    -0.000 C 
ATOM     28  C   UNL     1      40.364 -26.012 -14.042  0.00  0.00    -0.000 C 
ENDBRANCH  22  23
BRANCH  22  29
ATOM     29  C   UNL     1      36.435 -23.661 -11.808  0.00  0.00    +0.133 C 
BRANCH  29  31
ATOM     30  O   UNL     1      36.374 -23.898  -9.381  0.00  0.00    -0.250 OA
ATOM     31  C   UNL     1      35.941 -24.204 -10.484  0.00  0.00    +0.316 C 
BRANCH  31  32
ATOM     32  O   UNL     1      34.949 -25.117 -10.660  0.00  0.00    -0.480 OA
ATOM     33  H   UNL     1      34.855 -25.552 -11.483  0.00  0.00    +0.295 HD
ENDBRANCH  31  32
ENDBRANCH  29  31
ENDBRANCH  22  29
ENDBRANCH  19  22
ENDBRANCH   2  20
TORSDOF 8
ENDMDL
MODEL 4
REMARK VINA RESULT:     -10.3      8.527     15.210
REMARK  Name = 448942
REMARK  8 active torsions:
REMARK  status: ('A' for Active; 'I' for Inactive)
REMARK    1  A    between atoms: C_2  and  C_20
REMARK    2  A    between atoms: C_3  and  C_6
REMARK    3  A    between atoms: C_7  and  C_13
REMARK    4  A    between atoms: N_19  and  C_22
REMARK    5  A    between atoms: C_22  and  C_23
REMARK    6  A    between atoms: C_22  and  C_29
REMARK    7  A    between atoms: C_29  and  C_31
REMARK    8  A    between atoms: C_31  and  O_32
REMARK                            x       y       z     vdW  Elec       q    Type
REMARK                         _______ _______ _______ _____ _____    ______ ____
ROOT
ATOM      1  S   UNL     1      33.731 -10.982 -24.771  0.00  0.00    -0.082 S 
ATOM      2  C   UNL     1      33.405 -10.678 -23.138  0.00  0.00    +0.083 C 
ATOM      3  C   UNL     1      34.073 -12.859 -23.050  0.00  0.00    +0.007 C 
ATOM      4  C   UNL     1      33.616 -11.728 -22.315  0.00  0.00    +0.012 C 
ATOM      5  C   UNL     1      34.180 -12.592 -24.397  0.00  0.00    +0.036 C 
ENDROOT
BRANCH   3   6
ATOM      6  C   UNL     1      34.404 -14.158 -22.527  0.00  0.00    +0.001 C 
ATOM      7  C   UNL     1      35.043 -16.674 -21.512  0.00  0.00    +0.000 C 
ATOM      8  C   UNL     1      34.600 -15.229 -23.397  0.00  0.00    +0.000 C 
ATOM      9  C   UNL     1      34.527 -14.342 -21.150  0.00  0.00    +0.000 C 
ATOM     10  C   UNL     1      34.919 -16.488 -22.889  0.00  0.00    +0.000 C 
ATOM     11  C   UNL     1      34.846 -15.601 -20.643  0.00  0.00    +0.000 C 
BRANCH   7  13
ATOM     12  N   UNL     1      36.012 -20.505 -19.971  0.00  0.00    -0.242 NA
ATOM     13  C   UNL     1      35.373 -17.980 -20.986  0.00  0.00    +0.003 C 
ATOM     14  C   UNL     1      36.696 -18.309 -20.715  0.00  0.00    +0.021 C 
ATOM     15  C   UNL     1      34.369 -18.913 -20.750  0.00  0.00    +0.021 C 
ATOM     16  C   UNL     1      36.961 -19.573 -20.213  0.00  0.00    +0.099 C 
ATOM     17  C   UNL     1      34.737 -20.149 -20.247  0.00  0.00    +0.099 C 
ENDBRANCH   7  13
ENDBRANCH   3   6
BRANCH   2  20
ATOM     18  O   UNL     1      31.745  -9.020 -22.812  0.00  0.00    -0.270 OA
ATOM     19  N   UNL     1      33.927  -8.430 -22.402  0.00  0.00    -0.298 N 
ATOM     20  C   UNL     1      32.936  -9.335 -22.771  0.00  0.00    +0.252 C 
ATOM     21  H   UNL     1      34.864  -8.730 -22.386  0.00  0.00    +0.150 HD
BRANCH  19  22
ATOM     22  C   UNL     1      33.623  -7.061 -22.044  0.00  0.00    +0.105 C 
BRANCH  22  23
ATOM     23  C   UNL     1      33.373  -6.238 -23.293  0.00  0.00    -0.004 C 
ATOM     24  C   UNL     1      34.443  -5.904 -24.103  0.00  0.00    -0.003 C 
ATOM     25  C   UNL     1      32.082  -5.842 -23.591  0.00  0.00    -0.003 C 
ATOM     26  C   UNL     1      34.213  -5.146 -25.252  0.00  0.00    -0.000 C 
ATOM     27  C   UNL     1      31.852  -5.085 -24.739  0.00  0.00    -0.000 C 
ATOM     28  C   UNL     1      32.918  -4.736 -25.569  0.00  0.00    -0.000 C 
ENDBRANCH  22  23
BRANCH  22  29
ATOM     29  C   UNL     1      32.461  -7.021 -21.037  0.00  0.00    +0.133 C 
BRANCH  29  31
ATOM     30  O   UNL     1      32.264  -8.474 -19.088  0.00  0.00    -0.250 OA
ATOM     31  C   UNL     1      32.831  -7.560 -19.671  0.00  0.00    +0.316 C 
BRANCH  31  32
ATOM     32  O   UNL     1      33.880  -6.880 -19.136  0.00  0.00    -0.480 OA
ATOM     33  H   UNL     1      34.209  -6.115 -19.564  0.00  0.00    +0.295 HD
ENDBRANCH  31  32
ENDBRANCH  29  31
ENDBRANCH  22  29
ENDBRANCH  19  22
ENDBRANCH   2  20
TORSDOF 8
ENDMDL
MODEL 5
REMARK VINA RESULT:     -10.2      5.853     12.264
REMARK  Name = 448942
REMARK  8 active torsions:
REMARK  status: ('A' for Active; 'I' for Inactive)
REMARK    1  A    between atoms: C_2  and  C_20
REMARK    2  A    between atoms: C_3  and  C_6
REMARK    3  A    between atoms: C_7  and  C_13
REMARK    4  A    between atoms: N_19  and  C_22
REMARK    5  A    between atoms: C_22  and  C_23
REMARK    6  A    between atoms: C_22  and  C_29
REMARK    7  A    between atoms: C_29  and  C_31
REMARK    8  A    between atoms: C_31  and  O_32
REMARK                            x       y       z     vdW  Elec       q    Type
REMARK                         _______ _______ _______ _____ _____    ______ ____
ROOT
ATOM      1  S   UNL     1      34.221 -17.856 -24.776  0.00  0.00    -0.082 S 
ATOM      2  C   UNL     1      34.204 -16.638 -23.600  0.00  0.00    +0.083 C 
ATOM      3  C   UNL     1      34.653 -18.475 -22.319  0.00  0.00    +0.007 C 
ATOM      4  C   UNL     1      34.441 -17.065 -22.341  0.00  0.00    +0.012 C 
ATOM      5  C   UNL     1      34.560 -19.030 -23.576  0.00  0.00    +0.036 C 
ENDROOT
BRANCH   3   6
ATOM      6  C   UNL     1      34.932 -19.292 -21.170  0.00  0.00    +0.001 C 
ATOM      7  C   UNL     1      35.476 -20.876 -18.941  0.00  0.00    +0.000 C 
ATOM      8  C   UNL     1      33.911 -20.032 -20.577  0.00  0.00    +0.000 C 
ATOM      9  C   UNL     1      36.226 -19.341 -20.650  0.00  0.00    +0.000 C 
ATOM     10  C   UNL     1      34.182 -20.824 -19.462  0.00  0.00    +0.000 C 
ATOM     11  C   UNL     1      36.496 -20.134 -19.534  0.00  0.00    +0.000 C 
BRANCH   7  13
ATOM     12  N   UNL     1      36.298 -23.279 -15.544  0.00  0.00    -0.242 NA
ATOM     13  C   UNL     1      35.757 -21.696 -17.783  0.00  0.00    +0.003 C 
ATOM     14  C   UNL     1      34.771 -22.526 -17.261  0.00  0.00    +0.021 C 
ATOM     15  C   UNL     1      37.013 -21.656 -17.187  0.00  0.00    +0.021 C 
ATOM     16  C   UNL     1      35.089 -23.291 -16.150  0.00  0.00    +0.099 C 
ATOM     17  C   UNL     1      37.230 -22.460 -16.080  0.00  0.00    +0.099 C 
ENDBRANCH   7  13
ENDBRANCH   3   6
BRANCH   2  20
ATOM     18  O   UNL     1      34.070 -14.911 -25.216  0.00  0.00    -0.270 OA
ATOM     19  N   UNL     1      33.563 -14.370 -23.043  0.00  0.00    -0.298 N 
ATOM     20  C   UNL     1      33.940 -15.262 -24.042  0.00  0.00    +0.252 C 
ATOM     21  H   UNL     1      33.473 -14.699 -22.119  0.00  0.00    +0.150 HD
BRANCH  19  22
ATOM     22  C   UNL     1      33.300 -12.974 -23.318  0.00  0.00    +0.105 C 
BRANCH  22  23
ATOM     23  C   UNL     1      32.719 -12.301 -22.089  0.00  0.00    -0.004 C 
ATOM     24  C   UNL     1      32.362 -10.967 -22.160  0.00  0.00    -0.003 C 
ATOM     25  C   UNL     1      32.561 -13.036 -20.930  0.00  0.00    -0.003 C 
ATOM     26  C   UNL     1      31.829 -10.347 -21.030  0.00  0.00    -0.000 C 
ATOM     27  C   UNL     1      32.028 -12.417 -19.800  0.00  0.00    -0.000 C 
ATOM     28  C   UNL     1      31.663 -11.071 -19.850  0.00  0.00    -0.000 C 
ENDBRANCH  22  23
BRANCH  22  29
ATOM     29  C   UNL     1      34.569 -12.289 -23.854  0.00  0.00    +0.133 C 
BRANCH  29  31
ATOM     30  O   UNL     1      34.907 -10.418 -25.380  0.00  0.00    -0.250 OA
ATOM     31  C   UNL     1      34.322 -11.452 -25.091  0.00  0.00    +0.316 C 
BRANCH  31  32
ATOM     32  O   UNL     1      33.330 -11.979 -25.857  0.00  0.00    -0.480 OA
ATOM     33  H   UNL     1      32.602 -12.406 -25.452  0.00  0.00    +0.295 HD
ENDBRANCH  31  32
ENDBRANCH  29  31
ENDBRANCH  22  29
ENDBRANCH  19  22
ENDBRANCH   2  20
TORSDOF 8
ENDMDL
MODEL 6
REMARK VINA RESULT:     -10.0      4.982     12.077
REMARK  Name = 448942
REMARK  8 active torsions:
REMARK  status: ('A' for Active; 'I' for Inactive)
REMARK    1  A    between atoms: C_2  and  C_20
REMARK    2  A    between atoms: C_3  and  C_6
REMARK    3  A    between atoms: C_7  and  C_13
REMARK    4  A    between atoms: N_19  and  C_22
REMARK    5  A    between atoms: C_22  and  C_23
REMARK    6  A    between atoms: C_22  and  C_29
REMARK    7  A    between atoms: C_29  and  C_31
REMARK    8  A    between atoms: C_31  and  O_32
REMARK                            x       y       z     vdW  Elec       q    Type
REMARK                         _______ _______ _______ _____ _____    ______ ____
ROOT
ATOM      1  S   UNL     1      34.701 -18.396 -23.388  0.00  0.00    -0.082 S 
ATOM      2  C   UNL     1      35.083 -17.292 -22.163  0.00  0.00    +0.083 C 
ATOM      3  C   UNL     1      34.970 -19.238 -20.975  0.00  0.00    +0.007 C 
ATOM      4  C   UNL     1      35.203 -17.833 -20.931  0.00  0.00    +0.012 C 
ATOM      5  C   UNL     1      34.685 -19.676 -22.249  0.00  0.00    +0.036 C 
ENDROOT
BRANCH   3   6
ATOM      6  C   UNL     1      35.007 -20.158 -19.870  0.00  0.00    +0.001 C 
ATOM      7  C   UNL     1      35.081 -21.941 -17.728  0.00  0.00    +0.000 C 
ATOM      8  C   UNL     1      33.831 -20.760 -19.426  0.00  0.00    +0.000 C 
ATOM      9  C   UNL     1      36.220 -20.446 -19.246  0.00  0.00    +0.000 C 
ATOM     10  C   UNL     1      33.867 -21.651 -18.354  0.00  0.00    +0.000 C 
ATOM     11  C   UNL     1      36.256 -21.338 -18.174  0.00  0.00    +0.000 C 
BRANCH   7  13
ATOM     12  N   UNL     1      35.188 -24.647 -14.464  0.00  0.00    -0.242 NA
ATOM     13  C   UNL     1      35.118 -22.864 -16.616  0.00  0.00    +0.003 C 
ATOM     14  C   UNL     1      33.982 -23.588 -16.272  0.00  0.00    +0.021 C 
ATOM     15  C   UNL     1      36.289 -23.031 -15.884  0.00  0.00    +0.021 C 
ATOM     16  C   UNL     1      34.068 -24.459 -15.197  0.00  0.00    +0.099 C 
ATOM     17  C   UNL     1      36.272 -23.926 -14.828  0.00  0.00    +0.099 C 
ENDBRANCH   7  13
ENDBRANCH   3   6
BRANCH   2  20
ATOM     18  O   UNL     1      36.076 -15.514 -23.375  0.00  0.00    -0.270 OA
ATOM     19  N   UNL     1      34.428 -14.979 -21.867  0.00  0.00    -0.298 N 
ATOM     20  C   UNL     1      35.248 -15.881 -22.539  0.00  0.00    +0.252 C 
ATOM     21  H   UNL     1      33.782 -15.321 -21.207  0.00  0.00    +0.150 HD
BRANCH  19  22
ATOM     22  C   UNL     1      34.496 -13.553 -22.106  0.00  0.00    +0.105 C 
BRANCH  22  23
ATOM     23  C   UNL     1      33.939 -13.227 -23.478  0.00  0.00    -0.004 C 
ATOM     24  C   UNL     1      34.143 -11.964 -24.003  0.00  0.00    -0.003 C 
ATOM     25  C   UNL     1      33.241 -14.199 -24.170  0.00  0.00    -0.003 C 
ATOM     26  C   UNL     1      33.631 -11.664 -25.265  0.00  0.00    -0.000 C 
ATOM     27  C   UNL     1      32.729 -13.899 -25.431  0.00  0.00    -0.000 C 
ATOM     28  C   UNL     1      32.923 -12.631 -25.979  0.00  0.00    -0.000 C 
ENDBRANCH  22  23
BRANCH  22  29
ATOM     29  C   UNL     1      33.805 -12.789 -20.963  0.00  0.00    +0.133 C 
BRANCH  29  31
ATOM     30  O   UNL     1      32.141 -14.182 -19.850  0.00  0.00    -0.250 OA
ATOM     31  C   UNL     1      32.414 -13.301 -20.654  0.00  0.00    +0.316 C 
BRANCH  31  32
ATOM     32  O   UNL     1      31.474 -12.674 -21.410  0.00  0.00    -0.480 OA
ATOM     33  H   UNL     1      31.574 -11.768 -21.623  0.00  0.00    +0.295 HD
ENDBRANCH  31  32
ENDBRANCH  29  31
ENDBRANCH  22  29
ENDBRANCH  19  22
ENDBRANCH   2  20
TORSDOF 8
ENDMDL
MODEL 7
REMARK VINA RESULT:      -9.8      7.175     13.152
REMARK  Name = 448942
REMARK  8 active torsions:
REMARK  status: ('A' for Active; 'I' for Inactive)
REMARK    1  A    between atoms: C_2  and  C_20
REMARK    2  A    between atoms: C_3  and  C_6
REMARK    3  A    between atoms: C_7  and  C_13
REMARK    4  A    between atoms: N_19  and  C_22
REMARK    5  A    between atoms: C_22  and  C_23
REMARK    6  A    between atoms: C_22  and  C_29
REMARK    7  A    between atoms: C_29  and  C_31
REMARK    8  A    between atoms: C_31  and  O_32
REMARK                            x       y       z     vdW  Elec       q    Type
REMARK                         _______ _______ _______ _____ _____    ______ ____
ROOT
ATOM      1  S   UNL     1      34.215 -15.285 -25.835  0.00  0.00    -0.082 S 
ATOM      2  C   UNL     1      33.880 -14.374 -24.448  0.00  0.00    +0.083 C 
ATOM      3  C   UNL     1      34.400 -16.398 -23.526  0.00  0.00    +0.007 C 
ATOM      4  C   UNL     1      34.006 -15.050 -23.285  0.00  0.00    +0.012 C 
ATOM      5  C   UNL     1      34.548 -16.660 -24.870  0.00  0.00    +0.036 C 
ENDROOT
BRANCH   3   6
ATOM      6  C   UNL     1      34.634 -17.422 -22.544  0.00  0.00    +0.001 C 
ATOM      7  C   UNL     1      35.088 -19.406 -20.639  0.00  0.00    +0.000 C 
ATOM      8  C   UNL     1      34.194 -18.723 -22.778  0.00  0.00    +0.000 C 
ATOM      9  C   UNL     1      35.301 -17.110 -21.360  0.00  0.00    +0.000 C 
ATOM     10  C   UNL     1      34.420 -19.717 -21.825  0.00  0.00    +0.000 C 
ATOM     11  C   UNL     1      35.527 -18.103 -20.407  0.00  0.00    +0.000 C 
BRANCH   7  13
ATOM     12  N   UNL     1      35.770 -22.423 -17.737  0.00  0.00    -0.242 NA
ATOM     13  C   UNL     1      35.321 -20.435 -19.650  0.00  0.00    +0.003 C 
ATOM     14  C   UNL     1      34.281 -21.267 -19.251  0.00  0.00    +0.021 C 
ATOM     15  C   UNL     1      36.585 -20.596 -19.094  0.00  0.00    +0.021 C 
ATOM     16  C   UNL     1      34.555 -22.237 -18.300  0.00  0.00    +0.099 C 
ATOM     17  C   UNL     1      36.756 -21.595 -18.150  0.00  0.00    +0.099 C 
ENDBRANCH   7  13
ENDBRANCH   3   6
BRANCH   2  20
ATOM     18  O   UNL     1      32.888 -12.574 -25.626  0.00  0.00    -0.270 OA
ATOM     19  N   UNL     1      33.883 -12.102 -23.610  0.00  0.00    -0.298 N 
ATOM     20  C   UNL     1      33.494 -12.968 -24.627  0.00  0.00    +0.252 C 
ATOM     21  H   UNL     1      34.365 -12.466 -22.832  0.00  0.00    +0.150 HD
BRANCH  19  22
ATOM     22  C   UNL     1      33.602 -10.683 -23.659  0.00  0.00    +0.105 C 
BRANCH  22  23
ATOM     23  C   UNL     1      32.791 -10.270 -22.446  0.00  0.00    -0.004 C 
ATOM     24  C   UNL     1      32.276 -11.249 -21.617  0.00  0.00    -0.003 C 
ATOM     25  C   UNL     1      32.587  -8.925 -22.200  0.00  0.00    -0.003 C 
ATOM     26  C   UNL     1      31.529 -10.869 -20.501  0.00  0.00    -0.000 C 
ATOM     27  C   UNL     1      31.841  -8.545 -21.085  0.00  0.00    -0.000 C 
ATOM     28  C   UNL     1      31.311  -9.517 -20.236  0.00  0.00    -0.000 C 
ENDBRANCH  22  23
BRANCH  22  29
ATOM     29  C   UNL     1      34.909  -9.888 -23.827  0.00  0.00    +0.133 C 
BRANCH  29  31
ATOM     30  O   UNL     1      36.014  -8.901 -25.763  0.00  0.00    -0.250 OA
ATOM     31  C   UNL     1      35.395  -9.828 -25.259  0.00  0.00    +0.316 C 
BRANCH  31  32
ATOM     32  O   UNL     1      35.034 -10.940 -25.954  0.00  0.00    -0.480 OA
ATOM     33  H   UNL     1      35.348 -11.068 -26.827  0.00  0.00    +0.295 HD
ENDBRANCH  31  32
ENDBRANCH  29  31
ENDBRANCH  22  29
ENDBRANCH  19  22
ENDBRANCH   2  20
TORSDOF 8
ENDMDL
MODEL 8
REMARK VINA RESULT:      -9.4     11.609     18.133
REMARK  Name = 448942
REMARK  8 active torsions:
REMARK  status: ('A' for Active; 'I' for Inactive)
REMARK    1  A    between atoms: C_2  and  C_20
REMARK    2  A    between atoms: C_3  and  C_6
REMARK    3  A    between atoms: C_7  and  C_13
REMARK    4  A    between atoms: N_19  and  C_22
REMARK    5  A    between atoms: C_22  and  C_23
REMARK    6  A    between atoms: C_22  and  C_29
REMARK    7  A    between atoms: C_29  and  C_31
REMARK    8  A    between atoms: C_31  and  O_32
REMARK                            x       y       z     vdW  Elec       q    Type
REMARK                         _______ _______ _______ _____ _____    ______ ____
ROOT
ATOM      1  S   UNL     1      31.573  -7.203 -20.655  0.00  0.00    -0.082 S 
ATOM      2  C   UNL     1      32.390  -6.852 -22.096  0.00  0.00    +0.083 C 
ATOM      3  C   UNL     1      32.553  -9.129 -22.044  0.00  0.00    +0.007 C 
ATOM      4  C   UNL     1      32.868  -7.933 -22.751  0.00  0.00    +0.012 C 
ATOM      5  C   UNL     1      31.852  -8.877 -20.886  0.00  0.00    +0.036 C 
ENDROOT
BRANCH   3   6
ATOM      6  C   UNL     1      32.891 -10.475 -22.423  0.00  0.00    +0.001 C 
ATOM      7  C   UNL     1      33.549 -13.083 -23.159  0.00  0.00    +0.000 C 
ATOM      8  C   UNL     1      32.413 -11.549 -21.676  0.00  0.00    +0.000 C 
ATOM      9  C   UNL     1      33.699 -10.701 -23.538  0.00  0.00    +0.000 C 
ATOM     10  C   UNL     1      32.742 -12.854 -22.043  0.00  0.00    +0.000 C 
ATOM     11  C   UNL     1      34.027 -12.006 -23.905  0.00  0.00    +0.000 C 
BRANCH   7  13
ATOM     12  N   UNL     1      34.549 -17.051 -24.272  0.00  0.00    -0.242 NA
ATOM     13  C   UNL     1      33.891 -14.435 -23.538  0.00  0.00    +0.003 C 
ATOM     14  C   UNL     1      33.398 -14.973 -24.722  0.00  0.00    +0.021 C 
ATOM     15  C   UNL     1      34.712 -15.204 -22.721  0.00  0.00    +0.021 C 
ATOM     16  C   UNL     1      33.753 -16.273 -25.042  0.00  0.00    +0.099 C 
ATOM     17  C   UNL     1      35.008 -16.494 -23.129  0.00  0.00    +0.099 C 
ENDBRANCH   7  13
ENDBRANCH   3   6
BRANCH   2  20
ATOM     18  O   UNL     1      32.332  -4.518 -21.699  0.00  0.00    -0.270 OA
ATOM     19  N   UNL     1      32.788  -5.218 -23.839  0.00  0.00    -0.298 N 
ATOM     20  C   UNL     1      32.503  -5.443 -22.495  0.00  0.00    +0.252 C 
ATOM     21  H   UNL     1      32.916  -5.991 -24.435  0.00  0.00    +0.150 HD
BRANCH  19  22
ATOM     22  C   UNL     1      32.899  -3.884 -24.388  0.00  0.00    +0.105 C 
BRANCH  22  23
ATOM     23  C   UNL     1      34.083  -3.806 -25.333  0.00  0.00    -0.004 C 
ATOM     24  C   UNL     1      34.976  -4.861 -25.378  0.00  0.00    -0.003 C 
ATOM     25  C   UNL     1      34.239  -2.684 -26.124  0.00  0.00    -0.003 C 
ATOM     26  C   UNL     1      36.065  -4.789 -26.247  0.00  0.00    -0.000 C 
ATOM     27  C   UNL     1      35.328  -2.613 -26.993  0.00  0.00    -0.000 C 
ATOM     28  C   UNL     1      36.242  -3.665 -27.053  0.00  0.00    -0.000 C 
ENDBRANCH  22  23
BRANCH  22  29
ATOM     29  C   UNL     1      31.568  -3.461 -25.032  0.00  0.00    +0.133 C 
BRANCH  29  31
ATOM     30  O   UNL     1      29.585  -2.202 -24.377  0.00  0.00    -0.250 OA
ATOM     31  C   UNL     1      30.730  -2.564 -24.146  0.00  0.00    +0.316 C 
BRANCH  31  32
ATOM     32  O   UNL     1      31.422  -2.169 -23.043  0.00  0.00    -0.480 OA
ATOM     33  H   UNL     1      31.022  -1.594 -22.422  0.00  0.00    +0.295 HD
ENDBRANCH  31  32
ENDBRANCH  29  31
ENDBRANCH  22  29
ENDBRANCH  19  22
ENDBRANCH   2  20
TORSDOF 8
ENDMDL
MODEL 9
REMARK VINA RESULT:      -9.4     11.586     18.029
REMARK  Name = 448942
REMARK  8 active torsions:
REMARK  status: ('A' for Active; 'I' for Inactive)
REMARK    1  A    between atoms: C_2  and  C_20
REMARK    2  A    between atoms: C_3  and  C_6
REMARK    3  A    between atoms: C_7  and  C_13
REMARK    4  A    between atoms: N_19  and  C_22
REMARK    5  A    between atoms: C_22  and  C_23
REMARK    6  A    between atoms: C_22  and  C_29
REMARK    7  A    between atoms: C_29  and  C_31
REMARK    8  A    between atoms: C_31  and  O_32
REMARK                            x       y       z     vdW  Elec       q    Type
REMARK                         _______ _______ _______ _____ _____    ______ ____
ROOT
ATOM      1  S   UNL     1      31.667  -7.367 -20.524  0.00  0.00    -0.082 S 
ATOM      2  C   UNL     1      32.418  -6.993 -21.995  0.00  0.00    +0.083 C 
ATOM      3  C   UNL     1      32.594  -9.269 -21.981  0.00  0.00    +0.007 C 
ATOM      4  C   UNL     1      32.871  -8.061 -22.686  0.00  0.00    +0.012 C 
ATOM      5  C   UNL     1      31.944  -9.036 -20.790  0.00  0.00    +0.036 C 
ENDROOT
BRANCH   3   6
ATOM      6  C   UNL     1      32.922 -10.607 -22.393  0.00  0.00    +0.001 C 
ATOM      7  C   UNL     1      33.559 -13.201 -23.193  0.00  0.00    +0.000 C 
ATOM      8  C   UNL     1      32.443 -11.696 -21.667  0.00  0.00    +0.000 C 
ATOM      9  C   UNL     1      33.720 -10.813 -23.519  0.00  0.00    +0.000 C 
ATOM     10  C   UNL     1      32.761 -12.994 -22.067  0.00  0.00    +0.000 C 
ATOM     11  C   UNL     1      34.038 -12.111 -23.918  0.00  0.00    +0.000 C 
BRANCH   7  13
ATOM     12  N   UNL     1      34.533 -17.147 -24.405  0.00  0.00    -0.242 NA
ATOM     13  C   UNL     1      33.890 -14.547 -23.606  0.00  0.00    +0.003 C 
ATOM     14  C   UNL     1      34.752 -15.320 -22.837  0.00  0.00    +0.021 C 
ATOM     15  C   UNL     1      33.349 -15.072 -24.775  0.00  0.00    +0.021 C 
ATOM     16  C   UNL     1      35.040 -16.603 -23.275  0.00  0.00    +0.099 C 
ATOM     17  C   UNL     1      33.700 -16.365 -25.127  0.00  0.00    +0.099 C 
ENDBRANCH   7  13
ENDBRANCH   3   6
BRANCH   2  20
ATOM     18  O   UNL     1      32.354  -4.663 -21.566  0.00  0.00    -0.270 OA
ATOM     19  N   UNL     1      32.743  -5.333 -23.729  0.00  0.00    -0.298 N 
ATOM     20  C   UNL     1      32.506  -5.578 -22.379  0.00  0.00    +0.252 C 
ATOM     21  H   UNL     1      32.857  -6.098 -24.339  0.00  0.00    +0.150 HD
BRANCH  19  22
ATOM     22  C   UNL     1      32.825  -3.991 -24.264  0.00  0.00    +0.105 C 
BRANCH  22  23
ATOM     23  C   UNL     1      33.990  -3.885 -25.229  0.00  0.00    -0.004 C 
ATOM     24  C   UNL     1      34.106  -2.758 -26.021  0.00  0.00    -0.003 C 
ATOM     25  C   UNL     1      34.907  -4.918 -25.294  0.00  0.00    -0.003 C 
ATOM     26  C   UNL     1      35.177  -2.660 -26.909  0.00  0.00    -0.000 C 
ATOM     27  C   UNL     1      35.977  -4.820 -26.182  0.00  0.00    -0.000 C 
ATOM     28  C   UNL     1      36.112  -3.691 -26.991  0.00  0.00    -0.000 C 
ENDBRANCH  22  23
BRANCH  22  29
ATOM     29  C   UNL     1      31.476  -3.581 -24.880  0.00  0.00    +0.133 C 
BRANCH  29  31
ATOM     30  O   UNL     1      29.614  -2.115 -24.303  0.00  0.00    -0.250 OA
ATOM     31  C   UNL     1      30.680  -2.636 -24.004  0.00  0.00    +0.316 C 
BRANCH  31  32
ATOM     32  O   UNL     1      31.311  -2.403 -22.823  0.00  0.00    -0.480 OA
ATOM     33  H   UNL     1      30.845  -2.501 -22.016  0.00  0.00    +0.295 HD
ENDBRANCH  31  32
ENDBRANCH  29  31
ENDBRANCH  22  29
ENDBRANCH  19  22
ENDBRANCH   2  20
TORSDOF 8
ENDMDL
