MODEL 1
REMARK VINA RESULT:     -11.7      0.000      0.000
REMARK  Name = 16720766
REMARK  7 active torsions:
REMARK  status: ('A' for Active; 'I' for Inactive)
REMARK    1  A    between atoms: N_1  and  C_10
REMARK    2  A    between atoms: C_11  and  C_17
REMARK    3  A    between atoms: C_13  and  O_15
REMARK    4  A    between atoms: C_17  and  O_18
REMARK    5  A    between atoms: O_18  and  S_19
REMARK    6  A    between atoms: S_19  and  N_22
REMARK    7  A    between atoms: N_25  and  C_27
REMARK                            x       y       z     vdW  Elec       q    Type
REMARK                         _______ _______ _______ _____ _____    ______ ____
ROOT
ATOM      1  N   UNL     1      34.417 -21.370 -19.010  0.00  0.00    -0.276 N 
ATOM      2  N   UNL     1      36.612 -20.460 -19.418  0.00  0.00    -0.233 NA
ATOM      3  N   UNL     1      36.600 -18.638 -21.032  0.00  0.00    -0.233 NA
ATOM      4  C   UNL     1      35.283 -20.503 -19.620  0.00  0.00    +0.120 C 
ATOM      5  C   UNL     1      33.141 -21.130 -19.454  0.00  0.00    +0.062 C 
ATOM      6  C   UNL     1      34.547 -19.690 -20.474  0.00  0.00    +0.131 C 
ATOM      7  C   UNL     1      33.192 -20.093 -20.362  0.00  0.00    +0.004 C 
ATOM      8  C   UNL     1      35.250 -18.719 -21.205  0.00  0.00    +0.113 C 
ATOM      9  C   UNL     1      37.185 -19.497 -20.167  0.00  0.00    +0.252 C 
ATOM     10  N   UNL     1      34.600 -17.862 -22.079  0.00  0.00    -0.319 N 
ATOM     11  H   UNL     1      33.624 -17.951 -22.176  0.00  0.00    +0.148 HD
ENDROOT
BRANCH  10  12
ATOM     12  C   UNL     1      35.270 -16.847 -22.856  0.00  0.00    +0.093 C 
ATOM     13  C   UNL     1      34.981 -17.022 -24.358  0.00  0.00    +0.029 C 
ATOM     14  C   UNL     1      34.669 -15.499 -22.598  0.00  0.00    -0.008 C 
ATOM     15  C   UNL     1      33.712 -16.208 -24.667  0.00  0.00    +0.028 C 
ATOM     16  C   UNL     1      33.792 -15.135 -23.628  0.00  0.00    -0.025 C 
ATOM     17  C   UNL     1      34.871 -14.669 -21.507  0.00  0.00    -0.003 C 
ATOM     18  C   UNL     1      33.096 -13.939 -23.584  0.00  0.00    -0.005 C 
ATOM     19  C   UNL     1      34.182 -13.455 -21.461  0.00  0.00    -0.000 C 
ATOM     20  C   UNL     1      33.300 -13.093 -22.492  0.00  0.00    -0.000 C 
ENDBRANCH  10  12
BRANCH   1  21
ATOM     21  C   UNL     1      34.781 -22.397 -18.038  0.00  0.00    +0.081 C 
ATOM     22  C   UNL     1      33.718 -22.788 -15.870  0.00  0.00    +0.061 C 
ATOM     23  C   UNL     1      33.580 -23.097 -17.366  0.00  0.00    +0.025 C 
ATOM     24  C   UNL     1      35.229 -22.663 -15.668  0.00  0.00    +0.115 C 
ATOM     25  C   UNL     1      35.669 -21.867 -16.893  0.00  0.00    +0.049 C 
BRANCH  24  26
ATOM     26  O   UNL     1      35.850 -23.942 -15.675  0.00  0.00    -0.384 OA
ATOM     27  H   UNL     1      35.945 -24.260 -14.763  0.00  0.00    +0.210 HD
ENDBRANCH  24  26
BRANCH  22  28
ATOM     28  C   UNL     1      33.045 -23.832 -14.992  0.00  0.00    +0.176 C 
BRANCH  28  29
ATOM     29  O   UNL     1      31.883 -23.262 -14.414  0.00  0.00    -0.230 OA
BRANCH  29  30
ATOM     30  S   UNL     1      31.074 -24.070 -13.243  0.00  0.00    +0.045 S 
ATOM     31  O   UNL     1      31.028 -23.237 -12.055  0.00  0.00    -0.056 OA
ATOM     32  O   UNL     1      29.842 -24.566 -13.831  0.00  0.00    -0.056 OA
BRANCH  30  33
ATOM     33  N   UNL     1      32.070 -25.424 -12.906  0.00  0.00    -0.204 NA
ATOM     34  H   UNL     1      32.280 -25.916 -13.775  0.00  0.00    +0.144 HD
ATOM     35  H   UNL     1      31.584 -26.053 -12.268  0.00  0.00    +0.144 HD
ENDBRANCH  30  33
ENDBRANCH  29  30
ENDBRANCH  28  29
ENDBRANCH  22  28
ENDBRANCH   1  21
TORSDOF 7
ENDMDL
MODEL 2
REMARK VINA RESULT:     -11.6      1.584      1.796
REMARK  Name = 16720766
REMARK  7 active torsions:
REMARK  status: ('A' for Active; 'I' for Inactive)
REMARK    1  A    between atoms: N_1  and  C_10
REMARK    2  A    between atoms: C_11  and  C_17
REMARK    3  A    between atoms: C_13  and  O_15
REMARK    4  A    between atoms: C_17  and  O_18
REMARK    5  A    between atoms: O_18  and  S_19
REMARK    6  A    between atoms: S_19  and  N_22
REMARK    7  A    between atoms: N_25  and  C_27
REMARK                            x       y       z     vdW  Elec       q    Type
REMARK                         _______ _______ _______ _____ _____    ______ ____
ROOT
ATOM      1  N   UNL     1      34.839 -21.104 -19.262  0.00  0.00    -0.276 N 
ATOM      2  N   UNL     1      36.951 -20.078 -19.810  0.00  0.00    -0.233 NA
ATOM      3  N   UNL     1      36.740 -18.287 -21.445  0.00  0.00    -0.233 NA
ATOM      4  C   UNL     1      35.617 -20.200 -19.933  0.00  0.00    +0.120 C 
ATOM      5  C   UNL     1      33.528 -20.944 -19.634  0.00  0.00    +0.062 C 
ATOM      6  C   UNL     1      34.787 -19.444 -20.753  0.00  0.00    +0.131 C 
ATOM      7  C   UNL     1      33.466 -19.922 -20.556  0.00  0.00    +0.004 C 
ATOM      8  C   UNL     1      35.390 -18.447 -21.537  0.00  0.00    +0.113 C 
ATOM      9  C   UNL     1      37.423 -19.097 -20.604  0.00  0.00    +0.252 C 
ATOM     10  N   UNL     1      34.642 -17.643 -22.383  0.00  0.00    -0.319 N 
ATOM     11  H   UNL     1      33.668 -17.788 -22.421  0.00  0.00    +0.148 HD
ENDROOT
BRANCH  10  12
ATOM     12  C   UNL     1      35.207 -16.605 -23.210  0.00  0.00    +0.093 C 
ATOM     13  C   UNL     1      34.798 -16.791 -24.683  0.00  0.00    +0.029 C 
ATOM     14  C   UNL     1      34.580 -15.279 -22.899  0.00  0.00    -0.008 C 
ATOM     15  C   UNL     1      33.478 -16.024 -24.881  0.00  0.00    +0.028 C 
ATOM     16  C   UNL     1      33.607 -14.948 -23.851  0.00  0.00    -0.025 C 
ATOM     17  C   UNL     1      34.844 -14.442 -21.827  0.00  0.00    -0.003 C 
ATOM     18  C   UNL     1      32.874 -13.778 -23.745  0.00  0.00    -0.005 C 
ATOM     19  C   UNL     1      34.118 -13.254 -21.720  0.00  0.00    -0.000 C 
ATOM     20  C   UNL     1      33.139 -12.925 -22.672  0.00  0.00    -0.000 C 
ENDBRANCH  10  12
BRANCH   1  21
ATOM     21  C   UNL     1      35.317 -22.093 -18.299  0.00  0.00    +0.081 C 
ATOM     22  C   UNL     1      34.429 -22.481 -16.053  0.00  0.00    +0.061 C 
ATOM     23  C   UNL     1      34.199 -22.830 -17.529  0.00  0.00    +0.025 C 
ATOM     24  C   UNL     1      35.944 -22.286 -15.963  0.00  0.00    +0.115 C 
ATOM     25  C   UNL     1      36.259 -21.500 -17.231  0.00  0.00    +0.049 C 
BRANCH  24  26
ATOM     26  O   UNL     1      36.620 -23.537 -15.990  0.00  0.00    -0.384 OA
ATOM     27  H   UNL     1      36.017 -24.223 -16.319  0.00  0.00    +0.210 HD
ENDBRANCH  24  26
BRANCH  22  28
ATOM     28  C   UNL     1      33.869 -23.535 -15.109  0.00  0.00    +0.176 C 
BRANCH  28  29
ATOM     29  O   UNL     1      34.214 -23.185 -13.780  0.00  0.00    -0.230 OA
BRANCH  29  30
ATOM     30  S   UNL     1      35.204 -24.158 -12.913  0.00  0.00    +0.045 S 
ATOM     31  O   UNL     1      36.494 -23.504 -12.780  0.00  0.00    -0.056 OA
ATOM     32  O   UNL     1      34.476 -24.573 -11.728  0.00  0.00    -0.056 OA
BRANCH  30  33
ATOM     33  N   UNL     1      35.408 -25.540 -13.907  0.00  0.00    -0.204 NA
ATOM     34  H   UNL     1      35.155 -25.307 -14.868  0.00  0.00    +0.144 HD
ATOM     35  H   UNL     1      34.808 -26.292 -13.571  0.00  0.00    +0.144 HD
ENDBRANCH  30  33
ENDBRANCH  29  30
ENDBRANCH  28  29
ENDBRANCH  22  28
ENDBRANCH   1  21
TORSDOF 7
ENDMDL
MODEL 3
REMARK VINA RESULT:     -10.8      6.050      9.708
REMARK  Name = 16720766
REMARK  7 active torsions:
REMARK  status: ('A' for Active; 'I' for Inactive)
REMARK    1  A    between atoms: N_1  and  C_10
REMARK    2  A    between atoms: C_11  and  C_17
REMARK    3  A    between atoms: C_13  and  O_15
REMARK    4  A    between atoms: C_17  and  O_18
REMARK    5  A    between atoms: O_18  and  S_19
REMARK    6  A    between atoms: S_19  and  N_22
REMARK    7  A    between atoms: N_25  and  C_27
REMARK                            x       y       z     vdW  Elec       q    Type
REMARK                         _______ _______ _______ _____ _____    ______ ____
ROOT
ATOM      1  N   UNL     1      33.338 -13.259 -23.242  0.00  0.00    -0.276 N 
ATOM      2  N   UNL     1      32.114 -13.169 -21.166  0.00  0.00    -0.233 NA
ATOM      3  N   UNL     1      31.578 -10.897 -20.477  0.00  0.00    -0.233 NA
ATOM      4  C   UNL     1      32.704 -12.592 -22.228  0.00  0.00    +0.120 C 
ATOM      5  C   UNL     1      33.821 -12.354 -24.153  0.00  0.00    +0.062 C 
ATOM      6  C   UNL     1      32.783 -11.231 -22.495  0.00  0.00    +0.131 C 
ATOM      7  C   UNL     1      33.491 -11.089 -23.716  0.00  0.00    +0.004 C 
ATOM      8  C   UNL     1      32.188 -10.357 -21.570  0.00  0.00    +0.113 C 
ATOM      9  C   UNL     1      31.579 -12.243 -20.346  0.00  0.00    +0.252 C 
ATOM     10  N   UNL     1      32.216  -8.983 -21.754  0.00  0.00    -0.319 N 
ATOM     11  H   UNL     1      32.665  -8.631 -22.556  0.00  0.00    +0.148 HD
ENDROOT
BRANCH  10  12
ATOM     12  C   UNL     1      31.623  -8.039 -20.837  0.00  0.00    +0.093 C 
ATOM     13  C   UNL     1      32.569  -7.748 -19.658  0.00  0.00    +0.029 C 
ATOM     14  C   UNL     1      31.518  -6.683 -21.468  0.00  0.00    -0.008 C 
ATOM     15  C   UNL     1      33.453  -6.560 -20.076  0.00  0.00    +0.028 C 
ATOM     16  C   UNL     1      32.550  -5.844 -21.030  0.00  0.00    -0.025 C 
ATOM     17  C   UNL     1      30.580  -6.241 -22.387  0.00  0.00    -0.003 C 
ATOM     18  C   UNL     1      32.670  -4.550 -21.507  0.00  0.00    -0.005 C 
ATOM     19  C   UNL     1      30.687  -4.933 -22.864  0.00  0.00    -0.000 C 
ATOM     20  C   UNL     1      31.725  -4.094 -22.428  0.00  0.00    -0.000 C 
ENDBRANCH  10  12
BRANCH   1  21
ATOM     21  C   UNL     1      33.486 -14.708 -23.348  0.00  0.00    +0.081 C 
ATOM     22  C   UNL     1      35.525 -15.995 -22.939  0.00  0.00    +0.061 C 
ATOM     23  C   UNL     1      34.330 -15.350 -22.226  0.00  0.00    +0.025 C 
ATOM     24  C   UNL     1      34.961 -16.379 -24.308  0.00  0.00    +0.115 C 
ATOM     25  C   UNL     1      34.119 -15.162 -24.679  0.00  0.00    +0.049 C 
BRANCH  24  26
ATOM     26  O   UNL     1      34.130 -17.529 -24.211  0.00  0.00    -0.384 OA
ATOM     27  H   UNL     1      33.201 -17.265 -24.312  0.00  0.00    +0.210 HD
ENDBRANCH  24  26
BRANCH  22  28
ATOM     28  C   UNL     1      36.121 -17.153 -22.152  0.00  0.00    +0.176 C 
BRANCH  28  29
ATOM     29  O   UNL     1      35.144 -17.639 -21.247  0.00  0.00    -0.230 OA
BRANCH  29  30
ATOM     30  S   UNL     1      34.907 -19.251 -21.091  0.00  0.00    +0.045 S 
ATOM     31  O   UNL     1      33.689 -19.467 -20.330  0.00  0.00    -0.056 OA
ATOM     32  O   UNL     1      35.053 -19.840 -22.410  0.00  0.00    -0.056 OA
BRANCH  30  33
ATOM     33  N   UNL     1      36.231 -19.777 -20.138  0.00  0.00    -0.204 NA
ATOM     34  H   UNL     1      36.666 -20.587 -20.579  0.00  0.00    +0.144 HD
ATOM     35  H   UNL     1      35.900 -20.033 -19.208  0.00  0.00    +0.144 HD
ENDBRANCH  30  33
ENDBRANCH  29  30
ENDBRANCH  28  29
ENDBRANCH  22  28
ENDBRANCH   1  21
TORSDOF 7
ENDMDL
MODEL 4
REMARK VINA RESULT:     -10.8      8.488     12.216
REMARK  Name = 16720766
REMARK  7 active torsions:
REMARK  status: ('A' for Active; 'I' for Inactive)
REMARK    1  A    between atoms: N_1  and  C_10
REMARK    2  A    between atoms: C_11  and  C_17
REMARK    3  A    between atoms: C_13  and  O_15
REMARK    4  A    between atoms: C_17  and  O_18
REMARK    5  A    between atoms: O_18  and  S_19
REMARK    6  A    between atoms: S_19  and  N_22
REMARK    7  A    between atoms: N_25  and  C_27
REMARK                            x       y       z     vdW  Elec       q    Type
REMARK                         _______ _______ _______ _____ _____    ______ ____
ROOT
ATOM      1  N   UNL     1      33.283 -12.584 -21.978  0.00  0.00    -0.276 N 
ATOM      2  N   UNL     1      33.268 -13.903 -23.996  0.00  0.00    -0.233 NA
ATOM      3  N   UNL     1      34.254 -16.109 -23.695  0.00  0.00    -0.233 NA
ATOM      4  C   UNL     1      33.551 -13.719 -22.693  0.00  0.00    +0.120 C 
ATOM      5  C   UNL     1      33.707 -12.748 -20.684  0.00  0.00    +0.062 C 
ATOM      6  C   UNL     1      34.160 -14.631 -21.840  0.00  0.00    +0.131 C 
ATOM      7  C   UNL     1      34.254 -14.008 -20.570  0.00  0.00    +0.004 C 
ATOM      8  C   UNL     1      34.521 -15.877 -22.379  0.00  0.00    +0.113 C 
ATOM      9  C   UNL     1      33.656 -15.127 -24.408  0.00  0.00    +0.252 C 
ATOM     10  N   UNL     1      35.132 -16.850 -21.603  0.00  0.00    -0.319 N 
ATOM     11  H   UNL     1      35.308 -16.645 -20.656  0.00  0.00    +0.148 HD
ENDROOT
BRANCH  10  12
ATOM     12  C   UNL     1      35.525 -18.145 -22.103  0.00  0.00    +0.093 C 
ATOM     13  C   UNL     1      37.056 -18.308 -22.068  0.00  0.00    +0.029 C 
ATOM     14  C   UNL     1      35.095 -19.229 -21.161  0.00  0.00    -0.008 C 
ATOM     15  C   UNL     1      37.412 -18.896 -20.692  0.00  0.00    +0.028 C 
ATOM     16  C   UNL     1      36.167 -19.659 -20.368  0.00  0.00    -0.025 C 
ATOM     17  C   UNL     1      33.830 -19.773 -21.006  0.00  0.00    -0.003 C 
ATOM     18  C   UNL     1      35.994 -20.634 -19.401  0.00  0.00    -0.005 C 
ATOM     19  C   UNL     1      33.650 -20.767 -20.042  0.00  0.00    -0.000 C 
ATOM     20  C   UNL     1      34.724 -21.194 -19.244  0.00  0.00    -0.000 C 
ENDBRANCH  10  12
BRANCH   1  21
ATOM     21  C   UNL     1      32.647 -11.376 -22.499  0.00  0.00    +0.081 C 
ATOM     22  C   UNL     1      33.534  -9.100 -22.383  0.00  0.00    +0.061 C 
ATOM     23  C   UNL     1      33.611 -10.396 -23.200  0.00  0.00    +0.025 C 
ATOM     24  C   UNL     1      32.105  -9.106 -21.838  0.00  0.00    +0.115 C 
ATOM     25  C   UNL     1      31.909 -10.560 -21.418  0.00  0.00    +0.049 C 
BRANCH  24  26
ATOM     26  O   UNL     1      31.171  -8.767 -22.855  0.00  0.00    -0.384 OA
ATOM     27  H   UNL     1      30.996  -7.813 -22.829  0.00  0.00    +0.210 HD
ENDBRANCH  24  26
BRANCH  22  28
ATOM     28  C   UNL     1      33.895  -7.870 -23.202  0.00  0.00    +0.176 C 
BRANCH  28  29
ATOM     29  O   UNL     1      33.447  -6.716 -22.512  0.00  0.00    -0.230 OA
BRANCH  29  30
ATOM     30  S   UNL     1      32.822  -5.456 -23.349  0.00  0.00    +0.045 S 
ATOM     31  O   UNL     1      32.341  -4.466 -22.403  0.00  0.00    -0.056 OA
ATOM     32  O   UNL     1      33.796  -5.082 -24.359  0.00  0.00    -0.056 OA
BRANCH  30  33
ATOM     33  N   UNL     1      31.466  -6.124 -24.157  0.00  0.00    -0.204 NA
ATOM     34  H   UNL     1      31.369  -7.107 -23.904  0.00  0.00    +0.144 HD
ATOM     35  H   UNL     1      31.598  -6.045 -25.165  0.00  0.00    +0.144 HD
ENDBRANCH  30  33
ENDBRANCH  29  30
ENDBRANCH  28  29
ENDBRANCH  22  28
ENDBRANCH   1  21
TORSDOF 7
ENDMDL
MODEL 5
REMARK VINA RESULT:     -10.6      5.538     10.048
REMARK  Name = 16720766
REMARK  7 active torsions:
REMARK  status: ('A' for Active; 'I' for Inactive)
REMARK    1  A    between atoms: N_1  and  C_10
REMARK    2  A    between atoms: C_11  and  C_17
REMARK    3  A    between atoms: C_13  and  O_15
REMARK    4  A    between atoms: C_17  and  O_18
REMARK    5  A    between atoms: O_18  and  S_19
REMARK    6  A    between atoms: S_19  and  N_22
REMARK    7  A    between atoms: N_25  and  C_27
REMARK                            x       y       z     vdW  Elec       q    Type
REMARK                         _______ _______ _______ _____ _____    ______ ____
ROOT
ATOM      1  N   UNL     1      34.247 -19.671 -20.503  0.00  0.00    -0.276 N 
ATOM      2  N   UNL     1      36.066 -20.696 -19.297  0.00  0.00    -0.233 NA
ATOM      3  N   UNL     1      35.322 -22.390 -17.716  0.00  0.00    -0.233 NA
ATOM      4  C   UNL     1      34.761 -20.548 -19.586  0.00  0.00    +0.120 C 
ATOM      5  C   UNL     1      32.881 -19.791 -20.535  0.00  0.00    +0.062 C 
ATOM      6  C   UNL     1      33.702 -21.245 -19.018  0.00  0.00    +0.131 C 
ATOM      7  C   UNL     1      32.515 -20.760 -19.625  0.00  0.00    +0.004 C 
ATOM      8  C   UNL     1      34.011 -22.206 -18.041  0.00  0.00    +0.113 C 
ATOM      9  C   UNL     1      36.250 -21.639 -18.351  0.00  0.00    +0.252 C 
ATOM     10  N   UNL     1      33.020 -22.951 -17.421  0.00  0.00    -0.319 N 
ATOM     11  H   UNL     1      32.085 -22.789 -17.684  0.00  0.00    +0.148 HD
ENDROOT
BRANCH  10  12
ATOM     12  C   UNL     1      33.280 -23.949 -16.413  0.00  0.00    +0.093 C 
ATOM     13  C   UNL     1      34.556 -23.612 -15.619  0.00  0.00    +0.029 C 
ATOM     14  C   UNL     1      32.243 -23.893 -15.332  0.00  0.00    -0.008 C 
ATOM     15  C   UNL     1      34.125 -22.736 -14.430  0.00  0.00    +0.028 C 
ATOM     16  C   UNL     1      32.725 -23.213 -14.207  0.00  0.00    -0.025 C 
ATOM     17  C   UNL     1      30.950 -24.393 -15.364  0.00  0.00    -0.003 C 
ATOM     18  C   UNL     1      31.924 -23.012 -13.096  0.00  0.00    -0.005 C 
ATOM     19  C   UNL     1      30.140 -24.205 -14.242  0.00  0.00    -0.000 C 
ATOM     20  C   UNL     1      30.623 -23.519 -13.117  0.00  0.00    -0.000 C 
ENDBRANCH  10  12
BRANCH   1  21
ATOM     21  C   UNL     1      35.022 -18.745 -21.325  0.00  0.00    +0.081 C 
ATOM     22  C   UNL     1      34.535 -16.377 -21.698  0.00  0.00    +0.061 C 
ATOM     23  C   UNL     1      35.204 -17.341 -20.710  0.00  0.00    +0.025 C 
ATOM     24  C   UNL     1      34.722 -17.066 -23.051  0.00  0.00    +0.115 C 
ATOM     25  C   UNL     1      34.423 -18.528 -22.730  0.00  0.00    +0.049 C 
BRANCH  24  26
ATOM     26  O   UNL     1      36.063 -16.937 -23.507  0.00  0.00    -0.384 OA
ATOM     27  H   UNL     1      36.091 -17.065 -24.468  0.00  0.00    +0.210 HD
ENDBRANCH  24  26
BRANCH  22  28
ATOM     28  C   UNL     1      35.106 -14.969 -21.620  0.00  0.00    +0.176 C 
BRANCH  28  29
ATOM     29  O   UNL     1      34.942 -14.340 -22.880  0.00  0.00    -0.230 OA
BRANCH  29  30
ATOM     30  S   UNL     1      33.669 -13.344 -23.134  0.00  0.00    +0.045 S 
ATOM     31  O   UNL     1      32.820 -13.370 -21.956  0.00  0.00    -0.056 OA
ATOM     32  O   UNL     1      34.196 -12.083 -23.622  0.00  0.00    -0.056 OA
BRANCH  30  33
ATOM     33  N   UNL     1      32.812 -14.083 -24.423  0.00  0.00    -0.204 NA
ATOM     34  H   UNL     1      32.202 -14.811 -24.052  0.00  0.00    +0.144 HD
ATOM     35  H   UNL     1      33.475 -14.496 -25.078  0.00  0.00    +0.144 HD
ENDBRANCH  30  33
ENDBRANCH  29  30
ENDBRANCH  28  29
ENDBRANCH  22  28
ENDBRANCH   1  21
TORSDOF 7
ENDMDL
MODEL 6
REMARK VINA RESULT:     -10.3      5.419     10.575
REMARK  Name = 16720766
REMARK  7 active torsions:
REMARK  status: ('A' for Active; 'I' for Inactive)
REMARK    1  A    between atoms: N_1  and  C_10
REMARK    2  A    between atoms: C_11  and  C_17
REMARK    3  A    between atoms: C_13  and  O_15
REMARK    4  A    between atoms: C_17  and  O_18
REMARK    5  A    between atoms: O_18  and  S_19
REMARK    6  A    between atoms: S_19  and  N_22
REMARK    7  A    between atoms: N_25  and  C_27
REMARK                            x       y       z     vdW  Elec       q    Type
REMARK                         _______ _______ _______ _____ _____    ______ ____
ROOT
ATOM      1  N   UNL     1      35.531 -20.946 -19.526  0.00  0.00    -0.276 N 
ATOM      2  N   UNL     1      33.626 -22.270 -18.868  0.00  0.00    -0.233 NA
ATOM      3  N   UNL     1      33.919 -23.346 -16.704  0.00  0.00    -0.233 NA
ATOM      4  C   UNL     1      34.857 -21.769 -18.664  0.00  0.00    +0.120 C 
ATOM      5  C   UNL     1      36.757 -20.634 -18.996  0.00  0.00    +0.062 C 
ATOM      6  C   UNL     1      35.669 -21.989 -17.558  0.00  0.00    +0.131 C 
ATOM      7  C   UNL     1      36.869 -21.266 -17.776  0.00  0.00    +0.004 C 
ATOM      8  C   UNL     1      35.164 -22.816 -16.541  0.00  0.00    +0.113 C 
ATOM      9  C   UNL     1      33.241 -23.046 -17.835  0.00  0.00    +0.252 C 
ATOM     10  N   UNL     1      35.902 -23.090 -15.400  0.00  0.00    -0.319 N 
ATOM     11  H   UNL     1      36.797 -22.687 -15.318  0.00  0.00    +0.148 HD
ENDROOT
BRANCH  10  12
ATOM     12  C   UNL     1      35.434 -23.931 -14.325  0.00  0.00    +0.093 C 
ATOM     13  C   UNL     1      35.478 -25.416 -14.729  0.00  0.00    +0.029 C 
ATOM     14  C   UNL     1      36.399 -23.912 -13.179  0.00  0.00    -0.008 C 
ATOM     15  C   UNL     1      36.870 -25.945 -14.338  0.00  0.00    +0.028 C 
ATOM     16  C   UNL     1      37.206 -25.056 -13.182  0.00  0.00    -0.025 C 
ATOM     17  C   UNL     1      36.561 -22.928 -12.216  0.00  0.00    -0.003 C 
ATOM     18  C   UNL     1      38.195 -25.236 -12.230  0.00  0.00    -0.005 C 
ATOM     19  C   UNL     1      37.548 -23.107 -11.245  0.00  0.00    -0.000 C 
ATOM     20  C   UNL     1      38.360 -24.253 -11.252  0.00  0.00    -0.000 C 
ENDBRANCH  10  12
BRANCH   1  21
ATOM     21  C   UNL     1      35.033 -20.469 -20.814  0.00  0.00    +0.081 C 
ATOM     22  C   UNL     1      35.089 -18.164 -21.630  0.00  0.00    +0.061 C 
ATOM     23  C   UNL     1      35.943 -19.432 -21.507  0.00  0.00    +0.025 C 
ATOM     24  C   UNL     1      33.663 -18.704 -21.760  0.00  0.00    +0.115 C 
ATOM     25  C   UNL     1      33.633 -19.829 -20.729  0.00  0.00    +0.049 C 
BRANCH  24  26
ATOM     26  O   UNL     1      33.438 -19.235 -23.060  0.00  0.00    -0.384 OA
ATOM     27  H   UNL     1      33.093 -20.139 -22.984  0.00  0.00    +0.210 HD
ENDBRANCH  24  26
BRANCH  22  28
ATOM     28  C   UNL     1      35.533 -17.267 -22.775  0.00  0.00    +0.176 C 
BRANCH  28  29
ATOM     29  O   UNL     1      34.446 -16.441 -23.156  0.00  0.00    -0.230 OA
BRANCH  29  30
ATOM     30  S   UNL     1      34.071 -16.266 -24.740  0.00  0.00    +0.045 S 
ATOM     31  O   UNL     1      35.287 -15.955 -25.470  0.00  0.00    -0.056 OA
ATOM     32  O   UNL     1      33.266 -17.411 -25.125  0.00  0.00    -0.056 OA
BRANCH  30  33
ATOM     33  N   UNL     1      33.059 -14.883 -24.778  0.00  0.00    -0.204 NA
ATOM     34  H   UNL     1      32.693 -14.703 -23.843  0.00  0.00    +0.144 HD
ATOM     35  H   UNL     1      32.284 -15.046 -25.420  0.00  0.00    +0.144 HD
ENDBRANCH  30  33
ENDBRANCH  29  30
ENDBRANCH  28  29
ENDBRANCH  22  28
ENDBRANCH   1  21
TORSDOF 7
ENDMDL
MODEL 7
REMARK VINA RESULT:     -10.1      1.331      1.440
REMARK  Name = 16720766
REMARK  7 active torsions:
REMARK  status: ('A' for Active; 'I' for Inactive)
REMARK    1  A    between atoms: N_1  and  C_10
REMARK    2  A    between atoms: C_11  and  C_17
REMARK    3  A    between atoms: C_13  and  O_15
REMARK    4  A    between atoms: C_17  and  O_18
REMARK    5  A    between atoms: O_18  and  S_19
REMARK    6  A    between atoms: S_19  and  N_22
REMARK    7  A    between atoms: N_25  and  C_27
REMARK                            x       y       z     vdW  Elec       q    Type
REMARK                         _______ _______ _______ _____ _____    ______ ____
ROOT
ATOM      1  N   UNL     1      33.755 -21.861 -18.472  0.00  0.00    -0.276 N 
ATOM      2  N   UNL     1      36.089 -21.423 -18.891  0.00  0.00    -0.233 NA
ATOM      3  N   UNL     1      36.446 -19.594 -20.456  0.00  0.00    -0.233 NA
ATOM      4  C   UNL     1      34.779 -21.179 -19.072  0.00  0.00    +0.120 C 
ATOM      5  C   UNL     1      32.555 -21.344 -18.889  0.00  0.00    +0.062 C 
ATOM      6  C   UNL     1      34.223 -20.205 -19.893  0.00  0.00    +0.131 C 
ATOM      7  C   UNL     1      32.815 -20.316 -19.770  0.00  0.00    +0.004 C 
ATOM      8  C   UNL     1      35.108 -19.383 -20.610  0.00  0.00    +0.113 C 
ATOM      9  C   UNL     1      36.845 -20.582 -19.623  0.00  0.00    +0.252 C 
ATOM     10  N   UNL     1      34.645 -18.384 -21.451  0.00  0.00    -0.319 N 
ATOM     11  H   UNL     1      33.672 -18.262 -21.535  0.00  0.00    +0.148 HD
ENDROOT
BRANCH  10  12
ATOM     12  C   UNL     1      35.507 -17.512 -22.211  0.00  0.00    +0.093 C 
ATOM     13  C   UNL     1      35.494 -17.889 -23.704  0.00  0.00    +0.029 C 
ATOM     14  C   UNL     1      34.948 -16.122 -22.257  0.00  0.00    -0.008 C 
ATOM     15  C   UNL     1      34.355 -17.088 -24.358  0.00  0.00    +0.028 C 
ATOM     16  C   UNL     1      34.303 -15.880 -23.477  0.00  0.00    -0.025 C 
ATOM     17  C   UNL     1      34.991 -15.152 -21.268  0.00  0.00    -0.003 C 
ATOM     18  C   UNL     1      33.682 -14.669 -23.728  0.00  0.00    -0.005 C 
ATOM     19  C   UNL     1      34.377 -13.923 -21.519  0.00  0.00    -0.000 C 
ATOM     20  C   UNL     1      33.726 -13.683 -22.740  0.00  0.00    -0.000 C 
ENDBRANCH  10  12
BRANCH   1  21
ATOM     21  C   UNL     1      33.904 -22.969 -17.532  0.00  0.00    +0.081 C 
ATOM     22  C   UNL     1      33.012 -23.075 -15.257  0.00  0.00    +0.061 C 
ATOM     23  C   UNL     1      32.629 -23.299 -16.725  0.00  0.00    +0.025 C 
ATOM     24  C   UNL     1      34.505 -23.403 -15.221  0.00  0.00    +0.115 C 
ATOM     25  C   UNL     1      35.025 -22.746 -16.497  0.00  0.00    +0.049 C 
BRANCH  24  26
ATOM     26  O   UNL     1      34.718 -24.807 -15.280  0.00  0.00    -0.384 OA
ATOM     27  H   UNL     1      34.324 -25.227 -14.499  0.00  0.00    +0.210 HD
ENDBRANCH  24  26
BRANCH  22  28
ATOM     28  C   UNL     1      32.160 -23.893 -14.298  0.00  0.00    +0.176 C 
BRANCH  28  29
ATOM     29  O   UNL     1      31.057 -23.106 -13.883  0.00  0.00    -0.230 OA
BRANCH  29  30
ATOM     30  S   UNL     1      29.682 -23.096 -14.771  0.00  0.00    +0.045 S 
ATOM     31  O   UNL     1      28.766 -22.129 -14.193  0.00  0.00    -0.056 OA
ATOM     32  O   UNL     1      30.068 -22.987 -16.166  0.00  0.00    -0.056 OA
BRANCH  30  33
ATOM     33  N   UNL     1      29.022 -24.661 -14.535  0.00  0.00    -0.204 NA
ATOM     34  H   UNL     1      28.175 -24.760 -15.094  0.00  0.00    +0.144 HD
ATOM     35  H   UNL     1      28.796 -24.789 -13.549  0.00  0.00    +0.144 HD
ENDBRANCH  30  33
ENDBRANCH  29  30
ENDBRANCH  28  29
ENDBRANCH  22  28
ENDBRANCH   1  21
TORSDOF 7
ENDMDL
MODEL 8
REMARK VINA RESULT:     -10.0      6.002      9.654
REMARK  Name = 16720766
REMARK  7 active torsions:
REMARK  status: ('A' for Active; 'I' for Inactive)
REMARK    1  A    between atoms: N_1  and  C_10
REMARK    2  A    between atoms: C_11  and  C_17
REMARK    3  A    between atoms: C_13  and  O_15
REMARK    4  A    between atoms: C_17  and  O_18
REMARK    5  A    between atoms: O_18  and  S_19
REMARK    6  A    between atoms: S_19  and  N_22
REMARK    7  A    between atoms: N_25  and  C_27
REMARK                            x       y       z     vdW  Elec       q    Type
REMARK                         _______ _______ _______ _____ _____    ______ ____
ROOT
ATOM      1  N   UNL     1      33.361 -13.642 -23.712  0.00  0.00    -0.276 N 
ATOM      2  N   UNL     1      32.285 -13.157 -21.609  0.00  0.00    -0.233 NA
ATOM      3  N   UNL     1      32.028 -10.771 -21.201  0.00  0.00    -0.233 NA
ATOM      4  C   UNL     1      32.863 -12.787 -22.766  0.00  0.00    +0.120 C 
ATOM      5  C   UNL     1      33.876 -12.917 -24.757  0.00  0.00    +0.062 C 
ATOM      6  C   UNL     1      33.064 -11.487 -23.214  0.00  0.00    +0.131 C 
ATOM      7  C   UNL     1      33.705 -11.579 -24.475  0.00  0.00    +0.004 C 
ATOM      8  C   UNL     1      32.621 -10.443 -22.384  0.00  0.00    +0.113 C 
ATOM      9  C   UNL     1      31.900 -12.082 -20.894  0.00  0.00    +0.252 C 
ATOM     10  N   UNL     1      32.776  -9.115 -22.749  0.00  0.00    -0.319 N 
ATOM     11  H   UNL     1      33.209  -8.918 -23.612  0.00  0.00    +0.148 HD
ENDROOT
BRANCH  10  12
ATOM     12  C   UNL     1      32.342  -8.004 -21.938  0.00  0.00    +0.093 C 
ATOM     13  C   UNL     1      33.494  -7.477 -21.063  0.00  0.00    +0.029 C 
ATOM     14  C   UNL     1      32.052  -6.806 -22.791  0.00  0.00    -0.008 C 
ATOM     15  C   UNL     1      34.222  -6.399 -21.884  0.00  0.00    +0.028 C 
ATOM     16  C   UNL     1      33.114  -5.894 -22.753  0.00  0.00    -0.025 C 
ATOM     17  C   UNL     1      30.929  -6.562 -23.565  0.00  0.00    -0.003 C 
ATOM     18  C   UNL     1      33.079  -4.726 -23.495  0.00  0.00    -0.005 C 
ATOM     19  C   UNL     1      30.880  -5.380 -24.306  0.00  0.00    -0.000 C 
ATOM     20  C   UNL     1      31.948  -4.468 -24.272  0.00  0.00    -0.000 C 
ENDBRANCH  10  12
BRANCH   1  21
ATOM     21  C   UNL     1      33.354 -15.100 -23.633  0.00  0.00    +0.081 C 
ATOM     22  C   UNL     1      35.301 -16.574 -23.771  0.00  0.00    +0.061 C 
ATOM     23  C   UNL     1      34.501 -15.702 -22.794  0.00  0.00    +0.025 C 
ATOM     24  C   UNL     1      34.247 -17.046 -24.774  0.00  0.00    +0.115 C 
ATOM     25  C   UNL     1      33.419 -15.787 -25.012  0.00  0.00    +0.049 C 
BRANCH  24  26
ATOM     26  O   UNL     1      33.428 -18.062 -24.209  0.00  0.00    -0.384 OA
ATOM     27  H   UNL     1      33.764 -18.297 -23.330  0.00  0.00    +0.210 HD
ENDBRANCH  24  26
BRANCH  22  28
ATOM     28  C   UNL     1      36.057 -17.693 -23.071  0.00  0.00    +0.176 C 
BRANCH  28  29
ATOM     29  O   UNL     1      35.216 -18.264 -22.083  0.00  0.00    -0.230 OA
BRANCH  29  30
ATOM     30  S   UNL     1      35.768 -18.456 -20.555  0.00  0.00    +0.045 S 
ATOM     31  O   UNL     1      35.681 -17.180 -19.868  0.00  0.00    -0.056 OA
ATOM     32  O   UNL     1      35.110 -19.625 -20.000  0.00  0.00    -0.056 OA
BRANCH  30  33
ATOM     33  N   UNL     1      37.427 -18.841 -20.756  0.00  0.00    -0.204 NA
ATOM     34  H   UNL     1      37.516 -19.804 -21.077  0.00  0.00    +0.144 HD
ATOM     35  H   UNL     1      37.911 -18.734 -19.865  0.00  0.00    +0.144 HD
ENDBRANCH  30  33
ENDBRANCH  29  30
ENDBRANCH  28  29
ENDBRANCH  22  28
ENDBRANCH   1  21
TORSDOF 7
ENDMDL
MODEL 9
REMARK VINA RESULT:     -10.0      2.458      3.247
REMARK  Name = 16720766
REMARK  7 active torsions:
REMARK  status: ('A' for Active; 'I' for Inactive)
REMARK    1  A    between atoms: N_1  and  C_10
REMARK    2  A    between atoms: C_11  and  C_17
REMARK    3  A    between atoms: C_13  and  O_15
REMARK    4  A    between atoms: C_17  and  O_18
REMARK    5  A    between atoms: O_18  and  S_19
REMARK    6  A    between atoms: S_19  and  N_22
REMARK    7  A    between atoms: N_25  and  C_27
REMARK                            x       y       z     vdW  Elec       q    Type
REMARK                         _______ _______ _______ _____ _____    ______ ____
ROOT
ATOM      1  N   UNL     1      33.840 -22.400 -17.210  0.00  0.00    -0.276 N 
ATOM      2  N   UNL     1      36.165 -21.969 -17.684  0.00  0.00    -0.233 NA
ATOM      3  N   UNL     1      36.497 -20.696 -19.731  0.00  0.00    -0.233 NA
ATOM      4  C   UNL     1      34.853 -21.876 -17.966  0.00  0.00    +0.120 C 
ATOM      5  C   UNL     1      32.635 -22.114 -17.799  0.00  0.00    +0.062 C 
ATOM      6  C   UNL     1      34.285 -21.240 -19.064  0.00  0.00    +0.131 C 
ATOM      7  C   UNL     1      32.880 -21.395 -18.949  0.00  0.00    +0.004 C 
ATOM      8  C   UNL     1      35.158 -20.627 -19.978  0.00  0.00    +0.113 C 
ATOM      9  C   UNL     1      36.909 -21.350 -18.622  0.00  0.00    +0.252 C 
ATOM     10  N   UNL     1      34.682 -19.968 -21.100  0.00  0.00    -0.319 N 
ATOM     11  H   UNL     1      33.708 -19.938 -21.243  0.00  0.00    +0.148 HD
ENDROOT
BRANCH  10  12
ATOM     12  C   UNL     1      35.531 -19.322 -22.071  0.00  0.00    +0.093 C 
ATOM     13  C   UNL     1      35.186 -19.785 -23.499  0.00  0.00    +0.029 C 
ATOM     14  C   UNL     1      35.220 -17.858 -22.157  0.00  0.00    -0.008 C 
ATOM     15  C   UNL     1      34.104 -18.829 -24.030  0.00  0.00    +0.028 C 
ATOM     16  C   UNL     1      34.418 -17.579 -23.271  0.00  0.00    -0.025 C 
ATOM     17  C   UNL     1      35.605 -16.852 -21.286  0.00  0.00    -0.003 C 
ATOM     18  C   UNL     1      33.980 -16.292 -23.532  0.00  0.00    -0.005 C 
ATOM     19  C   UNL     1      35.178 -15.549 -21.548  0.00  0.00    -0.000 C 
ATOM     20  C   UNL     1      34.370 -15.271 -22.663  0.00  0.00    -0.000 C 
ENDBRANCH  10  12
BRANCH   1  21
ATOM     21  C   UNL     1      34.003 -23.152 -15.968  0.00  0.00    +0.081 C 
ATOM     22  C   UNL     1      36.073 -23.418 -14.692  0.00  0.00    +0.061 C 
ATOM     23  C   UNL     1      34.895 -22.461 -14.914  0.00  0.00    +0.025 C 
ATOM     24  C   UNL     1      35.465 -24.798 -14.949  0.00  0.00    +0.115 C 
ATOM     25  C   UNL     1      34.595 -24.560 -16.179  0.00  0.00    +0.049 C 
BRANCH  24  26
ATOM     26  O   UNL     1      34.653 -25.208 -13.856  0.00  0.00    -0.384 OA
ATOM     27  H   UNL     1      34.915 -26.099 -13.575  0.00  0.00    +0.210 HD
ENDBRANCH  24  26
BRANCH  22  28
ATOM     28  C   UNL     1      36.711 -23.252 -13.321  0.00  0.00    +0.176 C 
BRANCH  28  29
ATOM     29  O   UNL     1      35.759 -23.600 -12.330  0.00  0.00    -0.230 OA
BRANCH  29  30
ATOM     30  S   UNL     1      36.249 -24.325 -10.947  0.00  0.00    +0.045 S 
ATOM     31  O   UNL     1      37.529 -23.759 -10.558  0.00  0.00    -0.056 OA
ATOM     32  O   UNL     1      35.131 -24.295 -10.022  0.00  0.00    -0.056 OA
BRANCH  30  33
ATOM     33  N   UNL     1      36.505 -25.958 -11.400  0.00  0.00    -0.204 NA
ATOM     34  H   UNL     1      37.095 -26.416 -10.705  0.00  0.00    +0.144 HD
ATOM     35  H   UNL     1      36.965 -25.990 -12.310  0.00  0.00    +0.144 HD
ENDBRANCH  30  33
ENDBRANCH  29  30
ENDBRANCH  28  29
ENDBRANCH  22  28
ENDBRANCH   1  21
TORSDOF 7
ENDMDL
