MODEL 1
REMARK VINA RESULT:     -11.7      0.000      0.000
REMARK  Name = 5327066
REMARK  6 active torsions:
REMARK  status: ('A' for Active; 'I' for Inactive)
REMARK    1  A    between atoms: C_2  and  C_6
REMARK    2  A    between atoms: C_2  and  C_20
REMARK    3  A    between atoms: C_3  and  O_9
REMARK    4  A    between atoms: O_9  and  C_11
REMARK    5  A    between atoms: N_18  and  C_24
REMARK    6  A    between atoms: C_21  and  N_30
REMARK                            x       y       z     vdW  Elec       q    Type
REMARK                         _______ _______ _______ _____ _____    ______ ____
ROOT
ATOM      1  O   UNL     1      33.800 -23.710 -19.219  0.00  0.00    -0.286 OA
ATOM      2  C   UNL     1      34.186 -22.792 -18.479  0.00  0.00    +0.200 C 
ENDROOT
BRANCH   2   6
ATOM      3  C   UNL     1      34.685 -23.035 -14.780  0.00  0.00    +0.138 C 
ATOM      4  C   UNL     1      34.960 -22.951 -16.140  0.00  0.00    +0.040 C 
ATOM      5  C   UNL     1      33.373 -23.051 -14.322  0.00  0.00    +0.037 C 
ATOM      6  C   UNL     1      33.908 -22.881 -17.054  0.00  0.00    +0.042 C 
ATOM      7  C   UNL     1      32.322 -22.980 -15.235  0.00  0.00    +0.003 C 
ATOM      8  C   UNL     1      32.589 -22.896 -16.601  0.00  0.00    +0.003 C 
BRANCH   3   9
ATOM      9  O   UNL     1      35.718 -23.103 -13.882  0.00  0.00    -0.479 OA
BRANCH   9  11
ATOM     10  N   UNL     1      38.128 -23.908 -11.362  0.00  0.00    +0.384 N 
ATOM     11  C   UNL     1      35.631 -24.112 -12.878  0.00  0.00    +0.162 C 
ATOM     12  C   UNL     1      35.696 -23.470 -11.492  0.00  0.00    +0.020 C 
ATOM     13  C   UNL     1      36.786 -25.094 -13.068  0.00  0.00    +0.020 C 
ATOM     14  C   UNL     1      37.084 -22.894 -11.202  0.00  0.00    -0.078 C 
ATOM     15  C   UNL     1      38.133 -24.460 -12.717  0.00  0.00    -0.078 C 
ATOM     16  H   UNL     1      37.962 -24.662 -10.696  0.00  0.00    -0.085 HD
ATOM     17  H   UNL     1      39.032 -23.466 -11.192  0.00  0.00    -0.085 HD
ENDBRANCH   9  11
ENDBRANCH   3   9
ENDBRANCH   2   6
BRANCH   2  20
ATOM     18  N   UNL     1      35.368 -19.824 -20.096  0.00  0.00    -0.177 N 
ATOM     19  N   UNL     1      36.536 -20.175 -19.532  0.00  0.00    -0.171 NA
ATOM     20  C   UNL     1      34.902 -21.628 -19.041  0.00  0.00    +0.088 C 
ATOM     21  C   UNL     1      34.344 -20.682 -19.821  0.00  0.00    +0.122 C 
ATOM     22  C   UNL     1      36.231 -21.299 -18.878  0.00  0.00    +0.124 C 
BRANCH  18  24
ATOM     23  F   UNL     1      35.109 -15.261 -23.177  0.00  0.00    -0.204 F 
ATOM     24  C   UNL     1      35.302 -18.668 -20.877  0.00  0.00    +0.075 C 
ATOM     25  C   UNL     1      35.230 -18.779 -22.258  0.00  0.00    +0.019 C 
ATOM     26  C   UNL     1      35.310 -17.425 -20.259  0.00  0.00    +0.019 C 
ATOM     27  C   UNL     1      35.166 -17.625 -23.038  0.00  0.00    +0.031 C 
ATOM     28  C   UNL     1      35.244 -16.270 -21.039  0.00  0.00    +0.031 C 
ATOM     29  C   UNL     1      35.172 -16.370 -22.428  0.00  0.00    +0.140 C 
ENDBRANCH  18  24
BRANCH  21  30
ATOM     30  N   UNL     1      33.095 -20.491 -20.303  0.00  0.00    -0.344 N 
ATOM     31  H   UNL     1      32.874 -20.768 -21.222  0.00  0.00    +0.144 HD
ATOM     32  H   UNL     1      32.407 -20.074 -19.736  0.00  0.00    +0.144 HD
ENDBRANCH  21  30
ENDBRANCH   2  20
TORSDOF 6
ENDMDL
MODEL 2
REMARK VINA RESULT:     -11.6      2.338      3.461
REMARK  Name = 5327066
REMARK  6 active torsions:
REMARK  status: ('A' for Active; 'I' for Inactive)
REMARK    1  A    between atoms: C_2  and  C_6
REMARK    2  A    between atoms: C_2  and  C_20
REMARK    3  A    between atoms: C_3  and  O_9
REMARK    4  A    between atoms: O_9  and  C_11
REMARK    5  A    between atoms: N_18  and  C_24
REMARK    6  A    between atoms: C_21  and  N_30
REMARK                            x       y       z     vdW  Elec       q    Type
REMARK                         _______ _______ _______ _____ _____    ______ ____
ROOT
ATOM      1  O   UNL     1      33.860 -23.210 -19.289  0.00  0.00    -0.286 OA
ATOM      2  C   UNL     1      34.538 -22.411 -18.624  0.00  0.00    +0.200 C 
ENDROOT
BRANCH   2   6
ATOM      3  C   UNL     1      33.796 -23.440 -15.105  0.00  0.00    +0.138 C 
ATOM      4  C   UNL     1      33.645 -23.222 -16.470  0.00  0.00    +0.040 C 
ATOM      5  C   UNL     1      34.974 -23.087 -14.457  0.00  0.00    +0.037 C 
ATOM      6  C   UNL     1      34.687 -22.643 -17.195  0.00  0.00    +0.042 C 
ATOM      7  C   UNL     1      36.015 -22.509 -15.182  0.00  0.00    +0.003 C 
ATOM      8  C   UNL     1      35.872 -22.287 -16.551  0.00  0.00    +0.003 C 
BRANCH   3   9
ATOM      9  O   UNL     1      32.773 -24.009 -14.392  0.00  0.00    -0.479 OA
BRANCH   9  11
ATOM     10  N   UNL     1      29.478 -25.187 -13.642  0.00  0.00    +0.384 N 
ATOM     11  C   UNL     1      31.578 -23.241 -14.261  0.00  0.00    +0.162 C 
ATOM     12  C   UNL     1      31.007 -23.409 -12.853  0.00  0.00    +0.020 C 
ATOM     13  C   UNL     1      30.572 -23.719 -15.307  0.00  0.00    +0.020 C 
ATOM     14  C   UNL     1      30.467 -24.823 -12.627  0.00  0.00    -0.078 C 
ATOM     15  C   UNL     1      30.046 -25.120 -14.989  0.00  0.00    -0.078 C 
ATOM     16  H   UNL     1      28.689 -24.543 -13.582  0.00  0.00    -0.085 HD
ATOM     17  H   UNL     1      29.178 -26.146 -13.468  0.00  0.00    -0.085 HD
ENDBRANCH   9  11
ENDBRANCH   3   9
ENDBRANCH   2   6
BRANCH   2  20
ATOM     18  N   UNL     1      35.482 -19.438 -20.382  0.00  0.00    -0.177 N 
ATOM     19  N   UNL     1      36.714 -19.775 -19.963  0.00  0.00    -0.171 NA
ATOM     20  C   UNL     1      35.167 -21.242 -19.273  0.00  0.00    +0.088 C 
ATOM     21  C   UNL     1      34.508 -20.306 -19.982  0.00  0.00    +0.122 C 
ATOM     22  C   UNL     1      36.503 -20.899 -19.274  0.00  0.00    +0.124 C 
BRANCH  18  24
ATOM     23  F   UNL     1      34.801 -14.893 -23.424  0.00  0.00    -0.204 F 
ATOM     24  C   UNL     1      35.309 -18.287 -21.153  0.00  0.00    +0.075 C 
ATOM     25  C   UNL     1      35.199 -18.397 -22.532  0.00  0.00    +0.019 C 
ATOM     26  C   UNL     1      35.251 -17.049 -20.528  0.00  0.00    +0.019 C 
ATOM     27  C   UNL     1      35.028 -17.247 -23.301  0.00  0.00    +0.031 C 
ATOM     28  C   UNL     1      35.078 -15.898 -21.298  0.00  0.00    +0.031 C 
ATOM     29  C   UNL     1      34.967 -15.998 -22.685  0.00  0.00    +0.140 C 
ENDBRANCH  18  24
BRANCH  21  30
ATOM     30  N   UNL     1      33.208 -20.130 -20.309  0.00  0.00    -0.344 N 
ATOM     31  H   UNL     1      32.842 -19.220 -20.399  0.00  0.00    +0.144 HD
ATOM     32  H   UNL     1      32.628 -20.910 -20.459  0.00  0.00    +0.144 HD
ENDBRANCH  21  30
ENDBRANCH   2  20
TORSDOF 6
ENDMDL
MODEL 3
REMARK VINA RESULT:     -11.4      2.606      4.197
REMARK  Name = 5327066
REMARK  6 active torsions:
REMARK  status: ('A' for Active; 'I' for Inactive)
REMARK    1  A    between atoms: C_2  and  C_6
REMARK    2  A    between atoms: C_2  and  C_20
REMARK    3  A    between atoms: C_3  and  O_9
REMARK    4  A    between atoms: O_9  and  C_11
REMARK    5  A    between atoms: N_18  and  C_24
REMARK    6  A    between atoms: C_21  and  N_30
REMARK                            x       y       z     vdW  Elec       q    Type
REMARK                         _______ _______ _______ _____ _____    ______ ____
ROOT
ATOM      1  O   UNL     1      37.319 -19.302 -20.217  0.00  0.00    -0.286 OA
ATOM      2  C   UNL     1      36.128 -19.380 -20.553  0.00  0.00    +0.200 C 
ENDROOT
BRANCH   2   6
ATOM      3  C   UNL     1      34.943 -21.992 -18.151  0.00  0.00    +0.138 C 
ATOM      4  C   UNL     1      35.784 -21.128 -18.844  0.00  0.00    +0.040 C 
ATOM      5  C   UNL     1      33.580 -22.025 -18.424  0.00  0.00    +0.037 C 
ATOM      6  C   UNL     1      35.255 -20.287 -19.823  0.00  0.00    +0.042 C 
ATOM      7  C   UNL     1      33.051 -21.183 -19.402  0.00  0.00    +0.003 C 
ATOM      8  C   UNL     1      33.888 -20.314 -20.102  0.00  0.00    +0.003 C 
BRANCH   3   9
ATOM      9  O   UNL     1      35.463 -22.818 -17.189  0.00  0.00    -0.479 OA
BRANCH   9  11
ATOM     10  N   UNL     1      36.793 -24.394 -14.265  0.00  0.00    +0.384 N 
ATOM     11  C   UNL     1      35.434 -22.338 -15.847  0.00  0.00    +0.162 C 
ATOM     12  C   UNL     1      36.862 -22.161 -15.329  0.00  0.00    +0.020 C 
ATOM     13  C   UNL     1      34.672 -23.343 -14.983  0.00  0.00    +0.020 C 
ATOM     14  C   UNL     1      37.564 -23.508 -15.139  0.00  0.00    -0.078 C 
ATOM     15  C   UNL     1      35.456 -24.644 -14.803  0.00  0.00    -0.078 C 
ATOM     16  H   UNL     1      36.706 -23.959 -13.347  0.00  0.00    -0.085 HD
ATOM     17  H   UNL     1      37.285 -25.286 -14.200  0.00  0.00    -0.085 HD
ENDBRANCH   9  11
ENDBRANCH   3   9
ENDBRANCH   2   6
BRANCH   2  20
ATOM     18  N   UNL     1      34.883 -16.959 -22.879  0.00  0.00    -0.177 N 
ATOM     19  N   UNL     1      34.897 -18.003 -23.726  0.00  0.00    -0.171 NA
ATOM     20  C   UNL     1      35.614 -18.577 -21.682  0.00  0.00    +0.088 C 
ATOM     21  C   UNL     1      35.314 -17.265 -21.621  0.00  0.00    +0.122 C 
ATOM     22  C   UNL     1      35.354 -19.003 -22.967  0.00  0.00    +0.124 C 
BRANCH  18  24
ATOM     23  F   UNL     1      33.176 -12.035 -24.673  0.00  0.00    -0.204 F 
ATOM     24  C   UNL     1      34.451 -15.712 -23.334  0.00  0.00    +0.075 C 
ATOM     25  C   UNL     1      34.672 -14.586 -22.553  0.00  0.00    +0.019 C 
ATOM     26  C   UNL     1      33.807 -15.617 -24.559  0.00  0.00    +0.019 C 
ATOM     27  C   UNL     1      34.239 -13.340 -23.007  0.00  0.00    +0.031 C 
ATOM     28  C   UNL     1      33.375 -14.370 -25.014  0.00  0.00    +0.031 C 
ATOM     29  C   UNL     1      33.591 -13.232 -24.237  0.00  0.00    +0.140 C 
ENDBRANCH  18  24
BRANCH  21  30
ATOM     30  N   UNL     1      35.370 -16.342 -20.635  0.00  0.00    -0.344 N 
ATOM     31  H   UNL     1      35.969 -15.565 -20.721  0.00  0.00    +0.144 HD
ATOM     32  H   UNL     1      34.810 -16.445 -19.832  0.00  0.00    +0.144 HD
ENDBRANCH  21  30
ENDBRANCH   2  20
TORSDOF 6
ENDMDL
MODEL 4
REMARK VINA RESULT:     -10.9      7.247     11.092
REMARK  Name = 5327066
REMARK  6 active torsions:
REMARK  status: ('A' for Active; 'I' for Inactive)
REMARK    1  A    between atoms: C_2  and  C_6
REMARK    2  A    between atoms: C_2  and  C_20
REMARK    3  A    between atoms: C_3  and  O_9
REMARK    4  A    between atoms: O_9  and  C_11
REMARK    5  A    between atoms: N_18  and  C_24
REMARK    6  A    between atoms: C_21  and  N_30
REMARK                            x       y       z     vdW  Elec       q    Type
REMARK                         _______ _______ _______ _____ _____    ______ ____
ROOT
ATOM      1  O   UNL     1      31.900 -13.223 -20.918  0.00  0.00    -0.286 OA
ATOM      2  C   UNL     1      32.633 -12.889 -21.861  0.00  0.00    +0.200 C 
ENDROOT
BRANCH   2   6
ATOM      3  C   UNL     1      34.895 -15.781 -22.575  0.00  0.00    +0.138 C 
ATOM      4  C   UNL     1      34.201 -14.795 -21.883  0.00  0.00    +0.040 C 
ATOM      5  C   UNL     1      34.763 -15.905 -23.953  0.00  0.00    +0.037 C 
ATOM      6  C   UNL     1      33.363 -13.923 -22.578  0.00  0.00    +0.042 C 
ATOM      7  C   UNL     1      33.925 -15.034 -24.648  0.00  0.00    +0.003 C 
ATOM      8  C   UNL     1      33.225 -14.042 -23.961  0.00  0.00    +0.003 C 
BRANCH   3   9
ATOM      9  O   UNL     1      35.717 -16.638 -21.892  0.00  0.00    -0.479 OA
BRANCH   9  11
ATOM     10  N   UNL     1      35.820 -19.776 -20.176  0.00  0.00    +0.384 N 
ATOM     11  C   UNL     1      35.899 -17.937 -22.453  0.00  0.00    +0.162 C 
ATOM     12  C   UNL     1      34.681 -18.808 -22.147  0.00  0.00    +0.020 C 
ATOM     13  C   UNL     1      37.163 -18.555 -21.856  0.00  0.00    +0.020 C 
ATOM     14  C   UNL     1      34.589 -19.148 -20.657  0.00  0.00    -0.078 C 
ATOM     15  C   UNL     1      36.979 -18.907 -20.379  0.00  0.00    -0.078 C 
ATOM     16  H   UNL     1      35.966 -20.649 -20.682  0.00  0.00    -0.085 HD
ATOM     17  H   UNL     1      35.720 -19.949 -19.175  0.00  0.00    -0.085 HD
ENDBRANCH   9  11
ENDBRANCH   3   9
ENDBRANCH   2   6
BRANCH   2  20
ATOM     18  N   UNL     1      32.572  -9.334 -22.291  0.00  0.00    -0.177 N 
ATOM     19  N   UNL     1      33.408  -9.604 -23.308  0.00  0.00    -0.171 NA
ATOM     20  C   UNL     1      32.769 -11.466 -22.236  0.00  0.00    +0.088 C 
ATOM     21  C   UNL     1      32.159 -10.441 -21.609  0.00  0.00    +0.122 C 
ATOM     22  C   UNL     1      33.522 -10.934 -23.262  0.00  0.00    +0.124 C 
BRANCH  18  24
ATOM     23  F   UNL     1      31.158  -4.109 -21.257  0.00  0.00    -0.204 F 
ATOM     24  C   UNL     1      32.214  -8.010 -22.029  0.00  0.00    +0.075 C 
ATOM     25  C   UNL     1      33.009  -7.240 -21.193  0.00  0.00    +0.019 C 
ATOM     26  C   UNL     1      31.068  -7.485 -22.610  0.00  0.00    +0.019 C 
ATOM     27  C   UNL     1      32.650  -5.918 -20.930  0.00  0.00    +0.031 C 
ATOM     28  C   UNL     1      30.710  -6.162 -22.348  0.00  0.00    +0.031 C 
ATOM     29  C   UNL     1      31.501  -5.379 -21.508  0.00  0.00    +0.140 C 
ENDBRANCH  18  24
BRANCH  21  30
ATOM     30  N   UNL     1      31.316 -10.364 -20.555  0.00  0.00    -0.344 N 
ATOM     31  H   UNL     1      30.556 -10.986 -20.485  0.00  0.00    +0.144 HD
ATOM     32  H   UNL     1      31.463  -9.686 -19.856  0.00  0.00    +0.144 HD
ENDBRANCH  21  30
ENDBRANCH   2  20
TORSDOF 6
ENDMDL
MODEL 5
REMARK VINA RESULT:     -10.7      1.104      1.833
REMARK  Name = 5327066
REMARK  6 active torsions:
REMARK  status: ('A' for Active; 'I' for Inactive)
REMARK    1  A    between atoms: C_2  and  C_6
REMARK    2  A    between atoms: C_2  and  C_20
REMARK    3  A    between atoms: C_3  and  O_9
REMARK    4  A    between atoms: O_9  and  C_11
REMARK    5  A    between atoms: N_18  and  C_24
REMARK    6  A    between atoms: C_21  and  N_30
REMARK                            x       y       z     vdW  Elec       q    Type
REMARK                         _______ _______ _______ _____ _____    ______ ____
ROOT
ATOM      1  O   UNL     1      36.836 -22.044 -18.210  0.00  0.00    -0.286 OA
ATOM      2  C   UNL     1      35.617 -21.825 -18.146  0.00  0.00    +0.200 C 
ENDROOT
BRANCH   2   6
ATOM      3  C   UNL     1      34.715 -23.070 -14.736  0.00  0.00    +0.138 C 
ATOM      4  C   UNL     1      35.444 -22.518 -15.783  0.00  0.00    +0.040 C 
ATOM      5  C   UNL     1      33.410 -23.507 -14.935  0.00  0.00    +0.037 C 
ATOM      6  C   UNL     1      34.860 -22.402 -17.045  0.00  0.00    +0.042 C 
ATOM      7  C   UNL     1      32.826 -23.389 -16.195  0.00  0.00    +0.003 C 
ATOM      8  C   UNL     1      33.551 -22.837 -17.251  0.00  0.00    +0.003 C 
BRANCH   3   9
ATOM      9  O   UNL     1      35.288 -23.185 -13.497  0.00  0.00    -0.479 OA
BRANCH   9  11
ATOM     10  N   UNL     1      37.924 -24.474 -11.450  0.00  0.00    +0.384 N 
ATOM     11  C   UNL     1      35.422 -24.504 -12.971  0.00  0.00    +0.162 C 
ATOM     12  C   UNL     1      35.451 -24.452 -11.443  0.00  0.00    +0.020 C 
ATOM     13  C   UNL     1      36.715 -25.116 -13.511  0.00  0.00    +0.020 C 
ATOM     14  C   UNL     1      36.735 -23.803 -10.924  0.00  0.00    -0.078 C 
ATOM     15  C   UNL     1      37.952 -24.445 -12.913  0.00  0.00    -0.078 C 
ATOM     16  H   UNL     1      37.922 -25.445 -11.137  0.00  0.00    -0.085 HD
ATOM     17  H   UNL     1      38.749 -23.984 -11.104  0.00  0.00    -0.085 HD
ENDBRANCH   9  11
ENDBRANCH   3   9
ENDBRANCH   2   6
BRANCH   2  20
ATOM     18  N   UNL     1      34.567 -19.602 -20.749  0.00  0.00    -0.177 N 
ATOM     19  N   UNL     1      33.361 -20.139 -20.501  0.00  0.00    -0.171 NA
ATOM     20  C   UNL     1      34.948 -21.006 -19.179  0.00  0.00    +0.088 C 
ATOM     21  C   UNL     1      35.565 -20.103 -19.966  0.00  0.00    +0.122 C 
ATOM     22  C   UNL     1      33.613 -21.012 -19.522  0.00  0.00    +0.124 C 
BRANCH  18  24
ATOM     23  F   UNL     1      35.065 -15.745 -24.655  0.00  0.00    -0.204 F 
ATOM     24  C   UNL     1      34.693 -18.625 -21.739  0.00  0.00    +0.075 C 
ATOM     25  C   UNL     1      35.205 -17.378 -21.407  0.00  0.00    +0.019 C 
ATOM     26  C   UNL     1      34.304 -18.915 -23.039  0.00  0.00    +0.019 C 
ATOM     27  C   UNL     1      35.330 -16.402 -22.395  0.00  0.00    +0.031 C 
ATOM     28  C   UNL     1      34.430 -17.939 -24.028  0.00  0.00    +0.031 C 
ATOM     29  C   UNL     1      34.944 -16.682 -23.706  0.00  0.00    +0.140 C 
ENDBRANCH  18  24
BRANCH  21  30
ATOM     30  N   UNL     1      36.845 -19.682 -20.073  0.00  0.00    -0.344 N 
ATOM     31  H   UNL     1      37.089 -18.770 -19.793  0.00  0.00    +0.144 HD
ATOM     32  H   UNL     1      37.534 -20.287 -20.432  0.00  0.00    +0.144 HD
ENDBRANCH  21  30
ENDBRANCH   2  20
TORSDOF 6
ENDMDL
MODEL 6
REMARK VINA RESULT:     -10.6      2.664      4.507
REMARK  Name = 5327066
REMARK  6 active torsions:
REMARK  status: ('A' for Active; 'I' for Inactive)
REMARK    1  A    between atoms: C_2  and  C_6
REMARK    2  A    between atoms: C_2  and  C_20
REMARK    3  A    between atoms: C_3  and  O_9
REMARK    4  A    between atoms: O_9  and  C_11
REMARK    5  A    between atoms: N_18  and  C_24
REMARK    6  A    between atoms: C_21  and  N_30
REMARK                            x       y       z     vdW  Elec       q    Type
REMARK                         _______ _______ _______ _____ _____    ______ ____
ROOT
ATOM      1  O   UNL     1      36.843 -22.192 -18.096  0.00  0.00    -0.286 OA
ATOM      2  C   UNL     1      35.633 -21.936 -17.998  0.00  0.00    +0.200 C 
ENDROOT
BRANCH   2   6
ATOM      3  C   UNL     1      32.851 -23.277 -15.888  0.00  0.00    +0.138 C 
ATOM      4  C   UNL     1      33.545 -22.775 -16.983  0.00  0.00    +0.040 C 
ATOM      5  C   UNL     1      33.491 -23.468 -14.670  0.00  0.00    +0.037 C 
ATOM      6  C   UNL     1      34.899 -22.461 -16.857  0.00  0.00    +0.042 C 
ATOM      7  C   UNL     1      34.844 -23.155 -14.544  0.00  0.00    +0.003 C 
ATOM      8  C   UNL     1      35.548 -22.651 -15.637  0.00  0.00    +0.003 C 
BRANCH   3   9
ATOM      9  O   UNL     1      31.521 -23.585 -16.012  0.00  0.00    -0.479 OA
BRANCH   9  11
ATOM     10  N   UNL     1      28.013 -23.432 -15.323  0.00  0.00    +0.384 N 
ATOM     11  C   UNL     1      30.844 -23.994 -14.825  0.00  0.00    +0.162 C 
ATOM     12  C   UNL     1      29.837 -25.096 -15.157  0.00  0.00    +0.020 C 
ATOM     13  C   UNL     1      30.133 -22.781 -14.225  0.00  0.00    +0.020 C 
ATOM     14  C   UNL     1      28.668 -24.561 -15.987  0.00  0.00    -0.078 C 
ATOM     15  C   UNL     1      28.951 -22.334 -15.087  0.00  0.00    -0.078 C 
ATOM     16  H   UNL     1      27.638 -23.746 -14.428  0.00  0.00    -0.085 HD
ATOM     17  H   UNL     1      27.267 -23.092 -15.931  0.00  0.00    -0.085 HD
ENDBRANCH   9  11
ENDBRANCH   3   9
ENDBRANCH   2   6
BRANCH   2  20
ATOM     18  N   UNL     1      34.556 -19.734 -20.608  0.00  0.00    -0.177 N 
ATOM     19  N   UNL     1      33.352 -20.265 -20.339  0.00  0.00    -0.171 NA
ATOM     20  C   UNL     1      34.954 -21.125 -19.029  0.00  0.00    +0.088 C 
ATOM     21  C   UNL     1      35.563 -20.231 -19.833  0.00  0.00    +0.122 C 
ATOM     22  C   UNL     1      33.614 -21.129 -19.355  0.00  0.00    +0.124 C 
BRANCH  18  24
ATOM     23  F   UNL     1      35.014 -15.915 -24.556  0.00  0.00    -0.204 F 
ATOM     24  C   UNL     1      34.673 -18.766 -21.608  0.00  0.00    +0.075 C 
ATOM     25  C   UNL     1      35.180 -17.514 -21.292  0.00  0.00    +0.019 C 
ATOM     26  C   UNL     1      34.278 -19.072 -22.903  0.00  0.00    +0.019 C 
ATOM     27  C   UNL     1      35.295 -16.548 -22.291  0.00  0.00    +0.031 C 
ATOM     28  C   UNL     1      34.394 -18.105 -23.903  0.00  0.00    +0.031 C 
ATOM     29  C   UNL     1      34.903 -16.843 -23.596  0.00  0.00    +0.140 C 
ENDBRANCH  18  24
BRANCH  21  30
ATOM     30  N   UNL     1      36.842 -19.815 -19.961  0.00  0.00    -0.344 N 
ATOM     31  H   UNL     1      37.476 -20.331 -20.511  0.00  0.00    +0.144 HD
ATOM     32  H   UNL     1      37.141 -18.995 -19.506  0.00  0.00    +0.144 HD
ENDBRANCH  21  30
ENDBRANCH   2  20
TORSDOF 6
ENDMDL
MODEL 7
REMARK VINA RESULT:     -10.6      6.018     11.346
REMARK  Name = 5327066
REMARK  6 active torsions:
REMARK  status: ('A' for Active; 'I' for Inactive)
REMARK    1  A    between atoms: C_2  and  C_6
REMARK    2  A    between atoms: C_2  and  C_20
REMARK    3  A    between atoms: C_3  and  O_9
REMARK    4  A    between atoms: O_9  and  C_11
REMARK    5  A    between atoms: N_18  and  C_24
REMARK    6  A    between atoms: C_21  and  N_30
REMARK                            x       y       z     vdW  Elec       q    Type
REMARK                         _______ _______ _______ _____ _____    ______ ____
ROOT
ATOM      1  O   UNL     1      34.132 -16.093 -25.402  0.00  0.00    -0.286 OA
ATOM      2  C   UNL     1      34.196 -15.418 -24.364  0.00  0.00    +0.200 C 
ENDROOT
BRANCH   2   6
ATOM      3  C   UNL     1      33.340 -11.925 -23.333  0.00  0.00    +0.138 C 
ATOM      4  C   UNL     1      33.645 -13.280 -23.259  0.00  0.00    +0.040 C 
ATOM      5  C   UNL     1      33.262 -11.283 -24.563  0.00  0.00    +0.037 C 
ATOM      6  C   UNL     1      33.876 -14.000 -24.432  0.00  0.00    +0.042 C 
ATOM      7  C   UNL     1      33.493 -12.002 -25.734  0.00  0.00    +0.003 C 
ATOM      8  C   UNL     1      33.799 -13.361 -25.669  0.00  0.00    +0.003 C 
BRANCH   3   9
ATOM      9  O   UNL     1      33.114 -11.218 -22.181  0.00  0.00    -0.479 OA
BRANCH   9  11
ATOM     10  N   UNL     1      31.874  -9.319 -19.414  0.00  0.00    +0.384 N 
ATOM     11  C   UNL     1      31.771 -10.807 -21.933  0.00  0.00    +0.162 C 
ATOM     12  C   UNL     1      31.697  -9.281 -21.881  0.00  0.00    +0.020 C 
ATOM     13  C   UNL     1      31.311 -11.412 -20.607  0.00  0.00    +0.020 C 
ATOM     14  C   UNL     1      32.402  -8.724 -20.642  0.00  0.00    -0.078 C 
ATOM     15  C   UNL     1      32.028 -10.774 -19.415  0.00  0.00    -0.078 C 
ATOM     16  H   UNL     1      30.883  -9.090 -19.333  0.00  0.00    -0.085 HD
ATOM     17  H   UNL     1      32.399  -8.942 -18.624  0.00  0.00    -0.085 HD
ENDBRANCH   9  11
ENDBRANCH   3   9
ENDBRANCH   2   6
BRANCH   2  20
ATOM     18  N   UNL     1      35.096 -17.475 -21.575  0.00  0.00    -0.177 N 
ATOM     19  N   UNL     1      35.275 -16.291 -20.965  0.00  0.00    -0.171 NA
ATOM     20  C   UNL     1      34.604 -16.043 -23.089  0.00  0.00    +0.088 C 
ATOM     21  C   UNL     1      34.689 -17.370 -22.873  0.00  0.00    +0.122 C 
ATOM     22  C   UNL     1      34.965 -15.409 -21.918  0.00  0.00    +0.124 C 
BRANCH  18  24
ATOM     23  F   UNL     1      36.026 -22.132 -18.777  0.00  0.00    -0.204 F 
ATOM     24  C   UNL     1      35.332 -18.655 -20.866  0.00  0.00    +0.075 C 
ATOM     25  C   UNL     1      34.265 -19.479 -20.536  0.00  0.00    +0.019 C 
ATOM     26  C   UNL     1      36.630 -18.986 -20.502  0.00  0.00    +0.019 C 
ATOM     27  C   UNL     1      34.500 -20.656 -19.827  0.00  0.00    +0.031 C 
ATOM     28  C   UNL     1      36.865 -20.165 -19.794  0.00  0.00    +0.031 C 
ATOM     29  C   UNL     1      35.800 -21.000 -19.457  0.00  0.00    +0.140 C 
ENDBRANCH  18  24
BRANCH  21  30
ATOM     30  N   UNL     1      34.459 -18.456 -23.644  0.00  0.00    -0.344 N 
ATOM     31  H   UNL     1      33.604 -18.547 -24.125  0.00  0.00    +0.144 HD
ATOM     32  H   UNL     1      35.146 -19.155 -23.727  0.00  0.00    +0.144 HD
ENDBRANCH  21  30
ENDBRANCH   2  20
TORSDOF 6
ENDMDL
MODEL 8
REMARK VINA RESULT:     -10.3      4.327     10.457
REMARK  Name = 5327066
REMARK  6 active torsions:
REMARK  status: ('A' for Active; 'I' for Inactive)
REMARK    1  A    between atoms: C_2  and  C_6
REMARK    2  A    between atoms: C_2  and  C_20
REMARK    3  A    between atoms: C_3  and  O_9
REMARK    4  A    between atoms: O_9  and  C_11
REMARK    5  A    between atoms: N_18  and  C_24
REMARK    6  A    between atoms: C_21  and  N_30
REMARK                            x       y       z     vdW  Elec       q    Type
REMARK                         _______ _______ _______ _____ _____    ______ ____
ROOT
ATOM      1  O   UNL     1      35.038 -19.366 -22.897  0.00  0.00    -0.286 OA
ATOM      2  C   UNL     1      35.182 -18.871 -21.769  0.00  0.00    +0.200 C 
ENDROOT
BRANCH   2   6
ATOM      3  C   UNL     1      34.690 -15.252 -22.580  0.00  0.00    +0.138 C 
ATOM      4  C   UNL     1      34.833 -16.626 -22.736  0.00  0.00    +0.040 C 
ATOM      5  C   UNL     1      34.742 -14.674 -21.317  0.00  0.00    +0.037 C 
ATOM      6  C   UNL     1      35.031 -17.432 -21.614  0.00  0.00    +0.042 C 
ATOM      7  C   UNL     1      34.939 -15.479 -20.196  0.00  0.00    +0.003 C 
ATOM      8  C   UNL     1      35.084 -16.858 -20.344  0.00  0.00    +0.003 C 
BRANCH   3   9
ATOM      9  O   UNL     1      34.495 -14.461 -23.681  0.00  0.00    -0.479 OA
BRANCH   9  11
ATOM     10  N   UNL     1      33.682 -11.373 -25.295  0.00  0.00    +0.384 N 
ATOM     11  C   UNL     1      33.210 -13.857 -23.819  0.00  0.00    +0.162 C 
ATOM     12  C   UNL     1      32.865 -13.708 -25.301  0.00  0.00    +0.020 C 
ATOM     13  C   UNL     1      33.235 -12.492 -23.134  0.00  0.00    +0.020 C 
ATOM     14  C   UNL     1      33.749 -12.662 -25.984  0.00  0.00    -0.078 C 
ATOM     15  C   UNL     1      34.102 -11.490 -23.899  0.00  0.00    -0.078 C 
ATOM     16  H   UNL     1      32.721 -11.031 -25.325  0.00  0.00    -0.085 HD
ATOM     17  H   UNL     1      34.313 -10.724 -25.767  0.00  0.00    -0.085 HD
ENDBRANCH   9  11
ENDBRANCH   3   9
ENDBRANCH   2   6
BRANCH   2  20
ATOM     18  N   UNL     1      35.366 -21.037 -18.924  0.00  0.00    -0.177 N 
ATOM     19  N   UNL     1      36.686 -20.817 -19.043  0.00  0.00    -0.171 NA
ATOM     20  C   UNL     1      35.513 -19.727 -20.611  0.00  0.00    +0.088 C 
ATOM     21  C   UNL     1      34.613 -20.393 -19.861  0.00  0.00    +0.122 C 
ATOM     22  C   UNL     1      36.763 -20.000 -20.097  0.00  0.00    +0.124 C 
BRANCH  18  24
ATOM     23  F   UNL     1      33.517 -24.308 -14.891  0.00  0.00    -0.204 F 
ATOM     24  C   UNL     1      34.897 -21.866 -17.903  0.00  0.00    +0.075 C 
ATOM     25  C   UNL     1      33.639 -22.442 -18.012  0.00  0.00    +0.019 C 
ATOM     26  C   UNL     1      35.697 -22.101 -16.793  0.00  0.00    +0.019 C 
ATOM     27  C   UNL     1      33.171 -23.269 -16.991  0.00  0.00    +0.031 C 
ATOM     28  C   UNL     1      35.229 -22.929 -15.772  0.00  0.00    +0.031 C 
ATOM     29  C   UNL     1      33.966 -23.513 -15.871  0.00  0.00    +0.140 C 
ENDBRANCH  18  24
BRANCH  21  30
ATOM     30  N   UNL     1      33.266 -20.497 -19.898  0.00  0.00    -0.344 N 
ATOM     31  H   UNL     1      32.718 -20.048 -19.213  0.00  0.00    +0.144 HD
ATOM     32  H   UNL     1      32.832 -21.021 -20.609  0.00  0.00    +0.144 HD
ENDBRANCH  21  30
ENDBRANCH   2  20
TORSDOF 6
ENDMDL
MODEL 9
REMARK VINA RESULT:     -10.2      6.464     12.446
REMARK  Name = 5327066
REMARK  6 active torsions:
REMARK  status: ('A' for Active; 'I' for Inactive)
REMARK    1  A    between atoms: C_2  and  C_6
REMARK    2  A    between atoms: C_2  and  C_20
REMARK    3  A    between atoms: C_3  and  O_9
REMARK    4  A    between atoms: O_9  and  C_11
REMARK    5  A    between atoms: N_18  and  C_24
REMARK    6  A    between atoms: C_21  and  N_30
REMARK                            x       y       z     vdW  Elec       q    Type
REMARK                         _______ _______ _______ _____ _____    ______ ____
ROOT
ATOM      1  O   UNL     1      34.798 -13.304 -20.868  0.00  0.00    -0.286 OA
ATOM      2  C   UNL     1      34.610 -13.906 -21.936  0.00  0.00    +0.200 C 
ENDROOT
BRANCH   2   6
ATOM      3  C   UNL     1      33.424 -11.076 -24.076  0.00  0.00    +0.138 C 
ATOM      4  C   UNL     1      33.894 -11.785 -22.976  0.00  0.00    +0.040 C 
ATOM      5  C   UNL     1      33.175 -11.723 -25.281  0.00  0.00    +0.037 C 
ATOM      6  C   UNL     1      34.118 -13.157 -23.083  0.00  0.00    +0.042 C 
ATOM      7  C   UNL     1      33.401 -13.095 -25.388  0.00  0.00    +0.003 C 
ATOM      8  C   UNL     1      33.871 -13.813 -24.289  0.00  0.00    +0.003 C 
BRANCH   3   9
ATOM      9  O   UNL     1      33.204  -9.728 -23.971  0.00  0.00    -0.479 OA
BRANCH   9  11
ATOM     10  N   UNL     1      32.086  -6.467 -23.013  0.00  0.00    +0.384 N 
ATOM     11  C   UNL     1      33.073  -9.200 -22.652  0.00  0.00    +0.162 C 
ATOM     12  C   UNL     1      31.617  -8.815 -22.390  0.00  0.00    +0.020 C 
ATOM     13  C   UNL     1      33.982  -7.978 -22.523  0.00  0.00    +0.020 C 
ATOM     14  C   UNL     1      31.193  -7.606 -23.228  0.00  0.00    -0.078 C 
ATOM     15  C   UNL     1      33.469  -6.800 -23.353  0.00  0.00    -0.078 C 
ATOM     16  H   UNL     1      32.041  -6.192 -22.032  0.00  0.00    -0.085 HD
ATOM     17  H   UNL     1      31.781  -5.703 -23.618  0.00  0.00    -0.085 HD
ENDBRANCH   9  11
ENDBRANCH   3   9
ENDBRANCH   2   6
BRANCH   2  20
ATOM     18  N   UNL     1      35.208 -17.415 -21.544  0.00  0.00    -0.177 N 
ATOM     19  N   UNL     1      35.263 -17.392 -22.886  0.00  0.00    -0.171 NA
ATOM     20  C   UNL     1      34.868 -15.358 -22.032  0.00  0.00    +0.088 C 
ATOM     21  C   UNL     1      34.967 -16.195 -20.981  0.00  0.00    +0.122 C 
ATOM     22  C   UNL     1      35.051 -16.106 -23.176  0.00  0.00    +0.124 C 
BRANCH  18  24
ATOM     23  F   UNL     1      35.929 -22.187 -18.882  0.00  0.00    -0.204 F 
ATOM     24  C   UNL     1      35.390 -18.623 -20.869  0.00  0.00    +0.075 C 
ATOM     25  C   UNL     1      36.666 -18.998 -20.469  0.00  0.00    +0.019 C 
ATOM     26  C   UNL     1      34.294 -19.434 -20.609  0.00  0.00    +0.019 C 
ATOM     27  C   UNL     1      36.848 -20.205 -19.797  0.00  0.00    +0.031 C 
ATOM     28  C   UNL     1      34.476 -20.641 -19.935  0.00  0.00    +0.031 C 
ATOM     29  C   UNL     1      35.753 -21.027 -19.529  0.00  0.00    +0.140 C 
ENDBRANCH  18  24
BRANCH  21  30
ATOM     30  N   UNL     1      34.877 -16.025 -19.643  0.00  0.00    -0.344 N 
ATOM     31  H   UNL     1      34.892 -16.807 -19.045  0.00  0.00    +0.144 HD
ATOM     32  H   UNL     1      34.797 -15.119 -19.267  0.00  0.00    +0.144 HD
ENDBRANCH  21  30
ENDBRANCH   2  20
TORSDOF 6
ENDMDL
