MODEL 1
REMARK VINA RESULT:     -12.8      0.000      0.000
REMARK  Name = 25243853
REMARK  6 active torsions:
REMARK  status: ('A' for Active; 'I' for Inactive)
REMARK    1  A    between atoms: N_1  and  C_6
REMARK    2  A    between atoms: N_1  and  C_21
REMARK    3  A    between atoms: C_3  and  C_16
REMARK    4  A    between atoms: C_11  and  C_18
REMARK    5  A    between atoms: C_18  and  O_19
REMARK    6  A    between atoms: C_21  and  C_28
REMARK                            x       y       z     vdW  Elec       q    Type
REMARK                         _______ _______ _______ _____ _____    ______ ____
ROOT
ATOM      1  N   UNL     1      35.246 -18.647 -22.067  0.00  0.00    -0.327 N 
ATOM      2  H   UNL     1      35.951 -17.992 -21.860  0.00  0.00    +0.147 HD
ENDROOT
BRANCH   1   6
ATOM      3  C   UNL     1      33.957 -21.238 -19.023  0.00  0.00    +0.054 C 
ATOM      4  C   UNL     1      35.321 -21.069 -19.263  0.00  0.00    +0.006 C 
ATOM      5  C   UNL     1      33.022 -20.546 -19.793  0.00  0.00    +0.006 C 
ATOM      6  C   UNL     1      34.813 -19.517 -21.044  0.00  0.00    +0.045 C 
ATOM      7  C   UNL     1      35.749 -20.208 -20.274  0.00  0.00    +0.014 C 
ATOM      8  C   UNL     1      33.450 -19.686 -20.803  0.00  0.00    +0.014 C 
BRANCH   3  16
ATOM      9  O   UNL     1      32.296 -22.360 -17.908  0.00  0.00    -0.270 OA
ATOM     10  N   UNL     1      34.468 -22.684 -17.103  0.00  0.00    -0.276 N 
ATOM     11  C   UNL     1      35.981 -22.671 -14.623  0.00  0.00    +0.102 C 
ATOM     12  C   UNL     1      34.488 -23.014 -14.664  0.00  0.00    +0.033 C 
ATOM     13  C   UNL     1      36.417 -21.850 -15.840  0.00  0.00    +0.033 C 
ATOM     14  C   UNL     1      34.054 -23.571 -16.018  0.00  0.00    +0.094 C 
ATOM     15  C   UNL     1      35.911 -22.424 -17.165  0.00  0.00    +0.094 C 
ATOM     16  C   UNL     1      33.506 -22.143 -17.959  0.00  0.00    +0.249 C 
BRANCH  11  18
ATOM     17  O   UNL     1      36.473 -25.005 -14.964  0.00  0.00    -0.250 OA
ATOM     18  C   UNL     1      36.799 -23.924 -14.493  0.00  0.00    +0.317 C 
BRANCH  18  19
ATOM     19  O   UNL     1      37.931 -23.657 -13.783  0.00  0.00    -0.444 OA
ATOM     20  C   UNL     1      38.398 -24.721 -12.948  0.00  0.00    +0.256 C 
ENDBRANCH  18  19
ENDBRANCH  11  18
ENDBRANCH   3  16
ENDBRANCH   1   6
BRANCH   1  21
ATOM     21  C   UNL     1      34.705 -18.675 -23.390  0.00  0.00    +0.145 C 
BRANCH  21  28
ATOM     22  N   UNL     1      34.562 -16.273 -22.994  0.00  0.00    -0.392 NA
ATOM     23  N   UNL     1      33.672 -15.810 -25.574  0.00  0.00    -0.200 NA
ATOM     24  N   UNL     1      33.555 -13.538 -25.141  0.00  0.00    -0.271 NA
ATOM     25  N   UNL     1      34.153 -12.660 -22.991  0.00  0.00    -0.310 NA
ATOM     26  N   UNL     1      34.870 -14.131 -21.287  0.00  0.00    -0.329 N 
ATOM     27  N   UNL     1      33.436 -11.235 -24.705  0.00  0.00    -0.283 N 
ATOM     28  C   UNL     1      34.395 -17.282 -23.863  0.00  0.00    +0.133 C 
ATOM     29  C   UNL     1      33.955 -17.052 -25.138  0.00  0.00    +0.193 C 
ATOM     30  C   UNL     1      34.279 -15.031 -23.432  0.00  0.00    +0.248 C 
ATOM     31  C   UNL     1      33.829 -14.782 -24.731  0.00  0.00    +0.131 C 
ATOM     32  C   UNL     1      34.418 -13.924 -22.617  0.00  0.00    +0.231 C 
ATOM     33  C   UNL     1      33.730 -12.540 -24.255  0.00  0.00    +0.207 C 
ATOM     34  H   UNL     1      34.979 -13.364 -20.680  0.00  0.00    +0.145 HD
ATOM     35  H   UNL     1      35.073 -15.040 -20.972  0.00  0.00    +0.145 HD
ATOM     36  H   UNL     1      33.120 -11.092 -25.627  0.00  0.00    +0.156 HD
ATOM     37  H   UNL     1      33.545 -10.467 -24.098  0.00  0.00    +0.156 HD
ENDBRANCH  21  28
ENDBRANCH   1  21
TORSDOF 6
ENDMDL
MODEL 2
REMARK VINA RESULT:     -12.5      4.856     11.160
REMARK  Name = 25243853
REMARK  6 active torsions:
REMARK  status: ('A' for Active; 'I' for Inactive)
REMARK    1  A    between atoms: N_1  and  C_6
REMARK    2  A    between atoms: N_1  and  C_21
REMARK    3  A    between atoms: C_3  and  C_16
REMARK    4  A    between atoms: C_11  and  C_18
REMARK    5  A    between atoms: C_18  and  O_19
REMARK    6  A    between atoms: C_21  and  C_28
REMARK                            x       y       z     vdW  Elec       q    Type
REMARK                         _______ _______ _______ _____ _____    ______ ____
ROOT
ATOM      1  N   UNL     1      35.086 -19.439 -22.370  0.00  0.00    -0.327 N 
ATOM      2  H   UNL     1      34.927 -20.311 -22.797  0.00  0.00    +0.147 HD
ENDROOT
BRANCH   1   6
ATOM      3  C   UNL     1      34.192 -15.950 -24.532  0.00  0.00    +0.054 C 
ATOM      4  C   UNL     1      35.097 -15.900 -23.471  0.00  0.00    +0.006 C 
ATOM      5  C   UNL     1      33.585 -17.159 -24.874  0.00  0.00    +0.006 C 
ATOM      6  C   UNL     1      34.787 -18.267 -23.096  0.00  0.00    +0.045 C 
ATOM      7  C   UNL     1      35.394 -17.059 -22.754  0.00  0.00    +0.014 C 
ATOM      8  C   UNL     1      33.882 -18.316 -24.157  0.00  0.00    +0.014 C 
BRANCH   3  16
ATOM      9  O   UNL     1      33.989 -14.808 -26.510  0.00  0.00    -0.270 OA
ATOM     10  N   UNL     1      33.483 -13.598 -24.574  0.00  0.00    -0.276 N 
ATOM     11  C   UNL     1      34.055 -11.058 -23.286  0.00  0.00    +0.102 C 
ATOM     12  C   UNL     1      34.085 -11.223 -24.809  0.00  0.00    +0.033 C 
ATOM     13  C   UNL     1      34.239 -12.393 -22.558  0.00  0.00    +0.033 C 
ATOM     14  C   UNL     1      33.186 -12.360 -25.290  0.00  0.00    +0.094 C 
ATOM     15  C   UNL     1      33.352 -13.508 -23.115  0.00  0.00    +0.094 C 
ATOM     16  C   UNL     1      33.879 -14.731 -25.288  0.00  0.00    +0.249 C 
BRANCH  11  18
ATOM     17  O   UNL     1      32.060 -10.785 -21.962  0.00  0.00    -0.250 OA
ATOM     18  C   UNL     1      32.784 -10.380 -22.861  0.00  0.00    +0.317 C 
BRANCH  18  19
ATOM     19  O   UNL     1      32.583  -9.269 -23.626  0.00  0.00    -0.444 OA
ATOM     20  C   UNL     1      31.935  -8.178 -22.965  0.00  0.00    +0.256 C 
ENDBRANCH  18  19
ENDBRANCH  11  18
ENDBRANCH   3  16
ENDBRANCH   1   6
BRANCH   1  21
ATOM     21  C   UNL     1      35.610 -19.415 -21.039  0.00  0.00    +0.145 C 
BRANCH  21  28
ATOM     22  N   UNL     1      35.352 -20.883 -19.109  0.00  0.00    -0.392 NA
ATOM     23  N   UNL     1      32.616 -21.055 -19.493  0.00  0.00    -0.200 NA
ATOM     24  N   UNL     1      32.430 -22.446 -17.651  0.00  0.00    -0.271 NA
ATOM     25  N   UNL     1      34.363 -23.067 -16.375  0.00  0.00    -0.310 NA
ATOM     26  N   UNL     1      36.489 -22.251 -17.004  0.00  0.00    -0.329 N 
ATOM     27  N   UNL     1      32.239 -23.856 -15.785  0.00  0.00    -0.283 N 
ATOM     28  C   UNL     1      34.750 -20.236 -20.119  0.00  0.00    +0.133 C 
ATOM     29  C   UNL     1      33.397 -20.322 -20.308  0.00  0.00    +0.193 C 
ATOM     30  C   UNL     1      34.568 -21.616 -18.294  0.00  0.00    +0.248 C 
ATOM     31  C   UNL     1      33.187 -21.711 -18.476  0.00  0.00    +0.131 C 
ATOM     32  C   UNL     1      35.089 -22.318 -17.225  0.00  0.00    +0.231 C 
ATOM     33  C   UNL     1      33.053 -23.086 -16.644  0.00  0.00    +0.207 C 
ATOM     34  H   UNL     1      36.893 -22.740 -16.252  0.00  0.00    +0.145 HD
ATOM     35  H   UNL     1      37.058 -21.716 -17.604  0.00  0.00    +0.145 HD
ATOM     36  H   UNL     1      31.268 -23.905 -15.940  0.00  0.00    +0.156 HD
ATOM     37  H   UNL     1      32.643 -24.346 -15.032  0.00  0.00    +0.156 HD
ENDBRANCH  21  28
ENDBRANCH   1  21
TORSDOF 6
ENDMDL
MODEL 3
REMARK VINA RESULT:     -12.3      1.303      2.144
REMARK  Name = 25243853
REMARK  6 active torsions:
REMARK  status: ('A' for Active; 'I' for Inactive)
REMARK    1  A    between atoms: N_1  and  C_6
REMARK    2  A    between atoms: N_1  and  C_21
REMARK    3  A    between atoms: C_3  and  C_16
REMARK    4  A    between atoms: C_11  and  C_18
REMARK    5  A    between atoms: C_18  and  O_19
REMARK    6  A    between atoms: C_21  and  C_28
REMARK                            x       y       z     vdW  Elec       q    Type
REMARK                         _______ _______ _______ _____ _____    ______ ____
ROOT
ATOM      1  N   UNL     1      34.674 -19.510 -21.413  0.00  0.00    -0.327 N 
ATOM      2  H   UNL     1      34.040 -19.539 -22.165  0.00  0.00    +0.147 HD
ENDROOT
BRANCH   1   6
ATOM      3  C   UNL     1      33.988 -22.025 -18.119  0.00  0.00    +0.054 C 
ATOM      4  C   UNL     1      35.288 -21.820 -18.581  0.00  0.00    +0.006 C 
ATOM      5  C   UNL     1      32.916 -21.394 -18.750  0.00  0.00    +0.006 C 
ATOM      6  C   UNL     1      34.444 -20.355 -20.306  0.00  0.00    +0.045 C 
ATOM      7  C   UNL     1      35.516 -20.985 -19.674  0.00  0.00    +0.014 C 
ATOM      8  C   UNL     1      33.143 -20.560 -19.844  0.00  0.00    +0.014 C 
BRANCH   3  16
ATOM      9  O   UNL     1      32.592 -23.298 -16.818  0.00  0.00    -0.270 OA
ATOM     10  N   UNL     1      34.831 -23.225 -16.147  0.00  0.00    -0.276 N 
ATOM     11  C   UNL     1      36.465 -22.791 -13.785  0.00  0.00    +0.102 C 
ATOM     12  C   UNL     1      35.045 -23.359 -13.699  0.00  0.00    +0.033 C 
ATOM     13  C   UNL     1      36.695 -22.009 -15.082  0.00  0.00    +0.033 C 
ATOM     14  C   UNL     1      34.625 -24.078 -14.979  0.00  0.00    +0.094 C 
ATOM     15  C   UNL     1      36.209 -22.754 -16.327  0.00  0.00    +0.094 C 
ATOM     16  C   UNL     1      33.747 -22.904 -16.968  0.00  0.00    +0.249 C 
BRANCH  11  18
ATOM     17  O   UNL     1      38.508 -23.969 -14.282  0.00  0.00    -0.250 OA
ATOM     18  C   UNL     1      37.476 -23.891 -13.629  0.00  0.00    +0.317 C 
BRANCH  18  19
ATOM     19  O   UNL     1      37.058 -24.759 -12.665  0.00  0.00    -0.444 OA
ATOM     20  C   UNL     1      37.427 -26.127 -12.870  0.00  0.00    +0.256 C 
ENDBRANCH  18  19
ENDBRANCH  11  18
ENDBRANCH   3  16
ENDBRANCH   1   6
BRANCH   1  21
ATOM     21  C   UNL     1      35.788 -18.617 -21.489  0.00  0.00    +0.145 C 
BRANCH  21  28
ATOM     22  N   UNL     1      34.974 -16.697 -22.754  0.00  0.00    -0.392 NA
ATOM     23  N   UNL     1      34.822 -15.143 -20.468  0.00  0.00    -0.200 NA
ATOM     24  N   UNL     1      34.052 -13.353 -21.719  0.00  0.00    -0.271 NA
ATOM     25  N   UNL     1      33.752 -13.544 -24.091  0.00  0.00    -0.310 NA
ATOM     26  N   UNL     1      34.250 -15.586 -25.170  0.00  0.00    -0.329 N 
ATOM     27  N   UNL     1      33.273 -11.537 -22.986  0.00  0.00    -0.283 N 
ATOM     28  C   UNL     1      35.316 -17.191 -21.554  0.00  0.00    +0.133 C 
ATOM     29  C   UNL     1      35.240 -16.422 -20.424  0.00  0.00    +0.193 C 
ATOM     30  C   UNL     1      34.555 -15.418 -22.796  0.00  0.00    +0.248 C 
ATOM     31  C   UNL     1      34.472 -14.622 -21.651  0.00  0.00    +0.131 C 
ATOM     32  C   UNL     1      34.179 -14.816 -23.981  0.00  0.00    +0.231 C 
ATOM     33  C   UNL     1      33.713 -12.877 -22.933  0.00  0.00    +0.207 C 
ATOM     34  H   UNL     1      33.990 -15.187 -26.032  0.00  0.00    +0.145 HD
ATOM     35  H   UNL     1      34.559 -16.520 -25.134  0.00  0.00    +0.145 HD
ATOM     36  H   UNL     1      33.226 -11.001 -22.161  0.00  0.00    +0.156 HD
ATOM     37  H   UNL     1      33.013 -11.137 -23.847  0.00  0.00    +0.156 HD
ENDBRANCH  21  28
ENDBRANCH   1  21
TORSDOF 6
ENDMDL
MODEL 4
REMARK VINA RESULT:     -12.1      1.742      3.285
REMARK  Name = 25243853
REMARK  6 active torsions:
REMARK  status: ('A' for Active; 'I' for Inactive)
REMARK    1  A    between atoms: N_1  and  C_6
REMARK    2  A    between atoms: N_1  and  C_21
REMARK    3  A    between atoms: C_3  and  C_16
REMARK    4  A    between atoms: C_11  and  C_18
REMARK    5  A    between atoms: C_18  and  O_19
REMARK    6  A    between atoms: C_21  and  C_28
REMARK                            x       y       z     vdW  Elec       q    Type
REMARK                         _______ _______ _______ _____ _____    ______ ____
ROOT
ATOM      1  N   UNL     1      35.162 -20.622 -20.322  0.00  0.00    -0.327 N 
ATOM      2  H   UNL     1      34.680 -20.867 -21.144  0.00  0.00    +0.147 HD
ENDROOT
BRANCH   1   6
ATOM      3  C   UNL     1      34.303 -22.728 -16.790  0.00  0.00    +0.054 C 
ATOM      4  C   UNL     1      33.291 -22.483 -17.719  0.00  0.00    +0.006 C 
ATOM      5  C   UNL     1      35.599 -22.274 -17.034  0.00  0.00    +0.006 C 
ATOM      6  C   UNL     1      34.873 -21.330 -19.136  0.00  0.00    +0.045 C 
ATOM      7  C   UNL     1      33.577 -21.784 -18.893  0.00  0.00    +0.014 C 
ATOM      8  C   UNL     1      35.884 -21.575 -18.206  0.00  0.00    +0.014 C 
BRANCH   3  16
ATOM      9  O   UNL     1      32.814 -23.691 -15.335  0.00  0.00    -0.270 OA
ATOM     10  N   UNL     1      35.071 -23.845 -14.740  0.00  0.00    -0.276 N 
ATOM     11  C   UNL     1      36.843 -23.415 -12.480  0.00  0.00    +0.102 C 
ATOM     12  C   UNL     1      35.368 -23.787 -12.298  0.00  0.00    +0.033 C 
ATOM     13  C   UNL     1      37.114 -22.787 -13.850  0.00  0.00    +0.033 C 
ATOM     14  C   UNL     1      34.809 -24.558 -13.493  0.00  0.00    +0.094 C 
ATOM     15  C   UNL     1      36.488 -23.571 -15.005  0.00  0.00    +0.094 C 
ATOM     16  C   UNL     1      34.003 -23.463 -15.555  0.00  0.00    +0.249 C 
BRANCH  11  18
ATOM     17  O   UNL     1      37.371 -25.599 -11.608  0.00  0.00    -0.250 OA
ATOM     18  C   UNL     1      37.714 -24.616 -12.252  0.00  0.00    +0.317 C 
BRANCH  18  19
ATOM     19  O   UNL     1      38.917 -24.430 -12.866  0.00  0.00    -0.444 OA
ATOM     20  C   UNL     1      39.483 -25.595 -13.475  0.00  0.00    +0.256 C 
ENDBRANCH  18  19
ENDBRANCH  11  18
ENDBRANCH   3  16
ENDBRANCH   1   6
BRANCH   1  21
ATOM     21  C   UNL     1      36.125 -19.567 -20.381  0.00  0.00    +0.145 C 
BRANCH  21  28
ATOM     22  N   UNL     1      35.066 -18.712 -22.405  0.00  0.00    -0.392 NA
ATOM     23  N   UNL     1      35.223 -16.104 -21.493  0.00  0.00    -0.200 NA
ATOM     24  N   UNL     1      34.213 -15.349 -23.435  0.00  0.00    -0.271 NA
ATOM     25  N   UNL     1      33.555 -16.881 -25.159  0.00  0.00    -0.310 NA
ATOM     26  N   UNL     1      33.941 -19.194 -24.875  0.00  0.00    -0.329 N 
ATOM     27  N   UNL     1      33.191 -14.581 -25.403  0.00  0.00    -0.283 N 
ATOM     28  C   UNL     1      35.606 -18.425 -21.210  0.00  0.00    +0.133 C 
ATOM     29  C   UNL     1      35.682 -17.135 -20.760  0.00  0.00    +0.193 C 
ATOM     30  C   UNL     1      34.606 -17.679 -23.137  0.00  0.00    +0.248 C 
ATOM     31  C   UNL     1      34.678 -16.358 -22.689  0.00  0.00    +0.131 C 
ATOM     32  C   UNL     1      34.033 -17.868 -24.379  0.00  0.00    +0.231 C 
ATOM     33  C   UNL     1      33.676 -15.657 -24.630  0.00  0.00    +0.207 C 
ATOM     34  H   UNL     1      33.539 -19.363 -25.757  0.00  0.00    +0.145 HD
ATOM     35  H   UNL     1      34.281 -19.945 -24.337  0.00  0.00    +0.145 HD
ATOM     36  H   UNL     1      33.257 -13.660 -25.060  0.00  0.00    +0.156 HD
ATOM     37  H   UNL     1      32.788 -14.749 -26.286  0.00  0.00    +0.156 HD
ENDBRANCH  21  28
ENDBRANCH   1  21
TORSDOF 6
ENDMDL
MODEL 5
REMARK VINA RESULT:     -12.1      4.517      8.215
REMARK  Name = 25243853
REMARK  6 active torsions:
REMARK  status: ('A' for Active; 'I' for Inactive)
REMARK    1  A    between atoms: N_1  and  C_6
REMARK    2  A    between atoms: N_1  and  C_21
REMARK    3  A    between atoms: C_3  and  C_16
REMARK    4  A    between atoms: C_11  and  C_18
REMARK    5  A    between atoms: C_18  and  O_19
REMARK    6  A    between atoms: C_21  and  C_28
REMARK                            x       y       z     vdW  Elec       q    Type
REMARK                         _______ _______ _______ _____ _____    ______ ____
ROOT
ATOM      1  N   UNL     1      33.498 -11.063 -24.313  0.00  0.00    -0.327 N 
ATOM      2  H   UNL     1      32.894 -10.668 -24.982  0.00  0.00    +0.147 HD
ENDROOT
BRANCH   1   6
ATOM      3  C   UNL     1      33.959 -15.238 -24.249  0.00  0.00    +0.054 C 
ATOM      4  C   UNL     1      34.203 -14.492 -23.096  0.00  0.00    +0.006 C 
ATOM      5  C   UNL     1      33.562 -14.598 -25.423  0.00  0.00    +0.006 C 
ATOM      6  C   UNL     1      33.652 -12.466 -24.291  0.00  0.00    +0.045 C 
ATOM      7  C   UNL     1      34.049 -13.105 -23.117  0.00  0.00    +0.014 C 
ATOM      8  C   UNL     1      33.409 -13.212 -25.444  0.00  0.00    +0.014 C 
BRANCH   3  16
ATOM      9  O   UNL     1      33.527 -17.321 -25.105  0.00  0.00    -0.270 OA
ATOM     10  N   UNL     1      34.926 -17.255 -23.231  0.00  0.00    -0.276 N 
ATOM     11  C   UNL     1      35.281 -18.509 -20.635  0.00  0.00    +0.102 C 
ATOM     12  C   UNL     1      34.628 -19.244 -21.811  0.00  0.00    +0.033 C 
ATOM     13  C   UNL     1      35.209 -16.988 -20.795  0.00  0.00    +0.033 C 
ATOM     14  C   UNL     1      35.091 -18.705 -23.164  0.00  0.00    +0.094 C 
ATOM     15  C   UNL     1      35.633 -16.509 -22.184  0.00  0.00    +0.094 C 
ATOM     16  C   UNL     1      34.121 -16.697 -24.227  0.00  0.00    +0.249 C 
BRANCH  11  18
ATOM     17  O   UNL     1      37.614 -18.674 -21.214  0.00  0.00    -0.250 OA
ATOM     18  C   UNL     1      36.699 -18.969 -20.457  0.00  0.00    +0.317 C 
BRANCH  18  19
ATOM     19  O   UNL     1      36.789 -19.748 -19.342  0.00  0.00    -0.444 OA
ATOM     20  C   UNL     1      36.103 -21.002 -19.413  0.00  0.00    +0.256 C 
ENDBRANCH  18  19
ENDBRANCH  11  18
ENDBRANCH   3  16
ENDBRANCH   1   6
BRANCH   1  21
ATOM     21  C   UNL     1      34.182 -10.193 -23.408  0.00  0.00    +0.145 C 
BRANCH  21  28
ATOM     22  N   UNL     1      33.542  -7.841 -23.327  0.00  0.00    -0.392 NA
ATOM     23  N   UNL     1      31.363  -8.398 -21.712  0.00  0.00    -0.200 NA
ATOM     24  N   UNL     1      30.803  -6.152 -21.670  0.00  0.00    -0.271 NA
ATOM     25  N   UNL     1      32.120  -4.529 -22.846  0.00  0.00    -0.310 NA
ATOM     26  N   UNL     1      34.019  -5.229 -24.065  0.00  0.00    -0.329 N 
ATOM     27  N   UNL     1      30.232  -3.875 -21.625  0.00  0.00    -0.283 N 
ATOM     28  C   UNL     1      33.267  -9.096 -22.939  0.00  0.00    +0.133 C 
ATOM     29  C   UNL     1      32.189  -9.370 -22.141  0.00  0.00    +0.193 C 
ATOM     30  C   UNL     1      32.714  -6.869 -22.897  0.00  0.00    +0.248 C 
ATOM     31  C   UNL     1      31.610  -7.135 -22.083  0.00  0.00    +0.131 C 
ATOM     32  C   UNL     1      32.908  -5.545 -23.241  0.00  0.00    +0.231 C 
ATOM     33  C   UNL     1      31.095  -4.899 -22.070  0.00  0.00    +0.207 C 
ATOM     34  H   UNL     1      34.187  -4.295 -24.328  0.00  0.00    +0.145 HD
ATOM     35  H   UNL     1      34.622  -5.942 -24.374  0.00  0.00    +0.145 HD
ATOM     36  H   UNL     1      29.463  -4.095 -21.051  0.00  0.00    +0.156 HD
ATOM     37  H   UNL     1      30.399  -2.941 -21.887  0.00  0.00    +0.156 HD
ENDBRANCH  21  28
ENDBRANCH   1  21
TORSDOF 6
ENDMDL
MODEL 6
REMARK VINA RESULT:     -12.1      4.608     11.149
REMARK  Name = 25243853
REMARK  6 active torsions:
REMARK  status: ('A' for Active; 'I' for Inactive)
REMARK    1  A    between atoms: N_1  and  C_6
REMARK    2  A    between atoms: N_1  and  C_21
REMARK    3  A    between atoms: C_3  and  C_16
REMARK    4  A    between atoms: C_11  and  C_18
REMARK    5  A    between atoms: C_18  and  O_19
REMARK    6  A    between atoms: C_21  and  C_28
REMARK                            x       y       z     vdW  Elec       q    Type
REMARK                         _______ _______ _______ _____ _____    ______ ____
ROOT
ATOM      1  N   UNL     1      35.068 -19.576 -21.841  0.00  0.00    -0.327 N 
ATOM      2  H   UNL     1      35.947 -20.012 -21.923  0.00  0.00    +0.147 HD
ENDROOT
BRANCH   1   6
ATOM      3  C   UNL     1      34.270 -16.207 -24.219  0.00  0.00    +0.054 C 
ATOM      4  C   UNL     1      35.041 -16.078 -23.064  0.00  0.00    +0.006 C 
ATOM      5  C   UNL     1      33.765 -17.454 -24.585  0.00  0.00    +0.006 C 
ATOM      6  C   UNL     1      34.800 -18.444 -22.640  0.00  0.00    +0.045 C 
ATOM      7  C   UNL     1      35.307 -17.197 -22.274  0.00  0.00    +0.014 C 
ATOM      8  C   UNL     1      34.029 -18.573 -23.795  0.00  0.00    +0.014 C 
BRANCH   3  16
ATOM      9  O   UNL     1      34.143 -15.173 -26.262  0.00  0.00    -0.270 OA
ATOM     10  N   UNL     1      33.576 -13.857 -24.413  0.00  0.00    -0.276 N 
ATOM     11  C   UNL     1      34.119 -11.253 -23.246  0.00  0.00    +0.102 C 
ATOM     12  C   UNL     1      34.200 -11.501 -24.755  0.00  0.00    +0.033 C 
ATOM     13  C   UNL     1      34.269 -12.547 -22.441  0.00  0.00    +0.033 C 
ATOM     14  C   UNL     1      33.312 -12.659 -25.206  0.00  0.00    +0.094 C 
ATOM     15  C   UNL     1      33.396 -13.688 -22.967  0.00  0.00    +0.094 C 
ATOM     16  C   UNL     1      33.991 -15.029 -25.050  0.00  0.00    +0.249 C 
BRANCH  11  18
ATOM     17  O   UNL     1      32.413  -9.570 -23.504  0.00  0.00    -0.250 OA
ATOM     18  C   UNL     1      32.838 -10.548 -22.903  0.00  0.00    +0.317 C 
BRANCH  18  19
ATOM     19  O   UNL     1      32.249 -11.164 -21.840  0.00  0.00    -0.444 OA
ATOM     20  C   UNL     1      31.528 -10.303 -20.953  0.00  0.00    +0.256 C 
ENDBRANCH  18  19
ENDBRANCH  11  18
ENDBRANCH   3  16
ENDBRANCH   1   6
BRANCH   1  21
ATOM     21  C   UNL     1      34.118 -20.118 -20.920  0.00  0.00    +0.145 C 
BRANCH  21  28
ATOM     22  N   UNL     1      34.106 -21.516 -18.922  0.00  0.00    -0.392 NA
ATOM     23  N   UNL     1      36.777 -20.985 -18.426  0.00  0.00    -0.200 NA
ATOM     24  N   UNL     1      36.708 -22.324 -16.539  0.00  0.00    -0.271 NA
ATOM     25  N   UNL     1      34.685 -23.439 -15.890  0.00  0.00    -0.310 NA
ATOM     26  N   UNL     1      32.733 -23.167 -17.193  0.00  0.00    -0.329 N 
ATOM     27  N   UNL     1      36.640 -23.681 -14.624  0.00  0.00    -0.283 N 
ATOM     28  C   UNL     1      34.818 -20.718 -19.732  0.00  0.00    +0.133 C 
ATOM     29  C   UNL     1      36.139 -20.456 -19.487  0.00  0.00    +0.193 C 
ATOM     30  C   UNL     1      34.747 -22.044 -17.861  0.00  0.00    +0.248 C 
ATOM     31  C   UNL     1      36.094 -21.786 -17.599  0.00  0.00    +0.131 C 
ATOM     32  C   UNL     1      34.104 -22.879 -16.967  0.00  0.00    +0.231 C 
ATOM     33  C   UNL     1      35.976 -23.123 -15.738  0.00  0.00    +0.207 C 
ATOM     34  H   UNL     1      32.246 -23.757 -16.575  0.00  0.00    +0.145 HD
ATOM     35  H   UNL     1      32.269 -22.776 -17.968  0.00  0.00    +0.145 HD
ATOM     36  H   UNL     1      37.590 -23.479 -14.466  0.00  0.00    +0.156 HD
ATOM     37  H   UNL     1      36.153 -24.272 -14.005  0.00  0.00    +0.156 HD
ENDBRANCH  21  28
ENDBRANCH   1  21
TORSDOF 6
ENDMDL
MODEL 7
REMARK VINA RESULT:     -12.0      4.499     11.140
REMARK  Name = 25243853
REMARK  6 active torsions:
REMARK  status: ('A' for Active; 'I' for Inactive)
REMARK    1  A    between atoms: N_1  and  C_6
REMARK    2  A    between atoms: N_1  and  C_21
REMARK    3  A    between atoms: C_3  and  C_16
REMARK    4  A    between atoms: C_11  and  C_18
REMARK    5  A    between atoms: C_18  and  O_19
REMARK    6  A    between atoms: C_21  and  C_28
REMARK                            x       y       z     vdW  Elec       q    Type
REMARK                         _______ _______ _______ _____ _____    ______ ____
ROOT
ATOM      1  N   UNL     1      35.251 -19.909 -21.549  0.00  0.00    -0.327 N 
ATOM      2  H   UNL     1      34.946 -20.799 -21.837  0.00  0.00    +0.147 HD
ENDROOT
BRANCH   1   6
ATOM      3  C   UNL     1      34.342 -16.598 -23.969  0.00  0.00    +0.054 C 
ATOM      4  C   UNL     1      35.191 -16.448 -22.872  0.00  0.00    +0.006 C 
ATOM      5  C   UNL     1      33.797 -17.848 -24.263  0.00  0.00    +0.006 C 
ATOM      6  C   UNL     1      34.947 -18.797 -22.362  0.00  0.00    +0.045 C 
ATOM      7  C   UNL     1      35.493 -17.548 -22.069  0.00  0.00    +0.014 C 
ATOM      8  C   UNL     1      34.098 -18.947 -23.459  0.00  0.00    +0.014 C 
BRANCH   3  16
ATOM      9  O   UNL     1      34.151 -15.605 -26.028  0.00  0.00    -0.270 OA
ATOM     10  N   UNL     1      33.605 -14.264 -24.190  0.00  0.00    -0.276 N 
ATOM     11  C   UNL     1      34.130 -11.631 -23.084  0.00  0.00    +0.102 C 
ATOM     12  C   UNL     1      34.181 -11.906 -24.590  0.00  0.00    +0.033 C 
ATOM     13  C   UNL     1      34.321 -12.907 -22.259  0.00  0.00    +0.033 C 
ATOM     14  C   UNL     1      33.302 -13.086 -24.998  0.00  0.00    +0.094 C 
ATOM     15  C   UNL     1      33.455 -14.071 -22.743  0.00  0.00    +0.094 C 
ATOM     16  C   UNL     1      34.024 -15.442 -24.815  0.00  0.00    +0.249 C 
BRANCH  11  18
ATOM     17  O   UNL     1      32.073 -11.337 -21.862  0.00  0.00    -0.250 OA
ATOM     18  C   UNL     1      32.846 -10.940 -22.724  0.00  0.00    +0.317 C 
BRANCH  18  19
ATOM     19  O   UNL     1      32.693  -9.830 -23.500  0.00  0.00    -0.444 OA
ATOM     20  C   UNL     1      33.190  -8.613 -22.935  0.00  0.00    +0.256 C 
ENDBRANCH  18  19
ENDBRANCH  11  18
ENDBRANCH   3  16
ENDBRANCH   1   6
BRANCH   1  21
ATOM     21  C   UNL     1      35.983 -19.799 -20.326  0.00  0.00    +0.145 C 
BRANCH  21  28
ATOM     22  N   UNL     1      36.210 -21.038 -18.238  0.00  0.00    -0.392 NA
ATOM     23  N   UNL     1      33.701 -22.169 -18.532  0.00  0.00    -0.200 NA
ATOM     24  N   UNL     1      33.972 -23.322 -16.542  0.00  0.00    -0.271 NA
ATOM     25  N   UNL     1      35.982 -23.103 -15.253  0.00  0.00    -0.310 NA
ATOM     26  N   UNL     1      37.714 -21.692 -16.022  0.00  0.00    -0.329 N 
ATOM     27  N   UNL     1      34.244 -24.492 -14.525  0.00  0.00    -0.283 N 
ATOM     28  C   UNL     1      35.440 -20.753 -19.298  0.00  0.00    +0.133 C 
ATOM     29  C   UNL     1      34.199 -21.312 -19.443  0.00  0.00    +0.193 C 
ATOM     30  C   UNL     1      35.710 -21.895 -17.327  0.00  0.00    +0.248 C 
ATOM     31  C   UNL     1      34.446 -22.473 -17.461  0.00  0.00    +0.131 C 
ATOM     32  C   UNL     1      36.423 -22.254 -16.199  0.00  0.00    +0.231 C 
ATOM     33  C   UNL     1      34.760 -23.595 -15.485  0.00  0.00    +0.207 C 
ATOM     34  H   UNL     1      38.249 -21.927 -15.230  0.00  0.00    +0.145 HD
ATOM     35  H   UNL     1      38.076 -21.068 -16.692  0.00  0.00    +0.145 HD
ATOM     36  H   UNL     1      33.349 -24.883 -14.649  0.00  0.00    +0.156 HD
ATOM     37  H   UNL     1      34.778 -24.727 -13.732  0.00  0.00    +0.156 HD
ENDBRANCH  21  28
ENDBRANCH   1  21
TORSDOF 6
ENDMDL
MODEL 8
REMARK VINA RESULT:     -11.9      4.082     10.913
REMARK  Name = 25243853
REMARK  6 active torsions:
REMARK  status: ('A' for Active; 'I' for Inactive)
REMARK    1  A    between atoms: N_1  and  C_6
REMARK    2  A    between atoms: N_1  and  C_21
REMARK    3  A    between atoms: C_3  and  C_16
REMARK    4  A    between atoms: C_11  and  C_18
REMARK    5  A    between atoms: C_18  and  O_19
REMARK    6  A    between atoms: C_21  and  C_28
REMARK                            x       y       z     vdW  Elec       q    Type
REMARK                         _______ _______ _______ _____ _____    ______ ____
ROOT
ATOM      1  N   UNL     1      36.159 -20.233 -19.627  0.00  0.00    -0.327 N 
ATOM      2  H   UNL     1      36.614 -19.849 -18.843  0.00  0.00    +0.147 HD
ENDROOT
BRANCH   1   6
ATOM      3  C   UNL     1      34.909 -17.642 -22.688  0.00  0.00    +0.054 C 
ATOM      4  C   UNL     1      34.150 -18.771 -22.377  0.00  0.00    +0.006 C 
ATOM      5  C   UNL     1      36.081 -17.374 -21.982  0.00  0.00    +0.006 C 
ATOM      6  C   UNL     1      35.738 -19.362 -20.655  0.00  0.00    +0.045 C 
ATOM      7  C   UNL     1      34.565 -19.631 -21.360  0.00  0.00    +0.014 C 
ATOM      8  C   UNL     1      36.496 -18.233 -20.966  0.00  0.00    +0.014 C 
BRANCH   3  16
ATOM      9  O   UNL     1      34.560 -17.171 -24.905  0.00  0.00    -0.270 OA
ATOM     10  N   UNL     1      33.996 -15.473 -23.398  0.00  0.00    -0.276 N 
ATOM     11  C   UNL     1      34.376 -12.628 -22.961  0.00  0.00    +0.102 C 
ATOM     12  C   UNL     1      34.383 -13.243 -24.364  0.00  0.00    +0.033 C 
ATOM     13  C   UNL     1      34.693 -13.661 -21.876  0.00  0.00    +0.033 C 
ATOM     14  C   UNL     1      33.575 -14.537 -24.437  0.00  0.00    +0.094 C 
ATOM     15  C   UNL     1      33.893 -14.957 -22.029  0.00  0.00    +0.094 C 
ATOM     16  C   UNL     1      34.472 -16.737 -23.758  0.00  0.00    +0.249 C 
BRANCH  11  18
ATOM     17  O   UNL     1      32.175 -12.425 -21.998  0.00  0.00    -0.250 OA
ATOM     18  C   UNL     1      33.061 -11.951 -22.697  0.00  0.00    +0.317 C 
BRANCH  18  19
ATOM     19  O   UNL     1      33.026 -10.755 -23.350  0.00  0.00    -0.444 OA
ATOM     20  C   UNL     1      32.579  -9.642 -22.568  0.00  0.00    +0.256 C 
ENDBRANCH  18  19
ENDBRANCH  11  18
ENDBRANCH   3  16
ENDBRANCH   1   6
BRANCH   1  21
ATOM     21  C   UNL     1      35.954 -21.647 -19.675  0.00  0.00    +0.145 C 
BRANCH  21  28
ATOM     22  N   UNL     1      35.382 -22.468 -17.451  0.00  0.00    -0.392 NA
ATOM     23  N   UNL     1      32.676 -22.420 -18.032  0.00  0.00    -0.200 NA
ATOM     24  N   UNL     1      32.191 -23.200 -15.907  0.00  0.00    -0.271 NA
ATOM     25  N   UNL     1      33.940 -23.658 -14.332  0.00  0.00    -0.310 NA
ATOM     26  N   UNL     1      36.192 -23.309 -14.955  0.00  0.00    -0.329 N 
ATOM     27  N   UNL     1      31.696 -23.993 -13.754  0.00  0.00    -0.283 N 
ATOM     28  C   UNL     1      34.936 -22.068 -18.652  0.00  0.00    +0.133 C 
ATOM     29  C   UNL     1      33.598 -22.044 -18.939  0.00  0.00    +0.193 C 
ATOM     30  C   UNL     1      34.457 -22.843 -16.546  0.00  0.00    +0.248 C 
ATOM     31  C   UNL     1      33.089 -22.823 -16.825  0.00  0.00    +0.131 C 
ATOM     32  C   UNL     1      34.812 -23.270 -15.281  0.00  0.00    +0.231 C 
ATOM     33  C   UNL     1      32.658 -23.598 -14.709  0.00  0.00    +0.207 C 
ATOM     34  H   UNL     1      36.479 -23.609 -14.062  0.00  0.00    +0.145 HD
ATOM     35  H   UNL     1      36.864 -23.036 -15.621  0.00  0.00    +0.145 HD
ATOM     36  H   UNL     1      30.738 -23.968 -13.981  0.00  0.00    +0.156 HD
ATOM     37  H   UNL     1      31.982 -24.293 -12.861  0.00  0.00    +0.156 HD
ENDBRANCH  21  28
ENDBRANCH   1  21
TORSDOF 6
ENDMDL
MODEL 9
REMARK VINA RESULT:     -11.7      3.946     11.474
REMARK  Name = 25243853
REMARK  6 active torsions:
REMARK  status: ('A' for Active; 'I' for Inactive)
REMARK    1  A    between atoms: N_1  and  C_6
REMARK    2  A    between atoms: N_1  and  C_21
REMARK    3  A    between atoms: C_3  and  C_16
REMARK    4  A    between atoms: C_11  and  C_18
REMARK    5  A    between atoms: C_18  and  O_19
REMARK    6  A    between atoms: C_21  and  C_28
REMARK                            x       y       z     vdW  Elec       q    Type
REMARK                         _______ _______ _______ _____ _____    ______ ____
ROOT
ATOM      1  N   UNL     1      36.490 -21.675 -18.013  0.00  0.00    -0.327 N 
ATOM      2  H   UNL     1      36.263 -22.627 -18.112  0.00  0.00    +0.147 HD
ENDROOT
BRANCH   1   6
ATOM      3  C   UNL     1      35.694 -19.080 -21.219  0.00  0.00    +0.054 C 
ATOM      4  C   UNL     1      36.935 -19.042 -20.583  0.00  0.00    +0.006 C 
ATOM      5  C   UNL     1      34.718 -19.979 -20.790  0.00  0.00    +0.006 C 
ATOM      6  C   UNL     1      36.223 -20.803 -19.090  0.00  0.00    +0.045 C 
ATOM      7  C   UNL     1      37.200 -19.905 -19.519  0.00  0.00    +0.014 C 
ATOM      8  C   UNL     1      34.982 -20.841 -19.726  0.00  0.00    +0.014 C 
BRANCH   3  16
ATOM      9  O   UNL     1      35.799 -18.545 -23.446  0.00  0.00    -0.270 OA
ATOM     10  N   UNL     1      34.742 -16.979 -22.067  0.00  0.00    -0.276 N 
ATOM     11  C   UNL     1      34.717 -14.133 -21.491  0.00  0.00    +0.102 C 
ATOM     12  C   UNL     1      35.100 -14.680 -22.870  0.00  0.00    +0.033 C 
ATOM     13  C   UNL     1      34.890 -15.179 -20.387  0.00  0.00    +0.033 C 
ATOM     14  C   UNL     1      34.467 -16.041 -23.153  0.00  0.00    +0.094 C 
ATOM     15  C   UNL     1      34.284 -16.537 -20.745  0.00  0.00    +0.094 C 
ATOM     16  C   UNL     1      35.415 -18.173 -22.339  0.00  0.00    +0.249 C 
BRANCH  11  18
ATOM     17  O   UNL     1      32.679 -13.388 -22.540  0.00  0.00    -0.250 OA
ATOM     18  C   UNL     1      33.313 -13.598 -21.516  0.00  0.00    +0.317 C 
BRANCH  18  19
ATOM     19  O   UNL     1      32.882 -13.392 -20.239  0.00  0.00    -0.444 OA
ATOM     20  C   UNL     1      32.074 -12.227 -20.044  0.00  0.00    +0.256 C 
ENDBRANCH  18  19
ENDBRANCH  11  18
ENDBRANCH   3  16
ENDBRANCH   1   6
BRANCH   1  21
ATOM     21  C   UNL     1      37.074 -21.234 -16.785  0.00  0.00    +0.145 C 
BRANCH  21  28
ATOM     22  N   UNL     1      37.893 -23.112 -15.462  0.00  0.00    -0.392 NA
ATOM     23  N   UNL     1      35.523 -23.260 -14.040  0.00  0.00    -0.200 NA
ATOM     24  N   UNL     1      36.352 -25.041 -12.815  0.00  0.00    -0.271 NA
ATOM     25  N   UNL     1      38.559 -25.891 -13.212  0.00  0.00    -0.310 NA
ATOM     26  N   UNL     1      39.909 -24.900 -14.879  0.00  0.00    -0.329 N 
ATOM     27  N   UNL     1      37.190 -26.847 -11.571  0.00  0.00    -0.283 N 
ATOM     28  C   UNL     1      36.881 -22.266 -15.709  0.00  0.00    +0.133 C 
ATOM     29  C   UNL     1      35.710 -22.339 -15.005  0.00  0.00    +0.193 C 
ATOM     30  C   UNL     1      37.704 -24.032 -14.496  0.00  0.00    +0.248 C 
ATOM     31  C   UNL     1      36.514 -24.118 -13.770  0.00  0.00    +0.131 C 
ATOM     32  C   UNL     1      38.684 -24.948 -14.165  0.00  0.00    +0.231 C 
ATOM     33  C   UNL     1      37.379 -25.880 -12.582  0.00  0.00    +0.207 C 
ATOM     34  H   UNL     1      40.627 -25.539 -14.669  0.00  0.00    +0.145 HD
ATOM     35  H   UNL     1      40.041 -24.227 -15.586  0.00  0.00    +0.145 HD
ATOM     36  H   UNL     1      36.339 -26.882 -11.077  0.00  0.00    +0.156 HD
ATOM     37  H   UNL     1      37.909 -27.486 -11.360  0.00  0.00    +0.156 HD
ENDBRANCH  21  28
ENDBRANCH   1  21
TORSDOF 6
ENDMDL
