MODEL 1
REMARK VINA RESULT:     -12.5      0.000      0.000
REMARK  Name = 10430360
REMARK  6 active torsions:
REMARK  status: ('A' for Active; 'I' for Inactive)
REMARK    1  A    between atoms: C_4  and  C_18
REMARK    2  A    between atoms: C_7  and  C_14
REMARK    3  A    between atoms: C_17  and  O_23
REMARK    4  A    between atoms: O_23  and  C_24
REMARK    5  A    between atoms: C_24  and  C_25
REMARK    6  A    between atoms: C_25  and  N_26
REMARK                            x       y       z     vdW  Elec       q    Type
REMARK                         _______ _______ _______ _____ _____    ______ ____
ROOT
ATOM      1  N   UNL     1      33.662 -24.669 -13.209  0.00  0.00    -0.276 N 
ATOM      2  N   UNL     1      34.630 -24.187 -14.007  0.00  0.00    -0.173 NA
ATOM      3  C   UNL     1      32.552 -23.663 -14.812  0.00  0.00    +0.036 A 
ATOM      4  C   UNL     1      33.953 -23.573 -14.985  0.00  0.00    +0.102 A 
ATOM      5  C   UNL     1      32.391 -24.388 -13.637  0.00  0.00    +0.075 A 
ATOM      6  C   UNL     1      31.415 -23.218 -15.507  0.00  0.00    +0.006 C 
ATOM      7  C   UNL     1      30.151 -23.524 -14.987  0.00  0.00    +0.033 C 
ATOM      8  C   UNL     1      31.141 -24.704 -13.101  0.00  0.00    +0.019 C 
ATOM      9  C   UNL     1      30.019 -24.255 -13.805  0.00  0.00    +0.004 C 
ATOM     10  H   UNL     1      33.850 -25.179 -12.389  0.00  0.00    +0.189 HD
ENDROOT
BRANCH   7  14
ATOM     11  N   UNL     1      28.581 -23.592 -16.882  0.00  0.00    -0.218 N 
ATOM     12  N   UNL     1      28.124 -22.154 -15.302  0.00  0.00    -0.206 NA
ATOM     13  N   UNL     1      27.454 -23.006 -17.315  0.00  0.00    -0.157 NA
ATOM     14  C   UNL     1      28.969 -23.078 -15.686  0.00  0.00    +0.149 C 
ATOM     15  C   UNL     1      27.219 -22.145 -16.324  0.00  0.00    +0.218 C 
ATOM     16  H   UNL     1      29.062 -24.301 -17.367  0.00  0.00    +0.176 HD
ENDBRANCH   7  14
BRANCH   4  18
ATOM     17  C   UNL     1      34.711 -22.071 -18.305  0.00  0.00    +0.138 C 
ATOM     18  C   UNL     1      34.656 -22.919 -16.053  0.00  0.00    +0.022 C 
ATOM     19  C   UNL     1      34.023 -22.706 -17.277  0.00  0.00    +0.038 C 
ATOM     20  C   UNL     1      36.023 -21.648 -18.125  0.00  0.00    +0.037 C 
ATOM     21  C   UNL     1      35.972 -22.498 -15.865  0.00  0.00    +0.002 C 
ATOM     22  C   UNL     1      36.656 -21.861 -16.901  0.00  0.00    +0.003 C 
BRANCH  17  23
ATOM     23  O   UNL     1      34.089 -21.859 -19.508  0.00  0.00    -0.478 OA
BRANCH  23  24
ATOM     24  C   UNL     1      33.851 -20.507 -19.878  0.00  0.00    +0.183 C 
BRANCH  24  25
ATOM     25  C   UNL     1      35.058 -19.992 -20.646  0.00  0.00    -0.029 C 
BRANCH  25  26
ATOM     26  N   UNL     1      34.707 -18.801 -21.420  0.00  0.00    +0.389 N 
ATOM     27  C   UNL     1      35.556 -17.666 -21.033  0.00  0.00    -0.077 C 
ATOM     28  C   UNL     1      34.810 -19.076 -22.860  0.00  0.00    -0.077 C 
ATOM     29  C   UNL     1      35.169 -16.401 -21.799  0.00  0.00    -0.023 C 
ATOM     30  C   UNL     1      34.398 -17.856 -23.685  0.00  0.00    -0.023 C 
ATOM     31  C   UNL     1      35.217 -16.627 -23.306  0.00  0.00    -0.004 C 
ATOM     32  H   UNL     1      33.738 -18.553 -21.216  0.00  0.00    -0.080 HD
ENDBRANCH  25  26
ENDBRANCH  24  25
ENDBRANCH  23  24
ENDBRANCH  17  23
ENDBRANCH   4  18
TORSDOF 6
ENDMDL
MODEL 2
REMARK VINA RESULT:     -11.8      2.105      3.990
REMARK  Name = 10430360
REMARK  6 active torsions:
REMARK  status: ('A' for Active; 'I' for Inactive)
REMARK    1  A    between atoms: C_4  and  C_18
REMARK    2  A    between atoms: C_7  and  C_14
REMARK    3  A    between atoms: C_17  and  O_23
REMARK    4  A    between atoms: O_23  and  C_24
REMARK    5  A    between atoms: C_24  and  C_25
REMARK    6  A    between atoms: C_25  and  N_26
REMARK                            x       y       z     vdW  Elec       q    Type
REMARK                         _______ _______ _______ _____ _____    ______ ____
ROOT
ATOM      1  N   UNL     1      37.466 -22.635 -16.090  0.00  0.00    -0.276 N 
ATOM      2  N   UNL     1      37.189 -21.978 -17.229  0.00  0.00    -0.173 NA
ATOM      3  C   UNL     1      35.279 -22.735 -16.222  0.00  0.00    +0.036 A 
ATOM      4  C   UNL     1      35.855 -22.038 -17.309  0.00  0.00    +0.102 A 
ATOM      5  C   UNL     1      36.362 -23.115 -15.437  0.00  0.00    +0.075 A 
ATOM      6  C   UNL     1      33.979 -23.084 -15.816  0.00  0.00    +0.006 C 
ATOM      7  C   UNL     1      33.822 -23.807 -14.627  0.00  0.00    +0.033 C 
ATOM      8  C   UNL     1      36.226 -23.836 -14.250  0.00  0.00    +0.019 C 
ATOM      9  C   UNL     1      34.927 -24.176 -13.859  0.00  0.00    +0.004 C 
ATOM     10  H   UNL     1      38.382 -22.761 -15.755  0.00  0.00    +0.189 HD
ENDROOT
BRANCH   7  14
ATOM     11  N   UNL     1      32.267 -24.991 -13.129  0.00  0.00    -0.218 N 
ATOM     12  N   UNL     1      31.356 -23.808 -14.724  0.00  0.00    -0.206 NA
ATOM     13  N   UNL     1      30.952 -25.176 -12.937  0.00  0.00    -0.157 NA
ATOM     14  C   UNL     1      32.495 -24.177 -14.192  0.00  0.00    +0.149 C 
ATOM     15  C   UNL     1      30.445 -24.441 -13.928  0.00  0.00    +0.218 C 
ATOM     16  H   UNL     1      32.973 -25.390 -12.571  0.00  0.00    +0.176 HD
ENDBRANCH   7  14
BRANCH   4  18
ATOM     17  C   UNL     1      35.207 -20.110 -20.426  0.00  0.00    +0.138 C 
ATOM     18  C   UNL     1      35.167 -21.432 -18.414  0.00  0.00    +0.022 C 
ATOM     19  C   UNL     1      35.880 -20.693 -19.359  0.00  0.00    +0.038 C 
ATOM     20  C   UNL     1      33.831 -20.254 -20.561  0.00  0.00    +0.037 C 
ATOM     21  C   UNL     1      33.787 -21.582 -18.543  0.00  0.00    +0.002 C 
ATOM     22  C   UNL     1      33.118 -20.993 -19.616  0.00  0.00    +0.003 C 
BRANCH  17  23
ATOM     23  O   UNL     1      35.907 -19.385 -21.355  0.00  0.00    -0.478 OA
BRANCH  23  24
ATOM     24  C   UNL     1      35.177 -18.411 -22.090  0.00  0.00    +0.183 C 
BRANCH  24  25
ATOM     25  C   UNL     1      35.740 -17.035 -21.770  0.00  0.00    -0.029 C 
BRANCH  25  26
ATOM     26  N   UNL     1      35.361 -16.070 -22.802  0.00  0.00    +0.389 N 
ATOM     27  C   UNL     1      34.600 -16.732 -23.871  0.00  0.00    -0.077 C 
ATOM     28  C   UNL     1      34.598 -14.961 -22.214  0.00  0.00    -0.077 C 
ATOM     29  C   UNL     1      34.238 -15.745 -24.983  0.00  0.00    -0.023 C 
ATOM     30  C   UNL     1      34.237 -13.917 -23.272  0.00  0.00    -0.023 C 
ATOM     31  C   UNL     1      33.475 -14.545 -24.434  0.00  0.00    -0.004 C 
ATOM     32  H   UNL     1      36.210 -15.683 -23.215  0.00  0.00    -0.080 HD
ENDBRANCH  25  26
ENDBRANCH  24  25
ENDBRANCH  23  24
ENDBRANCH  17  23
ENDBRANCH   4  18
TORSDOF 6
ENDMDL
MODEL 3
REMARK VINA RESULT:     -11.6      7.427     12.501
REMARK  Name = 10430360
REMARK  6 active torsions:
REMARK  status: ('A' for Active; 'I' for Inactive)
REMARK    1  A    between atoms: C_4  and  C_18
REMARK    2  A    between atoms: C_7  and  C_14
REMARK    3  A    between atoms: C_17  and  O_23
REMARK    4  A    between atoms: O_23  and  C_24
REMARK    5  A    between atoms: C_24  and  C_25
REMARK    6  A    between atoms: C_25  and  N_26
REMARK                            x       y       z     vdW  Elec       q    Type
REMARK                         _______ _______ _______ _____ _____    ______ ____
ROOT
ATOM      1  N   UNL     1      32.290 -12.812 -19.857  0.00  0.00    -0.276 N 
ATOM      2  N   UNL     1      32.660 -13.437 -20.989  0.00  0.00    -0.173 NA
ATOM      3  C   UNL     1      32.288 -11.208 -21.353  0.00  0.00    +0.036 A 
ATOM      4  C   UNL     1      32.658 -12.458 -21.901  0.00  0.00    +0.102 A 
ATOM      5  C   UNL     1      32.051 -11.473 -20.009  0.00  0.00    +0.075 A 
ATOM      6  C   UNL     1      32.126  -9.898 -21.835  0.00  0.00    +0.006 C 
ATOM      7  C   UNL     1      31.730  -8.899 -20.937  0.00  0.00    +0.033 C 
ATOM      8  C   UNL     1      31.656 -10.492 -19.097  0.00  0.00    +0.019 C 
ATOM      9  C   UNL     1      31.499  -9.193 -19.592  0.00  0.00    +0.004 C 
ATOM     10  H   UNL     1      32.198 -13.279 -18.996  0.00  0.00    +0.189 HD
ENDROOT
BRANCH   7  14
ATOM     11  N   UNL     1      32.106  -6.471 -20.790  0.00  0.00    -0.218 N 
ATOM     12  N   UNL     1      30.877  -7.157 -22.461  0.00  0.00    -0.206 NA
ATOM     13  N   UNL     1      31.794  -5.333 -21.430  0.00  0.00    -0.157 NA
ATOM     14  C   UNL     1      31.557  -7.546 -21.411  0.00  0.00    +0.149 C 
ATOM     15  C   UNL     1      31.049  -5.802 -22.433  0.00  0.00    +0.218 C 
ATOM     16  H   UNL     1      32.662  -6.518 -19.979  0.00  0.00    +0.176 HD
ENDBRANCH   7  14
BRANCH   4  18
ATOM     17  C   UNL     1      33.431 -14.321 -25.029  0.00  0.00    +0.138 C 
ATOM     18  C   UNL     1      33.011 -12.738 -23.264  0.00  0.00    +0.022 C 
ATOM     19  C   UNL     1      33.089 -14.059 -23.708  0.00  0.00    +0.038 C 
ATOM     20  C   UNL     1      33.695 -13.281 -25.913  0.00  0.00    +0.037 C 
ATOM     21  C   UNL     1      33.275 -11.690 -24.145  0.00  0.00    +0.002 C 
ATOM     22  C   UNL     1      33.617 -11.961 -25.470  0.00  0.00    +0.003 C 
BRANCH  17  23
ATOM     23  O   UNL     1      33.507 -15.618 -25.466  0.00  0.00    -0.478 OA
BRANCH  23  24
ATOM     24  C   UNL     1      34.591 -16.397 -24.977  0.00  0.00    +0.183 C 
BRANCH  24  25
ATOM     25  C   UNL     1      34.061 -17.753 -24.540  0.00  0.00    -0.029 C 
BRANCH  25  26
ATOM     26  N   UNL     1      34.331 -17.979 -23.120  0.00  0.00    +0.389 N 
ATOM     27  C   UNL     1      34.873 -19.329 -22.908  0.00  0.00    -0.077 C 
ATOM     28  C   UNL     1      35.244 -16.952 -22.600  0.00  0.00    -0.077 C 
ATOM     29  C   UNL     1      35.115 -19.599 -21.423  0.00  0.00    -0.023 C 
ATOM     30  C   UNL     1      35.498 -17.145 -21.104  0.00  0.00    -0.023 C 
ATOM     31  C   UNL     1      36.027 -18.544 -20.807  0.00  0.00    -0.004 C 
ATOM     32  H   UNL     1      33.453 -17.908 -22.605  0.00  0.00    -0.080 HD
ENDBRANCH  25  26
ENDBRANCH  24  25
ENDBRANCH  23  24
ENDBRANCH  17  23
ENDBRANCH   4  18
TORSDOF 6
ENDMDL
MODEL 4
REMARK VINA RESULT:     -11.4      3.408      6.061
REMARK  Name = 10430360
REMARK  6 active torsions:
REMARK  status: ('A' for Active; 'I' for Inactive)
REMARK    1  A    between atoms: C_4  and  C_18
REMARK    2  A    between atoms: C_7  and  C_14
REMARK    3  A    between atoms: C_17  and  O_23
REMARK    4  A    between atoms: O_23  and  C_24
REMARK    5  A    between atoms: C_24  and  C_25
REMARK    6  A    between atoms: C_25  and  N_26
REMARK                            x       y       z     vdW  Elec       q    Type
REMARK                         _______ _______ _______ _____ _____    ______ ____
ROOT
ATOM      1  N   UNL     1      32.327 -25.031 -13.488  0.00  0.00    -0.276 N 
ATOM      2  N   UNL     1      33.367 -24.587 -14.214  0.00  0.00    -0.173 NA
ATOM      3  C   UNL     1      31.381 -23.816 -15.050  0.00  0.00    +0.036 A 
ATOM      4  C   UNL     1      32.790 -23.846 -15.167  0.00  0.00    +0.102 A 
ATOM      5  C   UNL     1      31.106 -24.604 -13.938  0.00  0.00    +0.075 A 
ATOM      6  C   UNL     1      30.319 -23.219 -15.750  0.00  0.00    +0.006 C 
ATOM      7  C   UNL     1      29.012 -23.442 -15.298  0.00  0.00    +0.033 C 
ATOM      8  C   UNL     1      29.811 -24.839 -13.471  0.00  0.00    +0.019 C 
ATOM      9  C   UNL     1      28.765 -24.238 -14.179  0.00  0.00    +0.004 C 
ATOM     10  H   UNL     1      32.434 -25.613 -12.702  0.00  0.00    +0.189 HD
ENDROOT
BRANCH   7  14
ATOM     11  N   UNL     1      26.886 -22.203 -15.371  0.00  0.00    -0.218 N 
ATOM     12  N   UNL     1      27.713 -22.811 -17.299  0.00  0.00    -0.206 NA
ATOM     13  N   UNL     1      25.989 -21.735 -16.252  0.00  0.00    -0.157 NA
ATOM     14  C   UNL     1      27.905 -22.839 -16.003  0.00  0.00    +0.149 C 
ATOM     15  C   UNL     1      26.535 -22.129 -17.404  0.00  0.00    +0.218 C 
ATOM     16  H   UNL     1      26.814 -22.097 -14.394  0.00  0.00    +0.176 HD
ENDBRANCH   7  14
BRANCH   4  18
ATOM     17  C   UNL     1      35.709 -22.281 -16.865  0.00  0.00    +0.138 C 
ATOM     18  C   UNL     1      33.594 -23.187 -16.158  0.00  0.00    +0.022 C 
ATOM     19  C   UNL     1      34.938 -22.919 -15.900  0.00  0.00    +0.038 C 
ATOM     20  C   UNL     1      35.153 -21.906 -18.084  0.00  0.00    +0.037 C 
ATOM     21  C   UNL     1      33.029 -22.814 -17.377  0.00  0.00    +0.002 C 
ATOM     22  C   UNL     1      33.809 -22.174 -18.341  0.00  0.00    +0.003 C 
BRANCH  17  23
ATOM     23  O   UNL     1      37.030 -22.018 -16.614  0.00  0.00    -0.478 OA
BRANCH  23  24
ATOM     24  C   UNL     1      37.470 -22.170 -15.270  0.00  0.00    +0.183 C 
BRANCH  24  25
ATOM     25  C   UNL     1      38.106 -23.542 -15.116  0.00  0.00    -0.029 C 
BRANCH  25  26
ATOM     26  N   UNL     1      37.918 -24.048 -13.756  0.00  0.00    +0.389 N 
ATOM     27  C   UNL     1      37.090 -23.121 -12.972  0.00  0.00    -0.077 C 
ATOM     28  C   UNL     1      37.327 -25.393 -13.786  0.00  0.00    -0.077 C 
ATOM     29  C   UNL     1      36.924 -23.612 -11.533  0.00  0.00    -0.023 C 
ATOM     30  C   UNL     1      37.169 -25.958 -12.374  0.00  0.00    -0.023 C 
ATOM     31  C   UNL     1      36.349 -25.024 -11.491  0.00  0.00    -0.004 C 
ATOM     32  H   UNL     1      38.829 -24.116 -13.303  0.00  0.00    -0.080 HD
ENDBRANCH  25  26
ENDBRANCH  24  25
ENDBRANCH  23  24
ENDBRANCH  17  23
ENDBRANCH   4  18
TORSDOF 6
ENDMDL
MODEL 5
REMARK VINA RESULT:     -11.0      4.737     11.163
REMARK  Name = 10430360
REMARK  6 active torsions:
REMARK  status: ('A' for Active; 'I' for Inactive)
REMARK    1  A    between atoms: C_4  and  C_18
REMARK    2  A    between atoms: C_7  and  C_14
REMARK    3  A    between atoms: C_17  and  O_23
REMARK    4  A    between atoms: O_23  and  C_24
REMARK    5  A    between atoms: C_24  and  C_25
REMARK    6  A    between atoms: C_25  and  N_26
REMARK                            x       y       z     vdW  Elec       q    Type
REMARK                         _______ _______ _______ _____ _____    ______ ____
ROOT
ATOM      1  N   UNL     1      34.113 -13.550 -26.513  0.00  0.00    -0.276 N 
ATOM      2  N   UNL     1      34.385 -14.854 -26.337  0.00  0.00    -0.173 NA
ATOM      3  C   UNL     1      33.694 -13.878 -24.385  0.00  0.00    +0.036 A 
ATOM      4  C   UNL     1      34.129 -15.055 -25.039  0.00  0.00    +0.102 A 
ATOM      5  C   UNL     1      33.694 -12.906 -25.380  0.00  0.00    +0.075 A 
ATOM      6  C   UNL     1      33.305 -13.528 -23.081  0.00  0.00    +0.006 C 
ATOM      7  C   UNL     1      32.928 -12.203 -22.829  0.00  0.00    +0.033 C 
ATOM      8  C   UNL     1      33.323 -11.580 -25.149  0.00  0.00    +0.019 C 
ATOM      9  C   UNL     1      32.938 -11.248 -23.846  0.00  0.00    +0.004 C 
ATOM     10  H   UNL     1      34.209 -13.097 -27.381  0.00  0.00    +0.189 HD
ENDROOT
BRANCH   7  14
ATOM     11  N   UNL     1      32.022 -10.596 -21.199  0.00  0.00    -0.218 N 
ATOM     12  N   UNL     1      32.581 -12.556 -20.412  0.00  0.00    -0.206 NA
ATOM     13  N   UNL     1      31.729 -10.498 -19.893  0.00  0.00    -0.157 NA
ATOM     14  C   UNL     1      32.526 -11.822 -21.495  0.00  0.00    +0.149 C 
ATOM     15  C   UNL     1      32.085 -11.709 -19.462  0.00  0.00    +0.218 C 
ATOM     16  H   UNL     1      31.887  -9.875 -21.855  0.00  0.00    +0.176 HD
ENDBRANCH   7  14
BRANCH   4  18
ATOM     17  C   UNL     1      35.445 -17.825 -22.931  0.00  0.00    +0.138 C 
ATOM     18  C   UNL     1      34.303 -16.357 -24.458  0.00  0.00    +0.022 C 
ATOM     19  C   UNL     1      35.284 -16.562 -23.487  0.00  0.00    +0.038 C 
ATOM     20  C   UNL     1      34.640 -18.886 -23.332  0.00  0.00    +0.037 C 
ATOM     21  C   UNL     1      33.492 -17.415 -24.866  0.00  0.00    +0.002 C 
ATOM     22  C   UNL     1      33.660 -18.680 -24.303  0.00  0.00    +0.003 C 
BRANCH  17  23
ATOM     23  O   UNL     1      36.407 -18.028 -21.976  0.00  0.00    -0.478 OA
BRANCH  23  24
ATOM     24  C   UNL     1      35.953 -18.293 -20.654  0.00  0.00    +0.183 C 
BRANCH  24  25
ATOM     25  C   UNL     1      36.478 -19.652 -20.221  0.00  0.00    -0.029 C 
BRANCH  25  26
ATOM     26  N   UNL     1      35.376 -20.593 -20.023  0.00  0.00    +0.389 N 
ATOM     27  C   UNL     1      35.573 -21.365 -18.788  0.00  0.00    -0.077 C 
ATOM     28  C   UNL     1      34.090 -19.881 -20.005  0.00  0.00    -0.077 C 
ATOM     29  C   UNL     1      34.453 -22.387 -18.592  0.00  0.00    -0.023 C 
ATOM     30  C   UNL     1      32.922 -20.856 -19.848  0.00  0.00    -0.023 C 
ATOM     31  C   UNL     1      33.083 -21.719 -18.602  0.00  0.00    -0.004 C 
ATOM     32  H   UNL     1      35.360 -21.248 -20.805  0.00  0.00    -0.080 HD
ENDBRANCH  25  26
ENDBRANCH  24  25
ENDBRANCH  23  24
ENDBRANCH  17  23
ENDBRANCH   4  18
TORSDOF 6
ENDMDL
MODEL 6
REMARK VINA RESULT:     -10.9      7.420     12.309
REMARK  Name = 10430360
REMARK  6 active torsions:
REMARK  status: ('A' for Active; 'I' for Inactive)
REMARK    1  A    between atoms: C_4  and  C_18
REMARK    2  A    between atoms: C_7  and  C_14
REMARK    3  A    between atoms: C_17  and  O_23
REMARK    4  A    between atoms: O_23  and  C_24
REMARK    5  A    between atoms: C_24  and  C_25
REMARK    6  A    between atoms: C_25  and  N_26
REMARK                            x       y       z     vdW  Elec       q    Type
REMARK                         _______ _______ _______ _____ _____    ______ ____
ROOT
ATOM      1  N   UNL     1      33.150 -14.271 -25.227  0.00  0.00    -0.276 N 
ATOM      2  N   UNL     1      32.652 -13.304 -24.437  0.00  0.00    -0.173 NA
ATOM      3  C   UNL     1      33.834 -14.842 -23.223  0.00  0.00    +0.036 A 
ATOM      4  C   UNL     1      33.069 -13.652 -23.215  0.00  0.00    +0.102 A 
ATOM      5  C   UNL     1      33.869 -15.225 -24.559  0.00  0.00    +0.075 A 
ATOM      6  C   UNL     1      34.493 -15.630 -22.264  0.00  0.00    +0.006 C 
ATOM      7  C   UNL     1      35.166 -16.781 -22.691  0.00  0.00    +0.033 C 
ATOM      8  C   UNL     1      34.534 -16.369 -25.006  0.00  0.00    +0.019 C 
ATOM      9  C   UNL     1      35.185 -17.142 -24.039  0.00  0.00    +0.004 C 
ATOM     10  H   UNL     1      33.008 -14.291 -26.200  0.00  0.00    +0.189 HD
ENDROOT
BRANCH   7  14
ATOM     11  N   UNL     1      37.117 -18.056 -21.900  0.00  0.00    -0.218 N 
ATOM     12  N   UNL     1      35.380 -18.031 -20.575  0.00  0.00    -0.206 NA
ATOM     13  N   UNL     1      37.515 -18.799 -20.855  0.00  0.00    -0.157 NA
ATOM     14  C   UNL     1      35.849 -17.605 -21.722  0.00  0.00    +0.149 C 
ATOM     15  C   UNL     1      36.429 -18.754 -20.083  0.00  0.00    +0.218 C 
ATOM     16  H   UNL     1      37.673 -17.862 -22.689  0.00  0.00    +0.176 HD
ENDBRANCH   7  14
BRANCH   4  18
ATOM     17  C   UNL     1      32.249 -10.692 -21.114  0.00  0.00    +0.138 C 
ATOM     18  C   UNL     1      32.731 -12.845 -22.077  0.00  0.00    +0.022 C 
ATOM     19  C   UNL     1      32.576 -11.466 -22.221  0.00  0.00    +0.038 C 
ATOM     20  C   UNL     1      32.075 -11.277 -19.865  0.00  0.00    +0.037 C 
ATOM     21  C   UNL     1      32.559 -13.439 -20.827  0.00  0.00    +0.002 C 
ATOM     22  C   UNL     1      32.230 -12.656 -19.721  0.00  0.00    +0.003 C 
BRANCH  17  23
ATOM     23  O   UNL     1      32.095  -9.337 -21.255  0.00  0.00    -0.478 OA
BRANCH  23  24
ATOM     24  C   UNL     1      31.859  -8.591 -20.068  0.00  0.00    +0.183 C 
BRANCH  24  25
ATOM     25  C   UNL     1      31.845  -7.111 -20.416  0.00  0.00    -0.029 C 
BRANCH  25  26
ATOM     26  N   UNL     1      32.109  -6.914 -21.841  0.00  0.00    +0.389 N 
ATOM     27  C   UNL     1      30.942  -6.314 -22.503  0.00  0.00    -0.077 C 
ATOM     28  C   UNL     1      33.311  -6.090 -22.032  0.00  0.00    -0.077 C 
ATOM     29  C   UNL     1      31.184  -6.146 -24.003  0.00  0.00    -0.023 C 
ATOM     30  C   UNL     1      33.630  -5.915 -23.517  0.00  0.00    -0.023 C 
ATOM     31  C   UNL     1      32.443  -5.330 -24.275  0.00  0.00    -0.004 C 
ATOM     32  H   UNL     1      32.281  -7.824 -22.271  0.00  0.00    -0.080 HD
ENDBRANCH  25  26
ENDBRANCH  24  25
ENDBRANCH  23  24
ENDBRANCH  17  23
ENDBRANCH   4  18
TORSDOF 6
ENDMDL
MODEL 7
REMARK VINA RESULT:     -10.7      4.664     11.702
REMARK  Name = 10430360
REMARK  6 active torsions:
REMARK  status: ('A' for Active; 'I' for Inactive)
REMARK    1  A    between atoms: C_4  and  C_18
REMARK    2  A    between atoms: C_7  and  C_14
REMARK    3  A    between atoms: C_17  and  O_23
REMARK    4  A    between atoms: O_23  and  C_24
REMARK    5  A    between atoms: C_24  and  C_25
REMARK    6  A    between atoms: C_25  and  N_26
REMARK                            x       y       z     vdW  Elec       q    Type
REMARK                         _______ _______ _______ _____ _____    ______ ____
ROOT
ATOM      1  N   UNL     1      33.901 -15.101 -25.977  0.00  0.00    -0.276 N 
ATOM      2  N   UNL     1      34.271 -15.985 -25.035  0.00  0.00    -0.173 NA
ATOM      3  C   UNL     1      33.972 -13.898 -24.145  0.00  0.00    +0.036 A 
ATOM      4  C   UNL     1      34.314 -15.251 -23.917  0.00  0.00    +0.102 A 
ATOM      5  C   UNL     1      33.706 -13.829 -25.508  0.00  0.00    +0.075 A 
ATOM      6  C   UNL     1      33.859 -12.736 -23.362  0.00  0.00    +0.006 C 
ATOM      7  C   UNL     1      33.479 -11.543 -23.989  0.00  0.00    +0.033 C 
ATOM      8  C   UNL     1      33.327 -12.650 -26.151  0.00  0.00    +0.019 C 
ATOM      9  C   UNL     1      33.219 -11.502 -25.359  0.00  0.00    +0.004 C 
ATOM     10  H   UNL     1      33.782 -15.346 -26.923  0.00  0.00    +0.189 HD
ENDROOT
BRANCH   7  14
ATOM     11  N   UNL     1      34.224  -9.296 -23.311  0.00  0.00    -0.218 N 
ATOM     12  N   UNL     1      32.443 -10.065 -22.306  0.00  0.00    -0.206 NA
ATOM     13  N   UNL     1      33.889  -8.302 -22.474  0.00  0.00    -0.157 NA
ATOM     14  C   UNL     1      33.358 -10.337 -23.204  0.00  0.00    +0.149 C 
ATOM     15  C   UNL     1      32.807  -8.817 -21.889  0.00  0.00    +0.218 C 
ATOM     16  H   UNL     1      34.994  -9.272 -23.924  0.00  0.00    +0.176 HD
ENDBRANCH   7  14
BRANCH   4  18
ATOM     17  C   UNL     1      35.414 -17.775 -21.413  0.00  0.00    +0.138 C 
ATOM     18  C   UNL     1      34.676 -15.857 -22.667  0.00  0.00    +0.022 C 
ATOM     19  C   UNL     1      35.064 -17.197 -22.627  0.00  0.00    +0.038 C 
ATOM     20  C   UNL     1      35.380 -17.033 -20.237  0.00  0.00    +0.037 C 
ATOM     21  C   UNL     1      34.640 -15.107 -21.492  0.00  0.00    +0.002 C 
ATOM     22  C   UNL     1      34.992 -15.694 -20.277  0.00  0.00    +0.003 C 
BRANCH  17  23
ATOM     23  O   UNL     1      35.796 -19.091 -21.373  0.00  0.00    -0.478 OA
BRANCH  23  24
ATOM     24  C   UNL     1      35.228 -19.893 -20.346  0.00  0.00    +0.183 C 
BRANCH  24  25
ATOM     25  C   UNL     1      36.344 -20.644 -19.638  0.00  0.00    -0.029 C 
BRANCH  25  26
ATOM     26  N   UNL     1      35.798 -21.710 -18.799  0.00  0.00    +0.389 N 
ATOM     27  C   UNL     1      36.257 -21.559 -17.411  0.00  0.00    -0.077 C 
ATOM     28  C   UNL     1      34.330 -21.724 -18.875  0.00  0.00    -0.077 C 
ATOM     29  C   UNL     1      35.733 -22.694 -16.530  0.00  0.00    -0.023 C 
ATOM     30  C   UNL     1      33.745 -22.864 -18.042  0.00  0.00    -0.023 C 
ATOM     31  C   UNL     1      34.213 -22.790 -16.593  0.00  0.00    -0.004 C 
ATOM     32  H   UNL     1      36.138 -22.607 -19.146  0.00  0.00    -0.080 HD
ENDBRANCH  25  26
ENDBRANCH  24  25
ENDBRANCH  23  24
ENDBRANCH  17  23
ENDBRANCH   4  18
TORSDOF 6
ENDMDL
MODEL 8
REMARK VINA RESULT:     -10.6      6.251     12.180
REMARK  Name = 10430360
REMARK  6 active torsions:
REMARK  status: ('A' for Active; 'I' for Inactive)
REMARK    1  A    between atoms: C_4  and  C_18
REMARK    2  A    between atoms: C_7  and  C_14
REMARK    3  A    between atoms: C_17  and  O_23
REMARK    4  A    between atoms: O_23  and  C_24
REMARK    5  A    between atoms: C_24  and  C_25
REMARK    6  A    between atoms: C_25  and  N_26
REMARK                            x       y       z     vdW  Elec       q    Type
REMARK                         _______ _______ _______ _____ _____    ______ ____
ROOT
ATOM      1  N   UNL     1      31.943 -12.809 -19.528  0.00  0.00    -0.276 N 
ATOM      2  N   UNL     1      32.347 -13.744 -20.405  0.00  0.00    -0.173 NA
ATOM      3  C   UNL     1      32.458 -11.647 -21.315  0.00  0.00    +0.036 A 
ATOM      4  C   UNL     1      32.661 -13.035 -21.495  0.00  0.00    +0.102 A 
ATOM      5  C   UNL     1      31.985 -11.530 -20.012  0.00  0.00    +0.075 A 
ATOM      6  C   UNL     1      32.618 -10.489 -22.095  0.00  0.00    +0.006 C 
ATOM      7  C   UNL     1      32.293  -9.251 -21.529  0.00  0.00    +0.033 C 
ATOM      8  C   UNL     1      31.656 -10.305 -19.429  0.00  0.00    +0.019 C 
ATOM      9  C   UNL     1      31.820  -9.162 -20.219  0.00  0.00    +0.004 C 
ATOM     10  H   UNL     1      31.642 -13.027 -18.616  0.00  0.00    +0.189 HD
ENDROOT
BRANCH   7  14
ATOM     11  N   UNL     1      33.470  -7.173 -22.129  0.00  0.00    -0.218 N 
ATOM     12  N   UNL     1      31.670  -7.628 -23.281  0.00  0.00    -0.206 NA
ATOM     13  N   UNL     1      33.383  -6.143 -22.984  0.00  0.00    -0.157 NA
ATOM     14  C   UNL     1      32.448  -8.049 -22.314  0.00  0.00    +0.149 C 
ATOM     15  C   UNL     1      32.278  -6.465 -23.658  0.00  0.00    +0.218 C 
ATOM     16  H   UNL     1      34.182  -7.281 -21.457  0.00  0.00    +0.176 HD
ENDBRANCH   7  14
BRANCH   4  18
ATOM     17  C   UNL     1      34.516 -15.385 -23.706  0.00  0.00    +0.138 C 
ATOM     18  C   UNL     1      33.146 -13.695 -22.674  0.00  0.00    +0.022 C 
ATOM     19  C   UNL     1      34.052 -14.751 -22.560  0.00  0.00    +0.038 C 
ATOM     20  C   UNL     1      34.089 -14.978 -24.965  0.00  0.00    +0.037 C 
ATOM     21  C   UNL     1      32.713 -13.282 -23.933  0.00  0.00    +0.002 C 
ATOM     22  C   UNL     1      33.183 -13.923 -25.079  0.00  0.00    +0.003 C 
BRANCH  17  23
ATOM     23  O   UNL     1      35.405 -16.423 -23.594  0.00  0.00    -0.478 OA
BRANCH  23  24
ATOM     24  C   UNL     1      35.048 -17.480 -22.713  0.00  0.00    +0.183 C 
BRANCH  24  25
ATOM     25  C   UNL     1      36.086 -17.563 -21.605  0.00  0.00    -0.029 C 
BRANCH  25  26
ATOM     26  N   UNL     1      35.695 -18.558 -20.606  0.00  0.00    +0.389 N 
ATOM     27  C   UNL     1      34.522 -19.315 -21.065  0.00  0.00    -0.077 C 
ATOM     28  C   UNL     1      36.821 -19.452 -20.304  0.00  0.00    -0.077 C 
ATOM     29  C   UNL     1      34.072 -20.327 -20.011  0.00  0.00    -0.023 C 
ATOM     30  C   UNL     1      36.445 -20.469 -19.225  0.00  0.00    -0.023 C 
ATOM     31  C   UNL     1      35.208 -21.267 -19.621  0.00  0.00    -0.004 C 
ATOM     32  H   UNL     1      35.439 -18.074 -19.745  0.00  0.00    -0.080 HD
ENDBRANCH  25  26
ENDBRANCH  24  25
ENDBRANCH  23  24
ENDBRANCH  17  23
ENDBRANCH   4  18
TORSDOF 6
ENDMDL
MODEL 9
REMARK VINA RESULT:     -10.3      8.663     14.953
REMARK  Name = 10430360
REMARK  6 active torsions:
REMARK  status: ('A' for Active; 'I' for Inactive)
REMARK    1  A    between atoms: C_4  and  C_18
REMARK    2  A    between atoms: C_7  and  C_14
REMARK    3  A    between atoms: C_17  and  O_23
REMARK    4  A    between atoms: O_23  and  C_24
REMARK    5  A    between atoms: C_24  and  C_25
REMARK    6  A    between atoms: C_25  and  N_26
REMARK                            x       y       z     vdW  Elec       q    Type
REMARK                         _______ _______ _______ _____ _____    ______ ____
ROOT
ATOM      1  N   UNL     1      31.616  -8.456 -20.300  0.00  0.00    -0.276 N 
ATOM      2  N   UNL     1      31.957  -9.655 -20.802  0.00  0.00    -0.173 NA
ATOM      3  C   UNL     1      32.578  -7.959 -22.207  0.00  0.00    +0.036 A 
ATOM      4  C   UNL     1      32.544  -9.352 -21.966  0.00  0.00    +0.102 A 
ATOM      5  C   UNL     1      31.961  -7.397 -21.095  0.00  0.00    +0.075 A 
ATOM      6  C   UNL     1      33.055  -7.119 -23.227  0.00  0.00    +0.006 C 
ATOM      7  C   UNL     1      32.891  -5.736 -23.086  0.00  0.00    +0.033 C 
ATOM      8  C   UNL     1      31.787  -6.021 -20.935  0.00  0.00    +0.019 C 
ATOM      9  C   UNL     1      32.267  -5.198 -21.960  0.00  0.00    +0.004 C 
ATOM     10  H   UNL     1      31.158  -8.350 -19.436  0.00  0.00    +0.189 HD
ENDROOT
BRANCH   7  14
ATOM     11  N   UNL     1      34.506  -5.098 -24.832  0.00  0.00    -0.218 N 
ATOM     12  N   UNL     1      32.825  -3.735 -24.529  0.00  0.00    -0.206 NA
ATOM     13  N   UNL     1      34.730  -4.128 -25.732  0.00  0.00    -0.157 NA
ATOM     14  C   UNL     1      33.372  -4.854 -24.124  0.00  0.00    +0.149 C 
ATOM     15  C   UNL     1      33.686  -3.328 -25.508  0.00  0.00    +0.218 C 
ATOM     16  H   UNL     1      35.086  -5.883 -24.703  0.00  0.00    +0.176 HD
ENDBRANCH   7  14
BRANCH   4  18
ATOM     17  C   UNL     1      33.462 -12.728 -23.236  0.00  0.00    +0.138 C 
ATOM     18  C   UNL     1      33.056 -10.393 -22.812  0.00  0.00    +0.022 C 
ATOM     19  C   UNL     1      32.964 -11.726 -22.411  0.00  0.00    +0.038 C 
ATOM     20  C   UNL     1      34.050 -12.415 -24.456  0.00  0.00    +0.037 C 
ATOM     21  C   UNL     1      33.644 -10.071 -24.034  0.00  0.00    +0.002 C 
ATOM     22  C   UNL     1      34.141 -11.082 -24.857  0.00  0.00    +0.003 C 
BRANCH  17  23
ATOM     23  O   UNL     1      33.372 -14.038 -22.843  0.00  0.00    -0.478 OA
BRANCH  23  24
ATOM     24  C   UNL     1      34.578 -14.669 -22.433  0.00  0.00    +0.183 C 
BRANCH  24  25
ATOM     25  C   UNL     1      35.024 -15.627 -23.526  0.00  0.00    -0.029 C 
BRANCH  25  26
ATOM     26  N   UNL     1      35.411 -16.917 -22.955  0.00  0.00    +0.389 N 
ATOM     27  C   UNL     1      35.377 -16.861 -21.487  0.00  0.00    -0.077 C 
ATOM     28  C   UNL     1      34.543 -17.987 -23.467  0.00  0.00    -0.077 C 
ATOM     29  C   UNL     1      35.826 -18.188 -20.874  0.00  0.00    -0.023 C 
ATOM     30  C   UNL     1      34.966 -19.350 -22.918  0.00  0.00    -0.023 C 
ATOM     31  C   UNL     1      34.989 -19.352 -21.393  0.00  0.00    -0.004 C 
ATOM     32  H   UNL     1      36.368 -17.126 -23.239  0.00  0.00    -0.080 HD
ENDBRANCH  25  26
ENDBRANCH  24  25
ENDBRANCH  23  24
ENDBRANCH  17  23
ENDBRANCH   4  18
TORSDOF 6
ENDMDL
