MODEL 1
REMARK VINA RESULT:     -12.4      0.000      0.000
REMARK  Name = 17758361
REMARK  5 active torsions:
REMARK  status: ('A' for Active; 'I' for Inactive)
REMARK    1  A    between atoms: N_1  and  C_18
REMARK    2  A    between atoms: C_4  and  C_10
REMARK    3  A    between atoms: C_10  and  C_11
REMARK    4  A    between atoms: C_18  and  C_19
REMARK    5  A    between atoms: C_22  and  C_27
REMARK                            x       y       z     vdW  Elec       q    Type
REMARK                         _______ _______ _______ _____ _____    ______ ____
ROOT
ATOM      1  N   UNL     1      35.735 -17.765 -22.956  0.00  0.00    -0.314 N 
ATOM      2  N   UNL     1      34.631 -16.762 -24.777  0.00  0.00    -0.229 NA
ATOM      3  C   UNL     1      34.977 -16.726 -23.471  0.00  0.00    +0.129 C 
ATOM      4  C   UNL     1      33.862 -14.658 -23.104  0.00  0.00    +0.043 C 
ATOM      5  C   UNL     1      34.622 -15.708 -22.600  0.00  0.00    +0.037 C 
ATOM      6  C   UNL     1      33.486 -14.659 -24.443  0.00  0.00    +0.024 C 
ATOM      7  C   UNL     1      33.892 -15.724 -25.231  0.00  0.00    +0.100 C 
ATOM      8  H   UNL     1      35.994 -18.496 -23.562  0.00  0.00    +0.149 HD
ENDROOT
BRANCH   4  10
ATOM      9  O   UNL     1      33.072 -13.789 -21.081  0.00  0.00    -0.287 OA
ATOM     10  C   UNL     1      33.463 -13.562 -22.235  0.00  0.00    +0.196 C 
BRANCH  10  11
ATOM     11  C   UNL     1      33.500 -12.135 -22.678  0.00  0.00    +0.039 C 
ATOM     12  C   UNL     1      34.386 -11.739 -23.681  0.00  0.00    -0.001 C 
ATOM     13  C   UNL     1      34.420 -10.408 -24.094  0.00  0.00    -0.022 C 
ATOM     14  C   UNL     1      32.649 -11.201 -22.090  0.00  0.00    +0.003 C 
ATOM     15  C   UNL     1      33.568  -9.472 -23.506  0.00  0.00    -0.004 C 
ATOM     16  C   UNL     1      32.683  -9.869 -22.504  0.00  0.00    -0.000 C 
ATOM     17  C   UNL     1      35.365  -9.984 -25.168  0.00  0.00    +0.031 C 
ENDBRANCH  10  11
ENDBRANCH   4  10
BRANCH   1  18
ATOM     18  C   UNL     1      36.166 -17.834 -21.577  0.00  0.00    +0.115 C 
BRANCH  18  19
ATOM     19  C   UNL     1      35.495 -18.960 -20.864  0.00  0.00    -0.003 C 
ATOM     20  C   UNL     1      36.254 -19.868 -20.127  0.00  0.00    -0.003 C 
ATOM     21  C   UNL     1      34.109 -19.105 -20.935  0.00  0.00    -0.003 C 
ATOM     22  C   UNL     1      34.243 -21.066 -19.532  0.00  0.00    +0.031 C 
ATOM     23  C   UNL     1      35.628 -20.921 -19.461  0.00  0.00    +0.002 C 
ATOM     24  C   UNL     1      33.484 -20.158 -20.269  0.00  0.00    +0.002 C 
BRANCH  22  27
ATOM     25  N   UNL     1      32.414 -21.971 -18.116  0.00  0.00    -0.343 N 
ATOM     26  N   UNL     1      34.118 -23.376 -18.881  0.00  0.00    -0.285 NA
ATOM     27  C   UNL     1      33.591 -22.165 -18.838  0.00  0.00    +0.117 C 
ATOM     28  H   UNL     1      31.990 -22.729 -17.654  0.00  0.00    +0.144 HD
ATOM     29  H   UNL     1      32.008 -21.075 -18.069  0.00  0.00    +0.144 HD
ATOM     30  H   UNL     1      33.679 -24.122 -18.412  0.00  0.00    +0.188 HD
ENDBRANCH  22  27
ENDBRANCH  18  19
ENDBRANCH   1  18
TORSDOF 5
ENDMDL
MODEL 2
REMARK VINA RESULT:     -12.3      5.769     11.593
REMARK  Name = 17758361
REMARK  5 active torsions:
REMARK  status: ('A' for Active; 'I' for Inactive)
REMARK    1  A    between atoms: N_1  and  C_18
REMARK    2  A    between atoms: C_4  and  C_10
REMARK    3  A    between atoms: C_10  and  C_11
REMARK    4  A    between atoms: C_18  and  C_19
REMARK    5  A    between atoms: C_22  and  C_27
REMARK                            x       y       z     vdW  Elec       q    Type
REMARK                         _______ _______ _______ _____ _____    ______ ____
ROOT
ATOM      1  N   UNL     1      32.678 -22.326 -17.989  0.00  0.00    -0.314 N 
ATOM      2  N   UNL     1      30.702 -22.386 -16.711  0.00  0.00    -0.229 NA
ATOM      3  C   UNL     1      32.019 -22.671 -16.821  0.00  0.00    +0.129 C 
ATOM      4  C   UNL     1      32.115 -23.643 -14.653  0.00  0.00    +0.043 C 
ATOM      5  C   UNL     1      32.764 -23.292 -15.832  0.00  0.00    +0.037 C 
ATOM      6  C   UNL     1      30.761 -23.366 -14.502  0.00  0.00    +0.024 C 
ATOM      7  C   UNL     1      30.105 -22.742 -15.551  0.00  0.00    +0.100 C 
ATOM      8  H   UNL     1      32.160 -21.884 -18.701  0.00  0.00    +0.149 HD
ENDROOT
BRANCH   4  10
ATOM      9  O   UNL     1      32.244 -24.919 -12.697  0.00  0.00    -0.287 OA
ATOM     10  C   UNL     1      32.850 -24.297 -13.581  0.00  0.00    +0.196 C 
BRANCH  10  11
ATOM     11  C   UNL     1      34.341 -24.255 -13.491  0.00  0.00    +0.039 C 
ATOM     12  C   UNL     1      34.957 -23.614 -12.416  0.00  0.00    -0.001 C 
ATOM     13  C   UNL     1      36.349 -23.575 -12.332  0.00  0.00    -0.022 C 
ATOM     14  C   UNL     1      35.116 -24.858 -14.481  0.00  0.00    +0.003 C 
ATOM     15  C   UNL     1      37.125 -24.179 -13.322  0.00  0.00    -0.004 C 
ATOM     16  C   UNL     1      36.508 -24.820 -14.396  0.00  0.00    -0.000 C 
ATOM     17  C   UNL     1      37.008 -22.892 -11.181  0.00  0.00    +0.031 C 
ENDBRANCH  10  11
ENDBRANCH   4  10
BRANCH   1  18
ATOM     18  C   UNL     1      34.083 -22.579 -18.220  0.00  0.00    +0.115 C 
BRANCH  18  19
ATOM     19  C   UNL     1      34.698 -21.482 -19.023  0.00  0.00    -0.003 C 
ATOM     20  C   UNL     1      36.080 -21.296 -19.005  0.00  0.00    -0.003 C 
ATOM     21  C   UNL     1      33.891 -20.643 -19.792  0.00  0.00    -0.003 C 
ATOM     22  C   UNL     1      35.849 -19.432 -20.523  0.00  0.00    +0.031 C 
ATOM     23  C   UNL     1      36.655 -20.270 -19.754  0.00  0.00    +0.002 C 
ATOM     24  C   UNL     1      34.467 -19.618 -20.542  0.00  0.00    +0.002 C 
BRANCH  22  27
ATOM     25  N   UNL     1      35.682 -17.321 -21.821  0.00  0.00    -0.343 N 
ATOM     26  N   UNL     1      37.750 -18.370 -21.539  0.00  0.00    -0.285 NA
ATOM     27  C   UNL     1      36.450 -18.363 -21.304  0.00  0.00    +0.117 C 
ATOM     28  H   UNL     1      36.109 -16.608 -22.348  0.00  0.00    +0.144 HD
ATOM     29  H   UNL     1      34.710 -17.300 -21.660  0.00  0.00    +0.144 HD
ATOM     30  H   UNL     1      38.160 -17.648 -22.067  0.00  0.00    +0.188 HD
ENDBRANCH  22  27
ENDBRANCH  18  19
ENDBRANCH   1  18
TORSDOF 5
ENDMDL
MODEL 3
REMARK VINA RESULT:     -12.0      0.648      1.502
REMARK  Name = 17758361
REMARK  5 active torsions:
REMARK  status: ('A' for Active; 'I' for Inactive)
REMARK    1  A    between atoms: N_1  and  C_18
REMARK    2  A    between atoms: C_4  and  C_10
REMARK    3  A    between atoms: C_10  and  C_11
REMARK    4  A    between atoms: C_18  and  C_19
REMARK    5  A    between atoms: C_22  and  C_27
REMARK                            x       y       z     vdW  Elec       q    Type
REMARK                         _______ _______ _______ _____ _____    ______ ____
ROOT
ATOM      1  N   UNL     1      35.755 -17.552 -23.048  0.00  0.00    -0.314 N 
ATOM      2  N   UNL     1      34.422 -16.643 -24.762  0.00  0.00    -0.229 NA
ATOM      3  C   UNL     1      34.913 -16.553 -23.506  0.00  0.00    +0.129 C 
ATOM      4  C   UNL     1      33.786 -14.503 -23.081  0.00  0.00    +0.043 C 
ATOM      5  C   UNL     1      34.629 -15.514 -22.634  0.00  0.00    +0.037 C 
ATOM      6  C   UNL     1      33.261 -14.560 -24.368  0.00  0.00    +0.024 C 
ATOM      7  C   UNL     1      33.607 -15.642 -25.162  0.00  0.00    +0.100 C 
ATOM      8  H   UNL     1      35.965 -18.297 -23.656  0.00  0.00    +0.149 HD
ENDROOT
BRANCH   4  10
ATOM      9  O   UNL     1      33.148 -13.590 -21.024  0.00  0.00    -0.287 OA
ATOM     10  C   UNL     1      33.454 -13.388 -22.208  0.00  0.00    +0.196 C 
BRANCH  10  11
ATOM     11  C   UNL     1      33.465 -11.970 -22.681  0.00  0.00    +0.039 C 
ATOM     12  C   UNL     1      32.548 -11.054 -22.162  0.00  0.00    -0.001 C 
ATOM     13  C   UNL     1      32.559  -9.732 -22.603  0.00  0.00    -0.022 C 
ATOM     14  C   UNL     1      34.392 -11.562 -23.638  0.00  0.00    +0.003 C 
ATOM     15  C   UNL     1      33.487  -9.323 -23.561  0.00  0.00    -0.004 C 
ATOM     16  C   UNL     1      34.404 -10.238 -24.079  0.00  0.00    -0.000 C 
ATOM     17  C   UNL     1      31.582  -8.752 -22.047  0.00  0.00    +0.031 C 
ENDBRANCH  10  11
ENDBRANCH   4  10
BRANCH   1  18
ATOM     18  C   UNL     1      36.341 -17.562 -21.726  0.00  0.00    +0.115 C 
BRANCH  18  19
ATOM     19  C   UNL     1      35.864 -18.736 -20.939  0.00  0.00    -0.003 C 
ATOM     20  C   UNL     1      36.774 -19.503 -20.211  0.00  0.00    -0.003 C 
ATOM     21  C   UNL     1      34.508 -19.066 -20.931  0.00  0.00    -0.003 C 
ATOM     22  C   UNL     1      34.974 -20.932 -19.468  0.00  0.00    +0.031 C 
ATOM     23  C   UNL     1      36.328 -20.601 -19.477  0.00  0.00    +0.002 C 
ATOM     24  C   UNL     1      34.064 -20.165 -20.195  0.00  0.00    +0.002 C 
BRANCH  22  27
ATOM     25  N   UNL     1      33.356 -22.771 -19.059  0.00  0.00    -0.343 N 
ATOM     26  N   UNL     1      35.189 -22.476 -17.640  0.00  0.00    -0.285 NA
ATOM     27  C   UNL     1      34.510 -22.077 -18.701  0.00  0.00    +0.117 C 
ATOM     28  H   UNL     1      33.060 -23.544 -18.526  0.00  0.00    +0.144 HD
ATOM     29  H   UNL     1      32.835 -22.487 -19.845  0.00  0.00    +0.144 HD
ATOM     30  H   UNL     1      34.877 -23.251 -17.119  0.00  0.00    +0.188 HD
ENDBRANCH  22  27
ENDBRANCH  18  19
ENDBRANCH   1  18
TORSDOF 5
ENDMDL
MODEL 4
REMARK VINA RESULT:     -12.0      5.490     11.508
REMARK  Name = 17758361
REMARK  5 active torsions:
REMARK  status: ('A' for Active; 'I' for Inactive)
REMARK    1  A    between atoms: N_1  and  C_18
REMARK    2  A    between atoms: C_4  and  C_10
REMARK    3  A    between atoms: C_10  and  C_11
REMARK    4  A    between atoms: C_18  and  C_19
REMARK    5  A    between atoms: C_22  and  C_27
REMARK                            x       y       z     vdW  Elec       q    Type
REMARK                         _______ _______ _______ _____ _____    ______ ____
ROOT
ATOM      1  N   UNL     1      34.896 -22.789 -17.251  0.00  0.00    -0.314 N 
ATOM      2  N   UNL     1      35.953 -23.636 -15.326  0.00  0.00    -0.229 NA
ATOM      3  C   UNL     1      34.829 -23.186 -15.926  0.00  0.00    +0.129 C 
ATOM      4  C   UNL     1      33.514 -23.492 -13.969  0.00  0.00    +0.043 C 
ATOM      5  C   UNL     1      33.596 -23.096 -15.299  0.00  0.00    +0.037 C 
ATOM      6  C   UNL     1      34.649 -23.961 -13.316  0.00  0.00    +0.024 C 
ATOM      7  C   UNL     1      35.834 -24.013 -14.033  0.00  0.00    +0.100 C 
ATOM      8  H   UNL     1      35.766 -22.848 -17.709  0.00  0.00    +0.149 HD
ENDROOT
BRANCH   4  10
ATOM      9  O   UNL     1      32.199 -22.985 -12.101  0.00  0.00    -0.287 OA
ATOM     10  C   UNL     1      32.245 -23.419 -13.261  0.00  0.00    +0.196 C 
BRANCH  10  11
ATOM     11  C   UNL     1      30.956 -23.852 -13.882  0.00  0.00    +0.039 C 
ATOM     12  C   UNL     1      30.137 -22.917 -14.516  0.00  0.00    -0.001 C 
ATOM     13  C   UNL     1      28.936 -23.322 -15.096  0.00  0.00    -0.022 C 
ATOM     14  C   UNL     1      30.573 -25.192 -13.829  0.00  0.00    +0.003 C 
ATOM     15  C   UNL     1      28.552 -24.662 -15.043  0.00  0.00    -0.004 C 
ATOM     16  C   UNL     1      29.371 -25.597 -14.410  0.00  0.00    -0.000 C 
ATOM     17  C   UNL     1      28.061 -22.323 -15.776  0.00  0.00    +0.031 C 
ENDBRANCH  10  11
ENDBRANCH   4  10
BRANCH   1  18
ATOM     18  C   UNL     1      33.761 -22.293 -17.997  0.00  0.00    +0.115 C 
BRANCH  18  19
ATOM     19  C   UNL     1      34.193 -21.329 -19.049  0.00  0.00    -0.003 C 
ATOM     20  C   UNL     1      35.551 -21.090 -19.260  0.00  0.00    -0.003 C 
ATOM     21  C   UNL     1      33.240 -20.665 -19.822  0.00  0.00    -0.003 C 
ATOM     22  C   UNL     1      35.004 -19.523 -21.015  0.00  0.00    +0.031 C 
ATOM     23  C   UNL     1      35.956 -20.187 -20.242  0.00  0.00    +0.002 C 
ATOM     24  C   UNL     1      33.646 -19.762 -20.805  0.00  0.00    +0.002 C 
BRANCH  22  27
ATOM     25  N   UNL     1      36.744 -18.134 -22.113  0.00  0.00    -0.343 N 
ATOM     26  N   UNL     1      34.552 -18.134 -22.922  0.00  0.00    -0.285 NA
ATOM     27  C   UNL     1      35.427 -18.582 -22.040  0.00  0.00    +0.117 C 
ATOM     28  H   UNL     1      37.010 -17.497 -22.815  0.00  0.00    +0.144 HD
ATOM     29  H   UNL     1      37.411 -18.454 -21.462  0.00  0.00    +0.144 HD
ATOM     30  H   UNL     1      34.836 -17.497 -23.617  0.00  0.00    +0.188 HD
ENDBRANCH  22  27
ENDBRANCH  18  19
ENDBRANCH   1  18
TORSDOF 5
ENDMDL
MODEL 5
REMARK VINA RESULT:     -11.9      3.008      8.810
REMARK  Name = 17758361
REMARK  5 active torsions:
REMARK  status: ('A' for Active; 'I' for Inactive)
REMARK    1  A    between atoms: N_1  and  C_18
REMARK    2  A    between atoms: C_4  and  C_10
REMARK    3  A    between atoms: C_10  and  C_11
REMARK    4  A    between atoms: C_18  and  C_19
REMARK    5  A    between atoms: C_22  and  C_27
REMARK                            x       y       z     vdW  Elec       q    Type
REMARK                         _______ _______ _______ _____ _____    ______ ____
ROOT
ATOM      1  N   UNL     1      34.459 -15.351 -23.731  0.00  0.00    -0.314 N 
ATOM      2  N   UNL     1      33.986 -17.554 -24.411  0.00  0.00    -0.229 NA
ATOM      3  C   UNL     1      34.605 -16.716 -23.550  0.00  0.00    +0.129 C 
ATOM      4  C   UNL     1      35.538 -18.502 -22.288  0.00  0.00    +0.043 C 
ATOM      5  C   UNL     1      35.384 -17.134 -22.483  0.00  0.00    +0.037 C 
ATOM      6  C   UNL     1      34.917 -19.397 -23.153  0.00  0.00    +0.024 C 
ATOM      7  C   UNL     1      34.158 -18.876 -24.190  0.00  0.00    +0.100 C 
ATOM      8  H   UNL     1      33.908 -15.038 -24.485  0.00  0.00    +0.149 HD
ENDROOT
BRANCH   4  10
ATOM      9  O   UNL     1      37.507 -18.597 -21.030  0.00  0.00    -0.287 OA
ATOM     10  C   UNL     1      36.345 -18.997 -21.184  0.00  0.00    +0.196 C 
BRANCH  10  11
ATOM     11  C   UNL     1      35.826 -19.993 -20.197  0.00  0.00    +0.039 C 
ATOM     12  C   UNL     1      34.451 -20.181 -20.053  0.00  0.00    -0.001 C 
ATOM     13  C   UNL     1      33.968 -21.111 -19.133  0.00  0.00    -0.022 C 
ATOM     14  C   UNL     1      36.717 -20.735 -19.423  0.00  0.00    +0.003 C 
ATOM     15  C   UNL     1      34.859 -21.854 -18.358  0.00  0.00    -0.004 C 
ATOM     16  C   UNL     1      36.233 -21.666 -18.503  0.00  0.00    -0.000 C 
ATOM     17  C   UNL     1      32.498 -21.315 -18.980  0.00  0.00    +0.031 C 
ENDBRANCH  10  11
ENDBRANCH   4  10
BRANCH   1  18
ATOM     18  C   UNL     1      35.071 -14.359 -22.874  0.00  0.00    +0.115 C 
BRANCH  18  19
ATOM     19  C   UNL     1      34.073 -13.338 -22.441  0.00  0.00    -0.003 C 
ATOM     20  C   UNL     1      33.955 -12.139 -23.143  0.00  0.00    -0.003 C 
ATOM     21  C   UNL     1      33.261 -13.582 -21.333  0.00  0.00    -0.003 C 
ATOM     22  C   UNL     1      32.211 -11.426 -21.631  0.00  0.00    +0.031 C 
ATOM     23  C   UNL     1      33.024 -11.183 -22.738  0.00  0.00    +0.002 C 
ATOM     24  C   UNL     1      32.330 -12.626 -20.929  0.00  0.00    +0.002 C 
BRANCH  22  27
ATOM     25  N   UNL     1      31.460  -9.069 -21.418  0.00  0.00    -0.343 N 
ATOM     26  N   UNL     1      30.124 -10.809 -20.613  0.00  0.00    -0.285 NA
ATOM     27  C   UNL     1      31.240 -10.429 -21.210  0.00  0.00    +0.117 C 
ATOM     28  H   UNL     1      30.790  -8.410 -21.125  0.00  0.00    +0.144 HD
ATOM     29  H   UNL     1      32.288  -8.766 -21.858  0.00  0.00    +0.144 HD
ATOM     30  H   UNL     1      29.465 -10.136 -20.327  0.00  0.00    +0.188 HD
ENDBRANCH  22  27
ENDBRANCH  18  19
ENDBRANCH   1  18
TORSDOF 5
ENDMDL
MODEL 6
REMARK VINA RESULT:     -11.8      3.005      8.435
REMARK  Name = 17758361
REMARK  5 active torsions:
REMARK  status: ('A' for Active; 'I' for Inactive)
REMARK    1  A    between atoms: N_1  and  C_18
REMARK    2  A    between atoms: C_4  and  C_10
REMARK    3  A    between atoms: C_10  and  C_11
REMARK    4  A    between atoms: C_18  and  C_19
REMARK    5  A    between atoms: C_22  and  C_27
REMARK                            x       y       z     vdW  Elec       q    Type
REMARK                         _______ _______ _______ _____ _____    ______ ____
ROOT
ATOM      1  N   UNL     1      34.186 -15.041 -24.324  0.00  0.00    -0.314 N 
ATOM      2  N   UNL     1      33.495 -17.203 -24.949  0.00  0.00    -0.229 NA
ATOM      3  C   UNL     1      34.206 -16.410 -24.117  0.00  0.00    +0.129 C 
ATOM      4  C   UNL     1      34.991 -18.252 -22.834  0.00  0.00    +0.043 C 
ATOM      5  C   UNL     1      34.963 -16.880 -23.055  0.00  0.00    +0.037 C 
ATOM      6  C   UNL     1      34.272 -19.101 -23.669  0.00  0.00    +0.024 C 
ATOM      7  C   UNL     1      33.546 -18.531 -24.703  0.00  0.00    +0.100 C 
ATOM      8  H   UNL     1      33.653 -14.693 -25.075  0.00  0.00    +0.149 HD
ENDROOT
BRANCH   4  10
ATOM      9  O   UNL     1      36.969 -18.514 -21.613  0.00  0.00    -0.287 OA
ATOM     10  C   UNL     1      35.769 -18.800 -21.734  0.00  0.00    +0.196 C 
BRANCH  10  11
ATOM     11  C   UNL     1      35.176 -19.715 -20.712  0.00  0.00    +0.039 C 
ATOM     12  C   UNL     1      36.002 -20.362 -19.792  0.00  0.00    -0.001 C 
ATOM     13  C   UNL     1      35.449 -21.216 -18.838  0.00  0.00    -0.022 C 
ATOM     14  C   UNL     1      33.798 -19.921 -20.677  0.00  0.00    +0.003 C 
ATOM     15  C   UNL     1      34.069 -21.422 -18.803  0.00  0.00    -0.004 C 
ATOM     16  C   UNL     1      33.244 -20.774 -19.722  0.00  0.00    -0.000 C 
ATOM     17  C   UNL     1      36.330 -21.906 -17.853  0.00  0.00    +0.031 C 
ENDBRANCH  10  11
ENDBRANCH   4  10
BRANCH   1  18
ATOM     18  C   UNL     1      34.905 -14.096 -23.499  0.00  0.00    +0.115 C 
BRANCH  18  19
ATOM     19  C   UNL     1      33.966 -13.294 -22.663  0.00  0.00    -0.003 C 
ATOM     20  C   UNL     1      33.464 -13.824 -21.474  0.00  0.00    -0.003 C 
ATOM     21  C   UNL     1      33.588 -12.014 -23.070  0.00  0.00    -0.003 C 
ATOM     22  C   UNL     1      32.207 -11.796 -21.100  0.00  0.00    +0.031 C 
ATOM     23  C   UNL     1      32.585 -13.075 -20.693  0.00  0.00    +0.002 C 
ATOM     24  C   UNL     1      32.708 -11.265 -22.288  0.00  0.00    +0.002 C 
BRANCH  22  27
ATOM     25  N   UNL     1      31.681 -10.488 -19.055  0.00  0.00    -0.343 N 
ATOM     26  N   UNL     1      30.056 -10.800 -20.705  0.00  0.00    -0.285 NA
ATOM     27  C   UNL     1      31.290 -11.016 -20.284  0.00  0.00    +0.117 C 
ATOM     28  H   UNL     1      31.044  -9.962 -18.519  0.00  0.00    +0.144 HD
ATOM     29  H   UNL     1      32.596 -10.641 -18.723  0.00  0.00    +0.144 HD
ATOM     30  H   UNL     1      29.434 -10.272 -20.155  0.00  0.00    +0.188 HD
ENDBRANCH  22  27
ENDBRANCH  18  19
ENDBRANCH   1  18
TORSDOF 5
ENDMDL
MODEL 7
REMARK VINA RESULT:     -11.6      1.511      2.547
REMARK  Name = 17758361
REMARK  5 active torsions:
REMARK  status: ('A' for Active; 'I' for Inactive)
REMARK    1  A    between atoms: N_1  and  C_18
REMARK    2  A    between atoms: C_4  and  C_10
REMARK    3  A    between atoms: C_10  and  C_11
REMARK    4  A    between atoms: C_18  and  C_19
REMARK    5  A    between atoms: C_22  and  C_27
REMARK                            x       y       z     vdW  Elec       q    Type
REMARK                         _______ _______ _______ _____ _____    ______ ____
ROOT
ATOM      1  N   UNL     1      35.248 -17.662 -23.144  0.00  0.00    -0.314 N 
ATOM      2  N   UNL     1      34.073 -16.859 -25.019  0.00  0.00    -0.229 NA
ATOM      3  C   UNL     1      34.629 -16.618 -23.811  0.00  0.00    +0.129 C 
ATOM      4  C   UNL     1      34.007 -14.323 -23.845  0.00  0.00    +0.043 C 
ATOM      5  C   UNL     1      34.623 -15.381 -23.186  0.00  0.00    +0.037 C 
ATOM      6  C   UNL     1      33.424 -14.532 -25.091  0.00  0.00    +0.024 C 
ATOM      7  C   UNL     1      33.484 -15.807 -25.630  0.00  0.00    +0.100 C 
ATOM      8  H   UNL     1      35.259 -18.547 -23.576  0.00  0.00    +0.149 HD
ENDROOT
BRANCH   4  10
ATOM      9  O   UNL     1      34.627 -12.071 -23.725  0.00  0.00    -0.287 OA
ATOM     10  C   UNL     1      33.972 -13.003 -23.236  0.00  0.00    +0.196 C 
BRANCH  10  11
ATOM     11  C   UNL     1      33.164 -12.706 -22.014  0.00  0.00    +0.039 C 
ATOM     12  C   UNL     1      32.597 -11.443 -21.843  0.00  0.00    -0.001 C 
ATOM     13  C   UNL     1      31.842 -11.166 -20.703  0.00  0.00    -0.022 C 
ATOM     14  C   UNL     1      32.975 -13.693 -21.047  0.00  0.00    +0.003 C 
ATOM     15  C   UNL     1      31.653 -12.154 -19.735  0.00  0.00    -0.004 C 
ATOM     16  C   UNL     1      32.219 -13.416 -19.908  0.00  0.00    -0.000 C 
ATOM     17  C   UNL     1      31.233  -9.817 -20.521  0.00  0.00    +0.031 C 
ENDBRANCH  10  11
ENDBRANCH   4  10
BRANCH   1  18
ATOM     18  C   UNL     1      35.877 -17.524 -21.849  0.00  0.00    +0.115 C 
BRANCH  18  19
ATOM     19  C   UNL     1      35.601 -18.713 -20.992  0.00  0.00    -0.003 C 
ATOM     20  C   UNL     1      34.302 -19.209 -20.885  0.00  0.00    -0.003 C 
ATOM     21  C   UNL     1      36.643 -19.329 -20.296  0.00  0.00    -0.003 C 
ATOM     22  C   UNL     1      35.084 -20.935 -19.387  0.00  0.00    +0.031 C 
ATOM     23  C   UNL     1      34.044 -20.319 -20.082  0.00  0.00    +0.002 C 
ATOM     24  C   UNL     1      36.384 -20.440 -19.494  0.00  0.00    +0.002 C 
BRANCH  22  27
ATOM     25  N   UNL     1      33.729 -22.932 -18.801  0.00  0.00    -0.343 N 
ATOM     26  N   UNL     1      35.603 -22.364 -17.526  0.00  0.00    -0.285 NA
ATOM     27  C   UNL     1      34.814 -22.093 -18.551  0.00  0.00    +0.117 C 
ATOM     28  H   UNL     1      33.565 -23.711 -18.222  0.00  0.00    +0.144 HD
ATOM     29  H   UNL     1      33.127 -22.746 -19.558  0.00  0.00    +0.144 HD
ATOM     30  H   UNL     1      35.423 -23.148 -16.959  0.00  0.00    +0.188 HD
ENDBRANCH  22  27
ENDBRANCH  18  19
ENDBRANCH   1  18
TORSDOF 5
ENDMDL
MODEL 8
REMARK VINA RESULT:     -11.6      4.930     11.718
REMARK  Name = 17758361
REMARK  5 active torsions:
REMARK  status: ('A' for Active; 'I' for Inactive)
REMARK    1  A    between atoms: N_1  and  C_18
REMARK    2  A    between atoms: C_4  and  C_10
REMARK    3  A    between atoms: C_10  and  C_11
REMARK    4  A    between atoms: C_18  and  C_19
REMARK    5  A    between atoms: C_22  and  C_27
REMARK                            x       y       z     vdW  Elec       q    Type
REMARK                         _______ _______ _______ _____ _____    ______ ____
ROOT
ATOM      1  N   UNL     1      34.759 -21.418 -19.113  0.00  0.00    -0.314 N 
ATOM      2  N   UNL     1      33.451 -22.695 -17.629  0.00  0.00    -0.229 NA
ATOM      3  C   UNL     1      34.633 -22.105 -17.917  0.00  0.00    +0.129 C 
ATOM      4  C   UNL     1      35.627 -22.823 -15.880  0.00  0.00    +0.043 C 
ATOM      5  C   UNL     1      35.741 -22.138 -17.085  0.00  0.00    +0.037 C 
ATOM      6  C   UNL     1      34.428 -23.443 -15.548  0.00  0.00    +0.024 C 
ATOM      7  C   UNL     1      33.379 -23.351 -16.449  0.00  0.00    +0.100 C 
ATOM      8  H   UNL     1      33.980 -21.387 -19.714  0.00  0.00    +0.149 HD
ENDROOT
BRANCH   4  10
ATOM      9  O   UNL     1      37.702 -22.094 -15.083  0.00  0.00    -0.287 OA
ATOM     10  C   UNL     1      36.759 -22.889 -14.968  0.00  0.00    +0.196 C 
BRANCH  10  11
ATOM     11  C   UNL     1      36.843 -23.898 -13.868  0.00  0.00    +0.039 C 
ATOM     12  C   UNL     1      36.351 -23.589 -12.599  0.00  0.00    -0.001 C 
ATOM     13  C   UNL     1      36.428 -24.530 -11.574  0.00  0.00    -0.022 C 
ATOM     14  C   UNL     1      37.410 -25.148 -14.111  0.00  0.00    +0.003 C 
ATOM     15  C   UNL     1      36.996 -25.782 -11.817  0.00  0.00    -0.004 C 
ATOM     16  C   UNL     1      37.486 -26.090 -13.085  0.00  0.00    -0.000 C 
ATOM     17  C   UNL     1      35.900 -24.202 -10.218  0.00  0.00    +0.031 C 
ENDBRANCH  10  11
ENDBRANCH   4  10
BRANCH   1  18
ATOM     18  C   UNL     1      35.971 -20.747 -19.526  0.00  0.00    +0.115 C 
BRANCH  18  19
ATOM     19  C   UNL     1      35.696 -19.774 -20.623  0.00  0.00    -0.003 C 
ATOM     20  C   UNL     1      34.487 -19.832 -21.318  0.00  0.00    -0.003 C 
ATOM     21  C   UNL     1      36.647 -18.809 -20.956  0.00  0.00    -0.003 C 
ATOM     22  C   UNL     1      35.180 -17.958 -22.677  0.00  0.00    +0.031 C 
ATOM     23  C   UNL     1      34.230 -18.924 -22.345  0.00  0.00    +0.002 C 
ATOM     24  C   UNL     1      36.388 -17.901 -21.982  0.00  0.00    +0.002 C 
BRANCH  22  27
ATOM     25  N   UNL     1      35.395 -15.706 -23.701  0.00  0.00    -0.343 N 
ATOM     26  N   UNL     1      34.189 -17.386 -24.789  0.00  0.00    -0.285 NA
ATOM     27  C   UNL     1      34.910 -17.012 -23.747  0.00  0.00    +0.117 C 
ATOM     28  H   UNL     1      35.201 -15.082 -24.437  0.00  0.00    +0.144 HD
ATOM     29  H   UNL     1      35.932 -15.408 -22.931  0.00  0.00    +0.144 HD
ATOM     30  H   UNL     1      34.005 -16.747 -25.516  0.00  0.00    +0.188 HD
ENDBRANCH  22  27
ENDBRANCH  18  19
ENDBRANCH   1  18
TORSDOF 5
ENDMDL
MODEL 9
REMARK VINA RESULT:     -11.5      4.167      6.886
REMARK  Name = 17758361
REMARK  5 active torsions:
REMARK  status: ('A' for Active; 'I' for Inactive)
REMARK    1  A    between atoms: N_1  and  C_18
REMARK    2  A    between atoms: C_4  and  C_10
REMARK    3  A    between atoms: C_10  and  C_11
REMARK    4  A    between atoms: C_18  and  C_19
REMARK    5  A    between atoms: C_22  and  C_27
REMARK                            x       y       z     vdW  Elec       q    Type
REMARK                         _______ _______ _______ _____ _____    ______ ____
ROOT
ATOM      1  N   UNL     1      34.752 -22.380 -17.601  0.00  0.00    -0.314 N 
ATOM      2  N   UNL     1      33.106 -21.596 -19.090  0.00  0.00    -0.229 NA
ATOM      3  C   UNL     1      34.376 -21.534 -18.630  0.00  0.00    +0.129 C 
ATOM      4  C   UNL     1      34.976 -19.817 -20.162  0.00  0.00    +0.043 C 
ATOM      5  C   UNL     1      35.340 -20.671 -19.127  0.00  0.00    +0.037 C 
ATOM      6  C   UNL     1      33.679 -19.851 -20.662  0.00  0.00    +0.024 C 
ATOM      7  C   UNL     1      32.789 -20.751 -20.096  0.00  0.00    +0.100 C 
ATOM      8  H   UNL     1      34.077 -22.998 -17.237  0.00  0.00    +0.149 HD
ENDROOT
BRANCH   4  10
ATOM      9  O   UNL     1      37.162 -19.106 -20.593  0.00  0.00    -0.287 OA
ATOM     10  C   UNL     1      35.949 -18.892 -20.722  0.00  0.00    +0.196 C 
BRANCH  10  11
ATOM     11  C   UNL     1      35.545 -17.660 -21.466  0.00  0.00    +0.039 C 
ATOM     12  C   UNL     1      35.206 -16.501 -20.765  0.00  0.00    -0.001 C 
ATOM     13  C   UNL     1      34.830 -15.352 -21.460  0.00  0.00    -0.022 C 
ATOM     14  C   UNL     1      35.510 -17.668 -22.859  0.00  0.00    +0.003 C 
ATOM     15  C   UNL     1      34.795 -15.360 -22.855  0.00  0.00    -0.004 C 
ATOM     16  C   UNL     1      35.135 -16.517 -23.554  0.00  0.00    -0.000 C 
ATOM     17  C   UNL     1      34.470 -14.113 -20.712  0.00  0.00    +0.031 C 
ENDBRANCH  10  11
ENDBRANCH   4  10
BRANCH   1  18
ATOM     18  C   UNL     1      36.081 -22.405 -17.030  0.00  0.00    +0.115 C 
BRANCH  18  19
ATOM     19  C   UNL     1      36.039 -22.819 -15.598  0.00  0.00    -0.003 C 
ATOM     20  C   UNL     1      34.830 -23.206 -15.019  0.00  0.00    -0.003 C 
ATOM     21  C   UNL     1      37.208 -22.818 -14.836  0.00  0.00    -0.003 C 
ATOM     22  C   UNL     1      35.959 -23.591 -12.919  0.00  0.00    +0.031 C 
ATOM     23  C   UNL     1      34.791 -23.592 -13.680  0.00  0.00    +0.002 C 
ATOM     24  C   UNL     1      37.168 -23.204 -13.497  0.00  0.00    +0.002 C 
BRANCH  22  27
ATOM     25  N   UNL     1      36.790 -23.448 -10.583  0.00  0.00    -0.343 N 
ATOM     26  N   UNL     1      35.039 -24.897 -11.124  0.00  0.00    -0.285 NA
ATOM     27  C   UNL     1      35.917 -23.994 -11.522  0.00  0.00    +0.117 C 
ATOM     28  H   UNL     1      36.744 -23.735  -9.642  0.00  0.00    +0.144 HD
ATOM     29  H   UNL     1      37.453 -22.775 -10.860  0.00  0.00    +0.144 HD
ATOM     30  H   UNL     1      35.008 -25.171 -10.179  0.00  0.00    +0.188 HD
ENDBRANCH  22  27
ENDBRANCH  18  19
ENDBRANCH   1  18
TORSDOF 5
ENDMDL
