MODEL 1
REMARK VINA RESULT:     -11.6      0.000      0.000
REMARK  Name = 446277
REMARK  7 active torsions:
REMARK  status: ('A' for Active; 'I' for Inactive)
REMARK    1  A    between atoms: N_2  and  C_17
REMARK    2  A    between atoms: C_3  and  C_5
REMARK    3  A    between atoms: C_8  and  S_11
REMARK    4  A    between atoms: S_11  and  N_14
REMARK    5  A    between atoms: C_17  and  C_18
REMARK    6  A    between atoms: C_18  and  C_20
REMARK    7  A    between atoms: C_20  and  N_21
REMARK                            x       y       z     vdW  Elec       q    Type
REMARK                         _______ _______ _______ _____ _____    ______ ____
ROOT
ATOM      1  O   UNL     1      37.098 -18.234 -21.780  0.00  0.00    -0.270 OA
ATOM      2  N   UNL     1      35.022 -17.199 -21.763  0.00  0.00    -0.301 N 
ATOM      3  C   UNL     1      35.919 -18.209 -21.437  0.00  0.00    +0.246 C 
ATOM      4  H   UNL     1      34.095 -17.268 -21.440  0.00  0.00    +0.150 HD
ENDROOT
BRANCH   3   5
ATOM      5  C   UNL     1      35.373 -19.335 -20.635  0.00  0.00    +0.053 C 
ATOM      6  C   UNL     1      34.008 -19.530 -20.602  0.00  0.00    +0.006 C 
ATOM      7  C   UNL     1      36.251 -20.150 -19.949  0.00  0.00    +0.006 C 
ATOM      8  C   UNL     1      34.363 -21.426 -19.148  0.00  0.00    +0.122 C 
ATOM      9  C   UNL     1      33.497 -20.588 -19.850  0.00  0.00    +0.020 C 
ATOM     10  C   UNL     1      35.739 -21.207 -19.197  0.00  0.00    +0.020 C 
BRANCH   8  11
ATOM     11  S   UNL     1      33.722 -22.751 -18.206  0.00  0.00    +0.057 S 
ATOM     12  O   UNL     1      32.398 -22.375 -17.727  0.00  0.00    -0.153 OA
ATOM     13  O   UNL     1      33.895 -23.982 -18.964  0.00  0.00    -0.153 OA
BRANCH  11  14
ATOM     14  N   UNL     1      34.803 -22.764 -16.884  0.00  0.00    -0.203 NA
ATOM     15  H   UNL     1      34.972 -23.726 -16.592  0.00  0.00    +0.144 HD
ATOM     16  H   UNL     1      34.399 -22.238 -16.109  0.00  0.00    +0.144 HD
ENDBRANCH  11  14
ENDBRANCH   8  11
ENDBRANCH   3   5
BRANCH   2  17
ATOM     17  C   UNL     1      35.394 -16.057 -22.553  0.00  0.00    +0.091 C 
BRANCH  17  18
ATOM     18  C   UNL     1      34.871 -14.725 -21.992  0.00  0.00    +0.040 C 
ATOM     19  C   UNL     1      34.632 -14.821 -20.481  0.00  0.00    +0.004 C 
BRANCH  18  20
ATOM     20  C   UNL     1      33.607 -14.266 -22.747  0.00  0.00    +0.097 C 
BRANCH  20  21
ATOM     21  N   UNL     1      33.507 -12.817 -22.898  0.00  0.00    -0.286 N 
ATOM     22  C   UNL     1      32.737 -11.996 -22.120  0.00  0.00    +0.052 C 
ATOM     23  C   UNL     1      32.929 -10.697 -22.597  0.00  0.00    +0.015 C 
ATOM     24  C   UNL     1      34.177 -12.105 -23.847  0.00  0.00    +0.065 C 
ATOM     25  C   UNL     1      33.840 -10.781 -23.686  0.00  0.00    +0.017 C 
ATOM     26  C   UNL     1      31.894 -12.287 -21.042  0.00  0.00    +0.015 C 
ATOM     27  C   UNL     1      32.246  -9.636 -21.968  0.00  0.00    +0.001 C 
ATOM     28  C   UNL     1      31.226 -11.219 -20.434  0.00  0.00    +0.001 C 
ATOM     29  C   UNL     1      31.399  -9.913 -20.889  0.00  0.00    +0.000 C 
ENDBRANCH  20  21
ENDBRANCH  18  20
ENDBRANCH  17  18
ENDBRANCH   2  17
TORSDOF 7
ENDMDL
MODEL 2
REMARK VINA RESULT:     -11.6      0.723      1.294
REMARK  Name = 446277
REMARK  7 active torsions:
REMARK  status: ('A' for Active; 'I' for Inactive)
REMARK    1  A    between atoms: N_2  and  C_17
REMARK    2  A    between atoms: C_3  and  C_5
REMARK    3  A    between atoms: C_8  and  S_11
REMARK    4  A    between atoms: S_11  and  N_14
REMARK    5  A    between atoms: C_17  and  C_18
REMARK    6  A    between atoms: C_18  and  C_20
REMARK    7  A    between atoms: C_20  and  N_21
REMARK                            x       y       z     vdW  Elec       q    Type
REMARK                         _______ _______ _______ _____ _____    ______ ____
ROOT
ATOM      1  O   UNL     1      37.178 -18.193 -21.719  0.00  0.00    -0.270 OA
ATOM      2  N   UNL     1      35.064 -17.238 -21.763  0.00  0.00    -0.301 N 
ATOM      3  C   UNL     1      35.992 -18.207 -21.400  0.00  0.00    +0.246 C 
ATOM      4  H   UNL     1      34.134 -17.337 -21.457  0.00  0.00    +0.150 HD
ENDROOT
BRANCH   3   5
ATOM      5  C   UNL     1      35.473 -19.339 -20.589  0.00  0.00    +0.053 C 
ATOM      6  C   UNL     1      36.368 -20.134 -19.905  0.00  0.00    +0.006 C 
ATOM      7  C   UNL     1      34.111 -19.557 -20.546  0.00  0.00    +0.006 C 
ATOM      8  C   UNL     1      34.508 -21.438 -19.083  0.00  0.00    +0.122 C 
ATOM      9  C   UNL     1      35.880 -21.197 -19.143  0.00  0.00    +0.020 C 
ATOM     10  C   UNL     1      33.623 -20.619 -19.784  0.00  0.00    +0.020 C 
BRANCH   8  11
ATOM     11  S   UNL     1      33.897 -22.768 -18.129  0.00  0.00    +0.057 S 
ATOM     12  O   UNL     1      33.853 -23.955 -18.971  0.00  0.00    -0.153 OA
ATOM     13  O   UNL     1      34.622 -22.802 -16.866  0.00  0.00    -0.153 OA
BRANCH  11  14
ATOM     14  N   UNL     1      32.299 -22.246 -17.828  0.00  0.00    -0.203 NA
ATOM     15  H   UNL     1      31.645 -22.988 -18.078  0.00  0.00    +0.144 HD
ATOM     16  H   UNL     1      32.101 -21.416 -18.388  0.00  0.00    +0.144 HD
ENDBRANCH  11  14
ENDBRANCH   8  11
ENDBRANCH   3   5
BRANCH   2  17
ATOM     17  C   UNL     1      35.409 -16.097 -22.566  0.00  0.00    +0.091 C 
BRANCH  17  18
ATOM     18  C   UNL     1      34.878 -14.768 -22.006  0.00  0.00    +0.040 C 
ATOM     19  C   UNL     1      34.651 -14.861 -20.493  0.00  0.00    +0.004 C 
BRANCH  18  20
ATOM     20  C   UNL     1      33.605 -14.323 -22.754  0.00  0.00    +0.097 C 
BRANCH  20  21
ATOM     21  N   UNL     1      33.487 -12.875 -22.903  0.00  0.00    -0.286 N 
ATOM     22  C   UNL     1      32.752 -12.057 -22.089  0.00  0.00    +0.052 C 
ATOM     23  C   UNL     1      32.910 -10.758 -22.579  0.00  0.00    +0.015 C 
ATOM     24  C   UNL     1      34.104 -12.162 -23.886  0.00  0.00    +0.065 C 
ATOM     25  C   UNL     1      33.766 -10.839 -23.712  0.00  0.00    +0.017 C 
ATOM     26  C   UNL     1      31.966 -12.351 -20.970  0.00  0.00    +0.015 C 
ATOM     27  C   UNL     1      32.253  -9.700 -21.919  0.00  0.00    +0.001 C 
ATOM     28  C   UNL     1      31.323 -11.285 -20.332  0.00  0.00    +0.001 C 
ATOM     29  C   UNL     1      31.463  -9.979 -20.798  0.00  0.00    +0.000 C 
ENDBRANCH  20  21
ENDBRANCH  18  20
ENDBRANCH  17  18
ENDBRANCH   2  17
TORSDOF 7
ENDMDL
MODEL 3
REMARK VINA RESULT:     -11.4      0.783      1.753
REMARK  Name = 446277
REMARK  7 active torsions:
REMARK  status: ('A' for Active; 'I' for Inactive)
REMARK    1  A    between atoms: N_2  and  C_17
REMARK    2  A    between atoms: C_3  and  C_5
REMARK    3  A    between atoms: C_8  and  S_11
REMARK    4  A    between atoms: S_11  and  N_14
REMARK    5  A    between atoms: C_17  and  C_18
REMARK    6  A    between atoms: C_18  and  C_20
REMARK    7  A    between atoms: C_20  and  N_21
REMARK                            x       y       z     vdW  Elec       q    Type
REMARK                         _______ _______ _______ _____ _____    ______ ____
ROOT
ATOM      1  O   UNL     1      37.185 -18.255 -21.701  0.00  0.00    -0.270 OA
ATOM      2  N   UNL     1      35.096 -17.249 -21.795  0.00  0.00    -0.301 N 
ATOM      3  C   UNL     1      35.991 -18.241 -21.411  0.00  0.00    +0.246 C 
ATOM      4  H   UNL     1      34.157 -17.326 -21.513  0.00  0.00    +0.150 HD
ENDROOT
BRANCH   3   5
ATOM      5  C   UNL     1      35.425 -19.361 -20.616  0.00  0.00    +0.053 C 
ATOM      6  C   UNL     1      34.057 -19.539 -20.595  0.00  0.00    +0.006 C 
ATOM      7  C   UNL     1      36.286 -20.188 -19.924  0.00  0.00    +0.006 C 
ATOM      8  C   UNL     1      34.376 -21.441 -19.139  0.00  0.00    +0.122 C 
ATOM      9  C   UNL     1      33.526 -20.591 -19.847  0.00  0.00    +0.020 C 
ATOM     10  C   UNL     1      35.755 -21.239 -19.178  0.00  0.00    +0.020 C 
BRANCH   8  11
ATOM     11  S   UNL     1      33.711 -22.759 -18.205  0.00  0.00    +0.057 S 
ATOM     12  O   UNL     1      32.390 -22.365 -17.732  0.00  0.00    -0.153 OA
ATOM     13  O   UNL     1      33.869 -23.991 -18.965  0.00  0.00    -0.153 OA
BRANCH  11  14
ATOM     14  N   UNL     1      34.785 -22.792 -16.878  0.00  0.00    -0.203 NA
ATOM     15  H   UNL     1      35.743 -22.689 -17.212  0.00  0.00    +0.144 HD
ATOM     16  H   UNL     1      34.690 -23.680 -16.386  0.00  0.00    +0.144 HD
ENDBRANCH  11  14
ENDBRANCH   8  11
ENDBRANCH   3   5
BRANCH   2  17
ATOM     17  C   UNL     1      35.488 -16.115 -22.587  0.00  0.00    +0.091 C 
BRANCH  17  18
ATOM     18  C   UNL     1      34.301 -15.291 -23.111  0.00  0.00    +0.040 C 
ATOM     19  C   UNL     1      34.014 -15.613 -24.581  0.00  0.00    +0.004 C 
BRANCH  18  20
ATOM     20  C   UNL     1      34.533 -13.784 -22.885  0.00  0.00    +0.097 C 
BRANCH  20  21
ATOM     21  N   UNL     1      33.517 -13.152 -22.048  0.00  0.00    -0.286 N 
ATOM     22  C   UNL     1      33.053 -11.874 -22.203  0.00  0.00    +0.052 C 
ATOM     23  C   UNL     1      32.098 -11.670 -21.204  0.00  0.00    +0.015 C 
ATOM     24  C   UNL     1      32.906 -13.771 -20.999  0.00  0.00    +0.065 C 
ATOM     25  C   UNL     1      32.016 -12.875 -20.452  0.00  0.00    +0.017 C 
ATOM     26  C   UNL     1      33.392 -10.887 -23.135  0.00  0.00    +0.015 C 
ATOM     27  C   UNL     1      31.449 -10.421 -21.130  0.00  0.00    +0.001 C 
ATOM     28  C   UNL     1      32.736  -9.655 -23.042  0.00  0.00    +0.001 C 
ATOM     29  C   UNL     1      31.779  -9.425 -22.055  0.00  0.00    +0.000 C 
ENDBRANCH  20  21
ENDBRANCH  18  20
ENDBRANCH  17  18
ENDBRANCH   2  17
TORSDOF 7
ENDMDL
MODEL 4
REMARK VINA RESULT:     -11.1      5.910     11.200
REMARK  Name = 446277
REMARK  7 active torsions:
REMARK  status: ('A' for Active; 'I' for Inactive)
REMARK    1  A    between atoms: N_2  and  C_17
REMARK    2  A    between atoms: C_3  and  C_5
REMARK    3  A    between atoms: C_8  and  S_11
REMARK    4  A    between atoms: S_11  and  N_14
REMARK    5  A    between atoms: C_17  and  C_18
REMARK    6  A    between atoms: C_18  and  C_20
REMARK    7  A    between atoms: C_20  and  N_21
REMARK                            x       y       z     vdW  Elec       q    Type
REMARK                         _______ _______ _______ _____ _____    ______ ____
ROOT
ATOM      1  O   UNL     1      33.679 -24.126 -18.315  0.00  0.00    -0.270 OA
ATOM      2  N   UNL     1      32.994 -22.562 -16.743  0.00  0.00    -0.301 N 
ATOM      3  C   UNL     1      33.610 -22.963 -17.923  0.00  0.00    +0.246 C 
ATOM      4  H   UNL     1      32.991 -21.605 -16.515  0.00  0.00    +0.150 HD
ENDROOT
BRANCH   3   5
ATOM      5  C   UNL     1      34.242 -21.888 -18.730  0.00  0.00    +0.053 C 
ATOM      6  C   UNL     1      33.435 -21.036 -19.455  0.00  0.00    +0.006 C 
ATOM      7  C   UNL     1      35.618 -21.776 -18.728  0.00  0.00    +0.006 C 
ATOM      8  C   UNL     1      35.418 -19.892 -20.228  0.00  0.00    +0.122 C 
ATOM      9  C   UNL     1      34.029 -20.027 -20.213  0.00  0.00    +0.020 C 
ATOM     10  C   UNL     1      36.211 -20.766 -19.486  0.00  0.00    +0.020 C 
BRANCH   8  11
ATOM     11  S   UNL     1      36.161 -18.628 -21.175  0.00  0.00    +0.057 S 
ATOM     12  O   UNL     1      37.597 -18.652 -20.927  0.00  0.00    -0.153 OA
ATOM     13  O   UNL     1      35.662 -18.718 -22.541  0.00  0.00    -0.153 OA
BRANCH  11  14
ATOM     14  N   UNL     1      35.498 -17.236 -20.441  0.00  0.00    -0.203 NA
ATOM     15  H   UNL     1      35.179 -16.589 -21.162  0.00  0.00    +0.144 HD
ATOM     16  H   UNL     1      36.209 -16.783 -19.867  0.00  0.00    +0.144 HD
ENDBRANCH  11  14
ENDBRANCH   8  11
ENDBRANCH   3   5
BRANCH   2  17
ATOM     17  C   UNL     1      32.360 -23.488 -15.845  0.00  0.00    +0.091 C 
BRANCH  17  18
ATOM     18  C   UNL     1      33.289 -23.996 -14.731  0.00  0.00    +0.040 C 
ATOM     19  C   UNL     1      32.485 -24.620 -13.586  0.00  0.00    +0.004 C 
BRANCH  18  20
ATOM     20  C   UNL     1      34.222 -22.873 -14.235  0.00  0.00    +0.097 C 
BRANCH  20  21
ATOM     21  N   UNL     1      35.640 -23.148 -14.450  0.00  0.00    -0.286 N 
ATOM     22  C   UNL     1      36.388 -24.035 -13.726  0.00  0.00    +0.052 C 
ATOM     23  C   UNL     1      37.681 -23.993 -14.253  0.00  0.00    +0.015 C 
ATOM     24  C   UNL     1      36.392 -22.543 -15.411  0.00  0.00    +0.065 C 
ATOM     25  C   UNL     1      37.669 -23.047 -15.316  0.00  0.00    +0.017 C 
ATOM     26  C   UNL     1      36.036 -24.867 -12.657  0.00  0.00    +0.015 C 
ATOM     27  C   UNL     1      38.672 -24.820 -13.687  0.00  0.00    +0.001 C 
ATOM     28  C   UNL     1      37.036 -25.678 -12.111  0.00  0.00    +0.001 C 
ATOM     29  C   UNL     1      38.334 -25.657 -12.617  0.00  0.00    +0.000 C 
ENDBRANCH  20  21
ENDBRANCH  18  20
ENDBRANCH  17  18
ENDBRANCH   2  17
TORSDOF 7
ENDMDL
MODEL 5
REMARK VINA RESULT:     -11.0      5.879     11.434
REMARK  Name = 446277
REMARK  7 active torsions:
REMARK  status: ('A' for Active; 'I' for Inactive)
REMARK    1  A    between atoms: N_2  and  C_17
REMARK    2  A    between atoms: C_3  and  C_5
REMARK    3  A    between atoms: C_8  and  S_11
REMARK    4  A    between atoms: S_11  and  N_14
REMARK    5  A    between atoms: C_17  and  C_18
REMARK    6  A    between atoms: C_18  and  C_20
REMARK    7  A    between atoms: C_20  and  N_21
REMARK                            x       y       z     vdW  Elec       q    Type
REMARK                         _______ _______ _______ _____ _____    ______ ____
ROOT
ATOM      1  O   UNL     1      33.722 -24.115 -18.428  0.00  0.00    -0.270 OA
ATOM      2  N   UNL     1      32.907 -22.572 -16.899  0.00  0.00    -0.301 N 
ATOM      3  C   UNL     1      33.600 -22.956 -18.041  0.00  0.00    +0.246 C 
ATOM      4  H   UNL     1      32.865 -21.616 -16.671  0.00  0.00    +0.150 HD
ENDROOT
BRANCH   3   5
ATOM      5  C   UNL     1      34.248 -21.863 -18.812  0.00  0.00    +0.053 C 
ATOM      6  C   UNL     1      35.621 -21.743 -18.773  0.00  0.00    +0.006 C 
ATOM      7  C   UNL     1      33.454 -21.002 -19.541  0.00  0.00    +0.006 C 
ATOM      8  C   UNL     1      35.449 -19.834 -20.243  0.00  0.00    +0.122 C 
ATOM      9  C   UNL     1      36.229 -20.717 -19.497  0.00  0.00    +0.020 C 
ATOM     10  C   UNL     1      34.062 -19.976 -20.265  0.00  0.00    +0.020 C 
BRANCH   8  11
ATOM     11  S   UNL     1      36.209 -18.549 -21.149  0.00  0.00    +0.057 S 
ATOM     12  O   UNL     1      37.644 -18.599 -20.901  0.00  0.00    -0.153 OA
ATOM     13  O   UNL     1      35.711 -18.591 -22.517  0.00  0.00    -0.153 OA
BRANCH  11  14
ATOM     14  N   UNL     1      35.562 -17.173 -20.372  0.00  0.00    -0.203 NA
ATOM     15  H   UNL     1      36.041 -17.028 -19.483  0.00  0.00    +0.144 HD
ATOM     16  H   UNL     1      34.566 -17.316 -20.203  0.00  0.00    +0.144 HD
ENDBRANCH  11  14
ENDBRANCH   8  11
ENDBRANCH   3   5
BRANCH   2  17
ATOM     17  C   UNL     1      32.249 -23.517 -16.038  0.00  0.00    +0.091 C 
BRANCH  17  18
ATOM     18  C   UNL     1      32.820 -23.549 -14.612  0.00  0.00    +0.040 C 
ATOM     19  C   UNL     1      31.918 -22.781 -13.640  0.00  0.00    +0.004 C 
BRANCH  18  20
ATOM     20  C   UNL     1      34.271 -23.028 -14.586  0.00  0.00    +0.097 C 
BRANCH  20  21
ATOM     21  N   UNL     1      35.261 -24.057 -14.280  0.00  0.00    -0.286 N 
ATOM     22  C   UNL     1      36.172 -23.995 -13.261  0.00  0.00    +0.052 C 
ATOM     23  C   UNL     1      36.920 -25.173 -13.321  0.00  0.00    +0.015 C 
ATOM     24  C   UNL     1      35.393 -25.215 -14.986  0.00  0.00    +0.065 C 
ATOM     25  C   UNL     1      36.418 -25.933 -14.414  0.00  0.00    +0.017 C 
ATOM     26  C   UNL     1      36.396 -23.006 -12.297  0.00  0.00    +0.015 C 
ATOM     27  C   UNL     1      37.944 -25.375 -12.373  0.00  0.00    +0.001 C 
ATOM     28  C   UNL     1      37.418 -23.228 -11.367  0.00  0.00    +0.001 C 
ATOM     29  C   UNL     1      38.181 -24.394 -11.404  0.00  0.00    +0.000 C 
ENDBRANCH  20  21
ENDBRANCH  18  20
ENDBRANCH  17  18
ENDBRANCH   2  17
TORSDOF 7
ENDMDL
MODEL 6
REMARK VINA RESULT:     -10.9      5.942     11.589
REMARK  Name = 446277
REMARK  7 active torsions:
REMARK  status: ('A' for Active; 'I' for Inactive)
REMARK    1  A    between atoms: N_2  and  C_17
REMARK    2  A    between atoms: C_3  and  C_5
REMARK    3  A    between atoms: C_8  and  S_11
REMARK    4  A    between atoms: S_11  and  N_14
REMARK    5  A    between atoms: C_17  and  C_18
REMARK    6  A    between atoms: C_18  and  C_20
REMARK    7  A    between atoms: C_20  and  N_21
REMARK                            x       y       z     vdW  Elec       q    Type
REMARK                         _______ _______ _______ _____ _____    ______ ____
ROOT
ATOM      1  O   UNL     1      33.718 -24.151 -18.636  0.00  0.00    -0.270 OA
ATOM      2  N   UNL     1      33.147 -22.744 -16.881  0.00  0.00    -0.301 N 
ATOM      3  C   UNL     1      33.676 -23.030 -18.134  0.00  0.00    +0.246 C 
ATOM      4  H   UNL     1      33.158 -21.812 -16.566  0.00  0.00    +0.150 HD
ENDROOT
BRANCH   3   5
ATOM      5  C   UNL     1      34.246 -21.879 -18.882  0.00  0.00    +0.053 C 
ATOM      6  C   UNL     1      33.388 -21.018 -19.534  0.00  0.00    +0.006 C 
ATOM      7  C   UNL     1      35.615 -21.709 -18.900  0.00  0.00    +0.006 C 
ATOM      8  C   UNL     1      35.304 -19.743 -20.269  0.00  0.00    +0.122 C 
ATOM      9  C   UNL     1      33.923 -19.937 -20.236  0.00  0.00    +0.020 C 
ATOM     10  C   UNL     1      36.149 -20.628 -19.601  0.00  0.00    +0.020 C 
BRANCH   8  11
ATOM     11  S   UNL     1      35.974 -18.390 -21.147  0.00  0.00    +0.057 S 
ATOM     12  O   UNL     1      35.608 -18.527 -22.551  0.00  0.00    -0.153 OA
ATOM     13  O   UNL     1      35.645 -17.165 -20.430  0.00  0.00    -0.153 OA
BRANCH  11  14
ATOM     14  N   UNL     1      37.647 -18.689 -20.982  0.00  0.00    -0.203 NA
ATOM     15  H   UNL     1      37.788 -19.561 -20.471  0.00  0.00    +0.144 HD
ATOM     16  H   UNL     1      38.081 -17.921 -20.469  0.00  0.00    +0.144 HD
ENDBRANCH  11  14
ENDBRANCH   8  11
ENDBRANCH   3   5
BRANCH   2  17
ATOM     17  C   UNL     1      32.582 -23.755 -16.029  0.00  0.00    +0.091 C 
BRANCH  17  18
ATOM     18  C   UNL     1      32.931 -23.571 -14.544  0.00  0.00    +0.040 C 
ATOM     19  C   UNL     1      31.926 -22.642 -13.855  0.00  0.00    +0.004 C 
BRANCH  18  20
ATOM     20  C   UNL     1      34.382 -23.079 -14.374  0.00  0.00    +0.097 C 
BRANCH  20  21
ATOM     21  N   UNL     1      35.115 -23.765 -13.313  0.00  0.00    -0.286 N 
ATOM     22  C   UNL     1      36.390 -24.249 -13.425  0.00  0.00    +0.052 C 
ATOM     23  C   UNL     1      36.708 -24.826 -12.193  0.00  0.00    +0.015 C 
ATOM     24  C   UNL     1      34.606 -24.006 -12.073  0.00  0.00    +0.065 C 
ATOM     25  C   UNL     1      35.573 -24.666 -11.350  0.00  0.00    +0.017 C 
ATOM     26  C   UNL     1      37.284 -24.225 -14.501  0.00  0.00    +0.015 C 
ATOM     27  C   UNL     1      37.981 -25.409 -12.026  0.00  0.00    +0.001 C 
ATOM     28  C   UNL     1      38.540 -24.811 -14.312  0.00  0.00    +0.001 C 
ATOM     29  C   UNL     1      38.885 -25.394 -13.094  0.00  0.00    +0.000 C 
ENDBRANCH  20  21
ENDBRANCH  18  20
ENDBRANCH  17  18
ENDBRANCH   2  17
TORSDOF 7
ENDMDL
MODEL 7
REMARK VINA RESULT:     -10.7      3.070      4.807
REMARK  Name = 446277
REMARK  7 active torsions:
REMARK  status: ('A' for Active; 'I' for Inactive)
REMARK    1  A    between atoms: N_2  and  C_17
REMARK    2  A    between atoms: C_3  and  C_5
REMARK    3  A    between atoms: C_8  and  S_11
REMARK    4  A    between atoms: S_11  and  N_14
REMARK    5  A    between atoms: C_17  and  C_18
REMARK    6  A    between atoms: C_18  and  C_20
REMARK    7  A    between atoms: C_20  and  N_21
REMARK                            x       y       z     vdW  Elec       q    Type
REMARK                         _______ _______ _______ _____ _____    ______ ____
ROOT
ATOM      1  O   UNL     1      33.493 -21.667 -19.074  0.00  0.00    -0.270 OA
ATOM      2  N   UNL     1      35.396 -20.429 -19.550  0.00  0.00    -0.301 N 
ATOM      3  C   UNL     1      34.650 -21.343 -18.817  0.00  0.00    +0.246 C 
ATOM      4  H   UNL     1      36.318 -20.235 -19.265  0.00  0.00    +0.150 HD
ENDROOT
BRANCH   3   5
ATOM      5  C   UNL     1      35.322 -21.935 -17.631  0.00  0.00    +0.053 C 
ATOM      6  C   UNL     1      34.592 -22.745 -16.786  0.00  0.00    +0.006 C 
ATOM      7  C   UNL     1      36.655 -21.654 -17.413  0.00  0.00    +0.006 C 
ATOM      8  C   UNL     1      36.570 -23.032 -15.430  0.00  0.00    +0.122 C 
ATOM      9  C   UNL     1      35.223 -23.299 -15.672  0.00  0.00    +0.020 C 
ATOM     10  C   UNL     1      37.286 -22.210 -16.299  0.00  0.00    +0.020 C 
BRANCH   8  11
ATOM     11  S   UNL     1      37.360 -23.727 -14.036  0.00  0.00    +0.057 S 
ATOM     12  O   UNL     1      37.633 -22.660 -13.083  0.00  0.00    -0.153 OA
ATOM     13  O   UNL     1      36.606 -24.900 -13.614  0.00  0.00    -0.153 OA
BRANCH  11  14
ATOM     14  N   UNL     1      38.837 -24.244 -14.722  0.00  0.00    -0.203 NA
ATOM     15  H   UNL     1      38.782 -25.240 -14.938  0.00  0.00    +0.144 HD
ATOM     16  H   UNL     1      39.595 -24.081 -14.060  0.00  0.00    +0.144 HD
ENDBRANCH  11  14
ENDBRANCH   8  11
ENDBRANCH   3   5
BRANCH   2  17
ATOM     17  C   UNL     1      34.876 -19.755 -20.709  0.00  0.00    +0.091 C 
BRANCH  17  18
ATOM     18  C   UNL     1      35.882 -18.796 -21.365  0.00  0.00    +0.040 C 
ATOM     19  C   UNL     1      37.279 -18.967 -20.760  0.00  0.00    +0.004 C 
BRANCH  18  20
ATOM     20  C   UNL     1      35.391 -17.337 -21.281  0.00  0.00    +0.097 C 
BRANCH  20  21
ATOM     21  N   UNL     1      34.877 -16.815 -22.544  0.00  0.00    -0.286 N 
ATOM     22  C   UNL     1      34.527 -15.512 -22.773  0.00  0.00    +0.052 C 
ATOM     23  C   UNL     1      34.090 -15.442 -24.098  0.00  0.00    +0.015 C 
ATOM     24  C   UNL     1      34.683 -17.578 -23.656  0.00  0.00    +0.065 C 
ATOM     25  C   UNL     1      34.193 -16.753 -24.643  0.00  0.00    +0.017 C 
ATOM     26  C   UNL     1      34.560 -14.397 -21.930  0.00  0.00    +0.015 C 
ATOM     27  C   UNL     1      33.664 -14.199 -24.607  0.00  0.00    +0.001 C 
ATOM     28  C   UNL     1      34.133 -13.174 -22.456  0.00  0.00    +0.001 C 
ATOM     29  C   UNL     1      33.691 -13.075 -23.774  0.00  0.00    +0.000 C 
ENDBRANCH  20  21
ENDBRANCH  18  20
ENDBRANCH  17  18
ENDBRANCH   2  17
TORSDOF 7
ENDMDL
MODEL 8
REMARK VINA RESULT:     -10.5      4.395      7.117
REMARK  Name = 446277
REMARK  7 active torsions:
REMARK  status: ('A' for Active; 'I' for Inactive)
REMARK    1  A    between atoms: N_2  and  C_17
REMARK    2  A    between atoms: C_3  and  C_5
REMARK    3  A    between atoms: C_8  and  S_11
REMARK    4  A    between atoms: S_11  and  N_14
REMARK    5  A    between atoms: C_17  and  C_18
REMARK    6  A    between atoms: C_18  and  C_20
REMARK    7  A    between atoms: C_20  and  N_21
REMARK                            x       y       z     vdW  Elec       q    Type
REMARK                         _______ _______ _______ _____ _____    ______ ____
ROOT
ATOM      1  O   UNL     1      33.149 -23.123 -16.813  0.00  0.00    -0.270 OA
ATOM      2  N   UNL     1      35.034 -22.321 -17.903  0.00  0.00    -0.301 N 
ATOM      3  C   UNL     1      34.341 -22.826 -16.809  0.00  0.00    +0.246 C 
ATOM      4  H   UNL     1      35.990 -22.113 -17.800  0.00  0.00    +0.150 HD
ENDROOT
BRANCH   3   5
ATOM      5  C   UNL     1      35.122 -22.983 -15.554  0.00  0.00    +0.053 C 
ATOM      6  C   UNL     1      36.477 -22.728 -15.577  0.00  0.00    +0.006 C 
ATOM      7  C   UNL     1      34.465 -23.377 -14.407  0.00  0.00    +0.006 C 
ATOM      8  C   UNL     1      36.570 -23.273 -13.225  0.00  0.00    +0.122 C 
ATOM      9  C   UNL     1      37.210 -22.876 -14.399  0.00  0.00    +0.020 C 
ATOM     10  C   UNL     1      35.198 -23.523 -13.229  0.00  0.00    +0.020 C 
BRANCH   8  11
ATOM     11  S   UNL     1      37.487 -23.455 -11.750  0.00  0.00    +0.057 S 
ATOM     12  O   UNL     1      38.847 -23.843 -12.100  0.00  0.00    -0.153 OA
ATOM     13  O   UNL     1      37.262 -22.283 -10.917  0.00  0.00    -0.153 OA
BRANCH  11  14
ATOM     14  N   UNL     1      36.698 -24.793 -11.039  0.00  0.00    -0.203 NA
ATOM     15  H   UNL     1      36.898 -24.814 -10.039  0.00  0.00    +0.144 HD
ATOM     16  H   UNL     1      37.032 -25.654 -11.472  0.00  0.00    +0.144 HD
ENDBRANCH  11  14
ENDBRANCH   8  11
ENDBRANCH   3   5
BRANCH   2  17
ATOM     17  C   UNL     1      34.409 -22.091 -19.177  0.00  0.00    +0.091 C 
BRANCH  17  18
ATOM     18  C   UNL     1      34.325 -20.605 -19.560  0.00  0.00    +0.040 C 
ATOM     19  C   UNL     1      32.905 -20.230 -19.999  0.00  0.00    +0.004 C 
BRANCH  18  20
ATOM     20  C   UNL     1      35.373 -20.250 -20.633  0.00  0.00    +0.097 C 
BRANCH  20  21
ATOM     21  N   UNL     1      35.306 -18.864 -21.086  0.00  0.00    -0.286 N 
ATOM     22  C   UNL     1      34.881 -18.459 -22.322  0.00  0.00    +0.052 C 
ATOM     23  C   UNL     1      34.973 -17.066 -22.341  0.00  0.00    +0.015 C 
ATOM     24  C   UNL     1      35.664 -17.798 -20.318  0.00  0.00    +0.065 C 
ATOM     25  C   UNL     1      35.469 -16.662 -21.070  0.00  0.00    +0.017 C 
ATOM     26  C   UNL     1      34.425 -19.200 -23.418  0.00  0.00    +0.015 C 
ATOM     27  C   UNL     1      34.592 -16.376 -23.510  0.00  0.00    +0.001 C 
ATOM     28  C   UNL     1      34.054 -18.496 -24.567  0.00  0.00    +0.001 C 
ATOM     29  C   UNL     1      34.136 -17.105 -24.614  0.00  0.00    +0.000 C 
ENDBRANCH  20  21
ENDBRANCH  18  20
ENDBRANCH  17  18
ENDBRANCH   2  17
TORSDOF 7
ENDMDL
MODEL 9
REMARK VINA RESULT:     -10.4      1.742      2.762
REMARK  Name = 446277
REMARK  7 active torsions:
REMARK  status: ('A' for Active; 'I' for Inactive)
REMARK    1  A    between atoms: N_2  and  C_17
REMARK    2  A    between atoms: C_3  and  C_5
REMARK    3  A    between atoms: C_8  and  S_11
REMARK    4  A    between atoms: S_11  and  N_14
REMARK    5  A    between atoms: C_17  and  C_18
REMARK    6  A    between atoms: C_18  and  C_20
REMARK    7  A    between atoms: C_20  and  N_21
REMARK                            x       y       z     vdW  Elec       q    Type
REMARK                         _______ _______ _______ _____ _____    ______ ____
ROOT
ATOM      1  O   UNL     1      36.872 -18.561 -20.425  0.00  0.00    -0.270 OA
ATOM      2  N   UNL     1      35.198 -18.962 -21.981  0.00  0.00    -0.301 N 
ATOM      3  C   UNL     1      35.863 -19.168 -20.779  0.00  0.00    +0.246 C 
ATOM      4  H   UNL     1      34.396 -19.498 -22.175  0.00  0.00    +0.150 HD
ENDROOT
BRANCH   3   5
ATOM      5  C   UNL     1      35.303 -20.222 -19.893  0.00  0.00    +0.053 C 
ATOM      6  C   UNL     1      36.163 -20.950 -19.098  0.00  0.00    +0.006 C 
ATOM      7  C   UNL     1      33.940 -20.437 -19.894  0.00  0.00    +0.006 C 
ATOM      8  C   UNL     1      34.262 -22.176 -18.249  0.00  0.00    +0.122 C 
ATOM      9  C   UNL     1      35.637 -21.940 -18.267  0.00  0.00    +0.020 C 
ATOM     10  C   UNL     1      33.415 -21.425 -19.063  0.00  0.00    +0.020 C 
BRANCH   8  11
ATOM     11  S   UNL     1      33.603 -23.413 -17.207  0.00  0.00    +0.057 S 
ATOM     12  O   UNL     1      33.464 -24.639 -17.982  0.00  0.00    -0.153 OA
ATOM     13  O   UNL     1      34.363 -23.425 -15.965  0.00  0.00    -0.153 OA
BRANCH  11  14
ATOM     14  N   UNL     1      32.049 -22.781 -16.893  0.00  0.00    -0.203 NA
ATOM     15  H   UNL     1      32.108 -22.082 -16.152  0.00  0.00    +0.144 HD
ATOM     16  H   UNL     1      31.428 -23.535 -16.599  0.00  0.00    +0.144 HD
ENDBRANCH  11  14
ENDBRANCH   8  11
ENDBRANCH   3   5
BRANCH   2  17
ATOM     17  C   UNL     1      35.633 -17.995 -22.953  0.00  0.00    +0.091 C 
BRANCH  17  18
ATOM     18  C   UNL     1      34.479 -17.345 -23.732  0.00  0.00    +0.040 C 
ATOM     19  C   UNL     1      33.813 -18.355 -24.672  0.00  0.00    +0.004 C 
BRANCH  18  20
ATOM     20  C   UNL     1      34.959 -16.088 -24.483  0.00  0.00    +0.097 C 
BRANCH  20  21
ATOM     21  N   UNL     1      34.135 -14.907 -24.240  0.00  0.00    -0.286 N 
ATOM     22  C   UNL     1      33.892 -14.357 -23.011  0.00  0.00    +0.052 C 
ATOM     23  C   UNL     1      33.065 -13.251 -23.224  0.00  0.00    +0.015 C 
ATOM     24  C   UNL     1      33.504 -14.207 -25.224  0.00  0.00    +0.065 C 
ATOM     25  C   UNL     1      32.829 -13.169 -24.625  0.00  0.00    +0.017 C 
ATOM     26  C   UNL     1      34.328 -14.738 -21.738  0.00  0.00    +0.015 C 
ATOM     27  C   UNL     1      32.653 -12.488 -22.113  0.00  0.00    +0.001 C 
ATOM     28  C   UNL     1      33.907 -13.967 -20.650  0.00  0.00    +0.001 C 
ATOM     29  C   UNL     1      33.082 -12.858 -20.833  0.00  0.00    +0.000 C 
ENDBRANCH  20  21
ENDBRANCH  18  20
ENDBRANCH  17  18
ENDBRANCH   2  17
TORSDOF 7
ENDMDL
