MODEL 1
REMARK VINA RESULT:     -12.3      0.000      0.000
REMARK  Name = 66000
REMARK  8 active torsions:
REMARK  status: ('A' for Active; 'I' for Inactive)
REMARK    1  A    between atoms: C_1  and  O_19
REMARK    2  A    between atoms: C_4  and  C_7
REMARK    3  A    between atoms: C_10  and  C_15
REMARK    4  A    between atoms: O_19  and  C_20
REMARK    5  A    between atoms: C_20  and  C_24
REMARK    6  A    between atoms: C_23  and  C_28
REMARK    7  A    between atoms: C_28  and  C_30
REMARK    8  A    between atoms: C_30  and  O_31
REMARK                            x       y       z     vdW  Elec       q    Type
REMARK                         _______ _______ _______ _____ _____    ______ ____
ROOT
ATOM      1  C   UNL     1      34.638 -22.198 -18.259  0.00  0.00    +0.139 C 
ATOM      2  C   UNL     1      33.452 -21.715 -18.800  0.00  0.00    +0.037 C 
ATOM      3  C   UNL     1      35.863 -21.669 -18.645  0.00  0.00    +0.037 C 
ATOM      4  C   UNL     1      34.718 -20.153 -20.138  0.00  0.00    +0.000 C 
ATOM      5  C   UNL     1      33.493 -20.689 -19.743  0.00  0.00    +0.003 C 
ATOM      6  C   UNL     1      35.904 -20.643 -19.589  0.00  0.00    +0.003 C 
ENDROOT
BRANCH   4   7
ATOM      7  C   UNL     1      34.761 -19.089 -21.117  0.00  0.00    +0.000 C 
ATOM      8  C   UNL     1      35.245 -17.830 -20.758  0.00  0.00    +0.000 C 
ATOM      9  C   UNL     1      34.320 -19.321 -22.420  0.00  0.00    +0.000 C 
ATOM     10  C   UNL     1      34.847 -17.037 -23.005  0.00  0.00    +0.031 C 
ATOM     11  C   UNL     1      35.288 -16.804 -21.703  0.00  0.00    +0.003 C 
ATOM     12  C   UNL     1      34.362 -18.294 -23.364  0.00  0.00    +0.003 C 
BRANCH  10  15
ATOM     13  N   UNL     1      34.941 -14.628 -23.605  0.00  0.00    -0.343 N 
ATOM     14  N   UNL     1      34.878 -16.257 -25.279  0.00  0.00    -0.285 NA
ATOM     15  C   UNL     1      34.890 -15.967 -23.989  0.00  0.00    +0.117 C 
ATOM     16  H   UNL     1      34.969 -13.920 -24.288  0.00  0.00    +0.144 HD
ATOM     17  H   UNL     1      34.947 -14.391 -22.650  0.00  0.00    +0.144 HD
ATOM     18  H   UNL     1      34.908 -15.535 -25.947  0.00  0.00    +0.188 HD
ENDBRANCH  10  15
ENDBRANCH   4   7
BRANCH   1  19
ATOM     19  O   UNL     1      34.597 -23.209 -17.331  0.00  0.00    -0.474 OA
BRANCH  19  20
ATOM     20  C   UNL     1      33.947 -22.929 -16.103  0.00  0.00    +0.225 C 
BRANCH  20  24
ATOM     21  O   UNL     1      34.378 -24.501 -12.027  0.00  0.00    -0.275 OA
ATOM     22  N   UNL     1      34.444 -22.872 -13.707  0.00  0.00    -0.302 N 
ATOM     23  C   UNL     1      35.544 -24.892 -14.140  0.00  0.00    +0.089 C 
ATOM     24  C   UNL     1      35.005 -22.722 -15.028  0.00  0.00    +0.116 C 
ATOM     25  C   UNL     1      36.094 -23.789 -15.051  0.00  0.00    +0.033 C 
ATOM     26  C   UNL     1      34.735 -24.104 -13.127  0.00  0.00    +0.223 C 
ATOM     27  H   UNL     1      33.912 -22.175 -13.261  0.00  0.00    +0.149 HD
BRANCH  23  28
ATOM     28  C   UNL     1      36.630 -25.735 -13.499  0.00  0.00    +0.118 C 
BRANCH  28  30
ATOM     29  O   UNL     1      36.739 -27.174 -15.463  0.00  0.00    -0.250 OA
ATOM     30  C   UNL     1      37.277 -26.672 -14.488  0.00  0.00    +0.314 C 
BRANCH  30  31
ATOM     31  O   UNL     1      38.573 -26.890 -14.145  0.00  0.00    -0.480 OA
ATOM     32  H   UNL     1      38.932 -26.477 -13.385  0.00  0.00    +0.295 HD
ENDBRANCH  30  31
ENDBRANCH  28  30
ENDBRANCH  23  28
ENDBRANCH  20  24
ENDBRANCH  19  20
ENDBRANCH   1  19
TORSDOF 8
ENDMDL
MODEL 2
REMARK VINA RESULT:     -12.2      1.554      2.385
REMARK  Name = 66000
REMARK  8 active torsions:
REMARK  status: ('A' for Active; 'I' for Inactive)
REMARK    1  A    between atoms: C_1  and  O_19
REMARK    2  A    between atoms: C_4  and  C_7
REMARK    3  A    between atoms: C_10  and  C_15
REMARK    4  A    between atoms: O_19  and  C_20
REMARK    5  A    between atoms: C_20  and  C_24
REMARK    6  A    between atoms: C_23  and  C_28
REMARK    7  A    between atoms: C_28  and  C_30
REMARK    8  A    between atoms: C_30  and  O_31
REMARK                            x       y       z     vdW  Elec       q    Type
REMARK                         _______ _______ _______ _____ _____    ______ ____
ROOT
ATOM      1  C   UNL     1      34.964 -22.686 -17.154  0.00  0.00    +0.139 C 
ATOM      2  C   UNL     1      33.795 -22.458 -17.870  0.00  0.00    +0.037 C 
ATOM      3  C   UNL     1      36.143 -22.032 -17.490  0.00  0.00    +0.037 C 
ATOM      4  C   UNL     1      34.985 -20.902 -19.284  0.00  0.00    +0.000 C 
ATOM      5  C   UNL     1      33.806 -21.563 -18.939  0.00  0.00    +0.003 C 
ATOM      6  C   UNL     1      36.154 -21.137 -18.560  0.00  0.00    +0.003 C 
ENDROOT
BRANCH   4   7
ATOM      7  C   UNL     1      34.996 -19.973 -20.393  0.00  0.00    +0.000 C 
ATOM      8  C   UNL     1      33.886 -19.876 -21.232  0.00  0.00    +0.000 C 
ATOM      9  C   UNL     1      36.116 -19.174 -20.623  0.00  0.00    +0.000 C 
ATOM     10  C   UNL     1      35.017 -18.181 -22.531  0.00  0.00    +0.031 C 
ATOM     11  C   UNL     1      33.896 -18.979 -22.302  0.00  0.00    +0.003 C 
ATOM     12  C   UNL     1      36.127 -18.278 -21.692  0.00  0.00    +0.003 C 
BRANCH  10  15
ATOM     13  N   UNL     1      35.702 -16.030 -23.568  0.00  0.00    -0.343 N 
ATOM     14  N   UNL     1      34.384 -17.546 -24.761  0.00  0.00    -0.285 NA
ATOM     15  C   UNL     1      35.027 -17.247 -23.646  0.00  0.00    +0.117 C 
ATOM     16  H   UNL     1      35.695 -15.413 -24.334  0.00  0.00    +0.144 HD
ATOM     17  H   UNL     1      36.184 -15.788 -22.745  0.00  0.00    +0.144 HD
ATOM     18  H   UNL     1      34.389 -16.916 -25.517  0.00  0.00    +0.188 HD
ENDBRANCH  10  15
ENDBRANCH   4   7
BRANCH   1  19
ATOM     19  O   UNL     1      34.954 -23.568 -16.102  0.00  0.00    -0.474 OA
BRANCH  19  20
ATOM     20  C   UNL     1      35.297 -23.053 -14.828  0.00  0.00    +0.225 C 
BRANCH  20  24
ATOM     21  O   UNL     1      36.765 -27.144 -15.445  0.00  0.00    -0.275 OA
ATOM     22  N   UNL     1      35.376 -25.485 -14.554  0.00  0.00    -0.302 N 
ATOM     23  C   UNL     1      37.685 -25.142 -14.387  0.00  0.00    +0.089 C 
ATOM     24  C   UNL     1      35.523 -24.219 -13.875  0.00  0.00    +0.116 C 
ATOM     25  C   UNL     1      36.951 -24.288 -13.347  0.00  0.00    +0.033 C 
ATOM     26  C   UNL     1      36.595 -26.082 -14.865  0.00  0.00    +0.223 C 
ATOM     27  H   UNL     1      34.504 -25.884 -14.774  0.00  0.00    +0.149 HD
BRANCH  23  28
ATOM     28  C   UNL     1      38.887 -25.873 -13.820  0.00  0.00    +0.118 C 
BRANCH  28  30
ATOM     29  O   UNL     1      41.020 -24.695 -13.876  0.00  0.00    -0.250 OA
ATOM     30  C   UNL     1      40.181 -25.390 -14.426  0.00  0.00    +0.314 C 
BRANCH  30  31
ATOM     31  O   UNL     1      40.296 -25.845 -15.701  0.00  0.00    -0.480 OA
ATOM     32  H   UNL     1      40.447 -25.242 -16.402  0.00  0.00    +0.295 HD
ENDBRANCH  30  31
ENDBRANCH  28  30
ENDBRANCH  23  28
ENDBRANCH  20  24
ENDBRANCH  19  20
ENDBRANCH   1  19
TORSDOF 8
ENDMDL
MODEL 3
REMARK VINA RESULT:     -11.8      2.372      4.077
REMARK  Name = 66000
REMARK  8 active torsions:
REMARK  status: ('A' for Active; 'I' for Inactive)
REMARK    1  A    between atoms: C_1  and  O_19
REMARK    2  A    between atoms: C_4  and  C_7
REMARK    3  A    between atoms: C_10  and  C_15
REMARK    4  A    between atoms: O_19  and  C_20
REMARK    5  A    between atoms: C_20  and  C_24
REMARK    6  A    between atoms: C_23  and  C_28
REMARK    7  A    between atoms: C_28  and  C_30
REMARK    8  A    between atoms: C_30  and  O_31
REMARK                            x       y       z     vdW  Elec       q    Type
REMARK                         _______ _______ _______ _____ _____    ______ ____
ROOT
ATOM      1  C   UNL     1      34.615 -22.180 -18.316  0.00  0.00    +0.139 C 
ATOM      2  C   UNL     1      35.846 -21.689 -18.737  0.00  0.00    +0.037 C 
ATOM      3  C   UNL     1      33.431 -21.654 -18.815  0.00  0.00    +0.037 C 
ATOM      4  C   UNL     1      34.706 -20.121 -20.178  0.00  0.00    +0.000 C 
ATOM      5  C   UNL     1      35.891 -20.655 -19.672  0.00  0.00    +0.003 C 
ATOM      6  C   UNL     1      33.476 -20.619 -19.750  0.00  0.00    +0.003 C 
ENDROOT
BRANCH   4   7
ATOM      7  C   UNL     1      34.753 -19.047 -21.147  0.00  0.00    +0.000 C 
ATOM      8  C   UNL     1      34.308 -19.266 -22.452  0.00  0.00    +0.000 C 
ATOM      9  C   UNL     1      35.241 -17.794 -20.778  0.00  0.00    +0.000 C 
ATOM     10  C   UNL     1      34.840 -16.978 -23.016  0.00  0.00    +0.031 C 
ATOM     11  C   UNL     1      34.352 -18.230 -23.386  0.00  0.00    +0.003 C 
ATOM     12  C   UNL     1      35.285 -16.759 -21.712  0.00  0.00    +0.003 C 
BRANCH  10  15
ATOM     13  N   UNL     1      34.845 -14.563 -23.597  0.00  0.00    -0.343 N 
ATOM     14  N   UNL     1      34.963 -16.180 -25.280  0.00  0.00    -0.285 NA
ATOM     15  C   UNL     1      34.886 -15.899 -23.991  0.00  0.00    +0.117 C 
ATOM     16  H   UNL     1      34.877 -13.849 -24.274  0.00  0.00    +0.144 HD
ATOM     17  H   UNL     1      34.785 -14.333 -22.642  0.00  0.00    +0.144 HD
ATOM     18  H   UNL     1      34.994 -15.452 -25.941  0.00  0.00    +0.188 HD
ENDBRANCH  10  15
ENDBRANCH   4   7
BRANCH   1  19
ATOM     19  O   UNL     1      34.571 -23.198 -17.395  0.00  0.00    -0.474 OA
BRANCH  19  20
ATOM     20  C   UNL     1      34.222 -22.848 -16.067  0.00  0.00    +0.225 C 
BRANCH  20  24
ATOM     21  O   UNL     1      31.901 -23.101 -12.349  0.00  0.00    -0.275 OA
ATOM     22  N   UNL     1      33.254 -23.905 -14.082  0.00  0.00    -0.302 N 
ATOM     23  C   UNL     1      31.330 -22.722 -14.696  0.00  0.00    +0.089 C 
ATOM     24  C   UNL     1      33.259 -23.896 -15.525  0.00  0.00    +0.116 C 
ATOM     25  C   UNL     1      31.802 -23.597 -15.862  0.00  0.00    +0.033 C 
ATOM     26  C   UNL     1      32.151 -23.253 -13.536  0.00  0.00    +0.223 C 
ATOM     27  H   UNL     1      33.957 -24.328 -13.540  0.00  0.00    +0.149 HD
BRANCH  23  28
ATOM     28  C   UNL     1      29.836 -22.809 -14.450  0.00  0.00    +0.118 C 
BRANCH  28  30
ATOM     29  O   UNL     1      28.851 -22.091 -16.560  0.00  0.00    -0.250 OA
ATOM     30  C   UNL     1      29.059 -22.965 -15.733  0.00  0.00    +0.314 C 
BRANCH  30  31
ATOM     31  O   UNL     1      28.608 -24.240 -15.853  0.00  0.00    -0.480 OA
ATOM     32  H   UNL     1      28.713 -24.843 -15.144  0.00  0.00    +0.295 HD
ENDBRANCH  30  31
ENDBRANCH  28  30
ENDBRANCH  23  28
ENDBRANCH  20  24
ENDBRANCH  19  20
ENDBRANCH   1  19
TORSDOF 8
ENDMDL
MODEL 4
REMARK VINA RESULT:     -11.7      1.448      2.313
REMARK  Name = 66000
REMARK  8 active torsions:
REMARK  status: ('A' for Active; 'I' for Inactive)
REMARK    1  A    between atoms: C_1  and  O_19
REMARK    2  A    between atoms: C_4  and  C_7
REMARK    3  A    between atoms: C_10  and  C_15
REMARK    4  A    between atoms: O_19  and  C_20
REMARK    5  A    between atoms: C_20  and  C_24
REMARK    6  A    between atoms: C_23  and  C_28
REMARK    7  A    between atoms: C_28  and  C_30
REMARK    8  A    between atoms: C_30  and  O_31
REMARK                            x       y       z     vdW  Elec       q    Type
REMARK                         _______ _______ _______ _____ _____    ______ ____
ROOT
ATOM      1  C   UNL     1      34.787 -22.245 -18.001  0.00  0.00    +0.139 C 
ATOM      2  C   UNL     1      36.004 -21.725 -18.426  0.00  0.00    +0.037 C 
ATOM      3  C   UNL     1      33.592 -21.809 -18.560  0.00  0.00    +0.037 C 
ATOM      4  C   UNL     1      34.831 -20.309 -19.993  0.00  0.00    +0.000 C 
ATOM      5  C   UNL     1      36.025 -20.753 -19.426  0.00  0.00    +0.003 C 
ATOM      6  C   UNL     1      33.614 -20.836 -19.560  0.00  0.00    +0.003 C 
ENDROOT
BRANCH   4   7
ATOM      7  C   UNL     1      34.853 -19.301 -21.030  0.00  0.00    +0.000 C 
ATOM      8  C   UNL     1      35.386 -18.039 -20.765  0.00  0.00    +0.000 C 
ATOM      9  C   UNL     1      34.342 -19.590 -22.296  0.00  0.00    +0.000 C 
ATOM     10  C   UNL     1      34.898 -17.356 -23.030  0.00  0.00    +0.031 C 
ATOM     11  C   UNL     1      35.408 -17.067 -21.765  0.00  0.00    +0.003 C 
ATOM     12  C   UNL     1      34.364 -18.617 -23.296  0.00  0.00    +0.003 C 
BRANCH  10  15
ATOM     13  N   UNL     1      35.402 -15.058 -23.826  0.00  0.00    -0.343 N 
ATOM     14  N   UNL     1      34.474 -16.632 -25.283  0.00  0.00    -0.285 NA
ATOM     15  C   UNL     1      34.921 -16.342 -24.073  0.00  0.00    +0.117 C 
ATOM     16  H   UNL     1      35.407 -14.387 -24.546  0.00  0.00    +0.144 HD
ATOM     17  H   UNL     1      35.735 -14.822 -22.930  0.00  0.00    +0.144 HD
ATOM     18  H   UNL     1      34.488 -15.947 -25.990  0.00  0.00    +0.188 HD
ENDBRANCH  10  15
ENDBRANCH   4   7
BRANCH   1  19
ATOM     19  O   UNL     1      34.766 -23.201 -17.015  0.00  0.00    -0.474 OA
BRANCH  19  20
ATOM     20  C   UNL     1      35.008 -22.764 -15.690  0.00  0.00    +0.225 C 
BRANCH  20  24
ATOM     21  O   UNL     1      38.645 -24.118 -13.637  0.00  0.00    -0.275 OA
ATOM     22  N   UNL     1      36.698 -24.357 -14.914  0.00  0.00    -0.302 N 
ATOM     23  C   UNL     1      36.509 -23.192 -12.893  0.00  0.00    +0.089 C 
ATOM     24  C   UNL     1      35.308 -23.979 -14.823  0.00  0.00    +0.116 C 
ATOM     25  C   UNL     1      35.133 -23.705 -13.333  0.00  0.00    +0.033 C 
ATOM     26  C   UNL     1      37.449 -23.945 -13.816  0.00  0.00    +0.223 C 
ATOM     27  H   UNL     1      37.076 -24.855 -15.674  0.00  0.00    +0.149 HD
BRANCH  23  28
ATOM     28  C   UNL     1      36.798 -23.443 -11.425  0.00  0.00    +0.118 C 
BRANCH  28  30
ATOM     29  O   UNL     1      35.333 -25.070 -10.356  0.00  0.00    -0.250 OA
ATOM     30  C   UNL     1      36.348 -24.813 -10.985  0.00  0.00    +0.314 C 
BRANCH  30  31
ATOM     31  O   UNL     1      37.242 -25.751 -11.391  0.00  0.00    -0.480 OA
ATOM     32  H   UNL     1      37.391 -26.513 -10.869  0.00  0.00    +0.295 HD
ENDBRANCH  30  31
ENDBRANCH  28  30
ENDBRANCH  23  28
ENDBRANCH  20  24
ENDBRANCH  19  20
ENDBRANCH   1  19
TORSDOF 8
ENDMDL
MODEL 5
REMARK VINA RESULT:     -11.5      2.147      3.340
REMARK  Name = 66000
REMARK  8 active torsions:
REMARK  status: ('A' for Active; 'I' for Inactive)
REMARK    1  A    between atoms: C_1  and  O_19
REMARK    2  A    between atoms: C_4  and  C_7
REMARK    3  A    between atoms: C_10  and  C_15
REMARK    4  A    between atoms: O_19  and  C_20
REMARK    5  A    between atoms: C_20  and  C_24
REMARK    6  A    between atoms: C_23  and  C_28
REMARK    7  A    between atoms: C_28  and  C_30
REMARK    8  A    between atoms: C_30  and  O_31
REMARK                            x       y       z     vdW  Elec       q    Type
REMARK                         _______ _______ _______ _____ _____    ______ ____
ROOT
ATOM      1  C   UNL     1      35.088 -21.906 -18.459  0.00  0.00    +0.139 C 
ATOM      2  C   UNL     1      36.259 -21.302 -18.901  0.00  0.00    +0.037 C 
ATOM      3  C   UNL     1      33.852 -21.508 -18.951  0.00  0.00    +0.037 C 
ATOM      4  C   UNL     1      34.955 -19.875 -20.349  0.00  0.00    +0.000 C 
ATOM      5  C   UNL     1      36.191 -20.282 -19.850  0.00  0.00    +0.003 C 
ATOM      6  C   UNL     1      33.785 -20.487 -19.899  0.00  0.00    +0.003 C 
ENDROOT
BRANCH   4   7
ATOM      7  C   UNL     1      34.884 -18.816 -21.332  0.00  0.00    +0.000 C 
ATOM      8  C   UNL     1      34.410 -19.087 -22.616  0.00  0.00    +0.000 C 
ATOM      9  C   UNL     1      35.289 -17.524 -20.997  0.00  0.00    +0.000 C 
ATOM     10  C   UNL     1      34.745 -16.774 -23.228  0.00  0.00    +0.031 C 
ATOM     11  C   UNL     1      34.340 -18.066 -23.564  0.00  0.00    +0.003 C 
ATOM     12  C   UNL     1      35.220 -16.503 -21.945  0.00  0.00    +0.003 C 
BRANCH  10  15
ATOM     13  N   UNL     1      34.412 -14.392 -23.848  0.00  0.00    -0.343 N 
ATOM     14  N   UNL     1      34.855 -15.987 -25.497  0.00  0.00    -0.285 NA
ATOM     15  C   UNL     1      34.674 -15.710 -24.217  0.00  0.00    +0.117 C 
ATOM     16  H   UNL     1      34.367 -13.688 -24.534  0.00  0.00    +0.144 HD
ATOM     17  H   UNL     1      34.271 -14.166 -22.901  0.00  0.00    +0.144 HD
ATOM     18  H   UNL     1      34.806 -15.269 -26.168  0.00  0.00    +0.188 HD
ENDBRANCH  10  15
ENDBRANCH   4   7
BRANCH   1  19
ATOM     19  O   UNL     1      35.155 -22.910 -17.525  0.00  0.00    -0.474 OA
BRANCH  19  20
ATOM     20  C   UNL     1      34.652 -22.621 -16.233  0.00  0.00    +0.225 C 
BRANCH  20  24
ATOM     21  O   UNL     1      33.285 -23.852 -12.247  0.00  0.00    -0.275 OA
ATOM     22  N   UNL     1      34.179 -24.159 -14.387  0.00  0.00    -0.302 N 
ATOM     23  C   UNL     1      32.172 -22.966 -14.234  0.00  0.00    +0.089 C 
ATOM     24  C   UNL     1      33.840 -23.814 -15.747  0.00  0.00    +0.116 C 
ATOM     25  C   UNL     1      32.347 -23.519 -15.653  0.00  0.00    +0.033 C 
ATOM     26  C   UNL     1      33.243 -23.711 -13.459  0.00  0.00    +0.223 C 
ATOM     27  H   UNL     1      34.990 -24.661 -14.141  0.00  0.00    +0.149 HD
BRANCH  23  28
ATOM     28  C   UNL     1      30.779 -23.184 -13.674  0.00  0.00    +0.118 C 
BRANCH  28  30
ATOM     29  O   UNL     1      30.261 -25.475 -14.323  0.00  0.00    -0.250 OA
ATOM     30  C   UNL     1      30.480 -24.646 -13.455  0.00  0.00    +0.314 C 
BRANCH  30  31
ATOM     31  O   UNL     1      30.488 -24.928 -12.126  0.00  0.00    -0.480 OA
ATOM     32  H   UNL     1      29.704 -25.221 -11.705  0.00  0.00    +0.295 HD
ENDBRANCH  30  31
ENDBRANCH  28  30
ENDBRANCH  23  28
ENDBRANCH  20  24
ENDBRANCH  19  20
ENDBRANCH   1  19
TORSDOF 8
ENDMDL
MODEL 6
REMARK VINA RESULT:     -10.9      6.075     11.738
REMARK  Name = 66000
REMARK  8 active torsions:
REMARK  status: ('A' for Active; 'I' for Inactive)
REMARK    1  A    between atoms: C_1  and  O_19
REMARK    2  A    between atoms: C_4  and  C_7
REMARK    3  A    between atoms: C_10  and  C_15
REMARK    4  A    between atoms: O_19  and  C_20
REMARK    5  A    between atoms: C_20  and  C_24
REMARK    6  A    between atoms: C_23  and  C_28
REMARK    7  A    between atoms: C_28  and  C_30
REMARK    8  A    between atoms: C_30  and  O_31
REMARK                            x       y       z     vdW  Elec       q    Type
REMARK                         _______ _______ _______ _____ _____    ______ ____
ROOT
ATOM      1  C   UNL     1      34.544 -17.184 -24.268  0.00  0.00    +0.139 C 
ATOM      2  C   UNL     1      33.884 -18.403 -24.359  0.00  0.00    +0.037 C 
ATOM      3  C   UNL     1      35.198 -16.814 -23.100  0.00  0.00    +0.037 C 
ATOM      4  C   UNL     1      34.529 -18.902 -22.085  0.00  0.00    +0.000 C 
ATOM      5  C   UNL     1      33.876 -19.265 -23.263  0.00  0.00    +0.003 C 
ATOM      6  C   UNL     1      35.190 -17.676 -22.003  0.00  0.00    +0.003 C 
ENDROOT
BRANCH   4   7
ATOM      7  C   UNL     1      34.521 -19.795 -20.948  0.00  0.00    +0.000 C 
ATOM      8  C   UNL     1      33.309 -20.198 -20.386  0.00  0.00    +0.000 C 
ATOM      9  C   UNL     1      35.724 -20.256 -20.413  0.00  0.00    +0.000 C 
ATOM     10  C   UNL     1      34.504 -21.521 -18.756  0.00  0.00    +0.031 C 
ATOM     11  C   UNL     1      33.301 -21.061 -19.289  0.00  0.00    +0.003 C 
ATOM     12  C   UNL     1      35.716 -21.119 -19.317  0.00  0.00    +0.003 C 
BRANCH  10  15
ATOM     13  N   UNL     1      33.370 -23.179 -17.294  0.00  0.00    -0.343 N 
ATOM     14  N   UNL     1      35.569 -22.525 -16.849  0.00  0.00    -0.285 NA
ATOM     15  C   UNL     1      34.495 -22.420 -17.612  0.00  0.00    +0.117 C 
ATOM     16  H   UNL     1      33.387 -23.780 -16.515  0.00  0.00    +0.144 HD
ATOM     17  H   UNL     1      32.560 -23.112 -17.848  0.00  0.00    +0.144 HD
ATOM     18  H   UNL     1      35.566 -23.133 -16.075  0.00  0.00    +0.188 HD
ENDBRANCH  10  15
ENDBRANCH   4   7
BRANCH   1  19
ATOM     19  O   UNL     1      34.551 -16.335 -25.348  0.00  0.00    -0.474 OA
BRANCH  19  20
ATOM     20  C   UNL     1      34.736 -14.956 -25.080  0.00  0.00    +0.225 C 
BRANCH  20  24
ATOM     21  O   UNL     1      32.741 -12.509 -22.029  0.00  0.00    -0.275 OA
ATOM     22  N   UNL     1      32.892 -14.165 -23.677  0.00  0.00    -0.302 N 
ATOM     23  C   UNL     1      33.717 -12.044 -24.221  0.00  0.00    +0.089 C 
ATOM     24  C   UNL     1      33.371 -14.281 -25.033  0.00  0.00    +0.116 C 
ATOM     25  C   UNL     1      33.409 -12.830 -25.500  0.00  0.00    +0.033 C 
ATOM     26  C   UNL     1      33.047 -12.885 -23.151  0.00  0.00    +0.223 C 
ATOM     27  H   UNL     1      32.495 -14.913 -23.176  0.00  0.00    +0.149 HD
BRANCH  23  28
ATOM     28  C   UNL     1      33.201 -10.617 -24.258  0.00  0.00    +0.118 C 
BRANCH  28  30
ATOM     29  O   UNL     1      33.844  -8.585 -23.076  0.00  0.00    -0.250 OA
ATOM     30  C   UNL     1      34.145  -9.656 -23.582  0.00  0.00    +0.314 C 
BRANCH  30  31
ATOM     31  O   UNL     1      35.410 -10.150 -23.606  0.00  0.00    -0.480 OA
ATOM     32  H   UNL     1      35.813 -10.366 -24.423  0.00  0.00    +0.295 HD
ENDBRANCH  30  31
ENDBRANCH  28  30
ENDBRANCH  23  28
ENDBRANCH  20  24
ENDBRANCH  19  20
ENDBRANCH   1  19
TORSDOF 8
ENDMDL
MODEL 7
REMARK VINA RESULT:     -10.8      3.941     10.837
REMARK  Name = 66000
REMARK  8 active torsions:
REMARK  status: ('A' for Active; 'I' for Inactive)
REMARK    1  A    between atoms: C_1  and  O_19
REMARK    2  A    between atoms: C_4  and  C_7
REMARK    3  A    between atoms: C_10  and  C_15
REMARK    4  A    between atoms: O_19  and  C_20
REMARK    5  A    between atoms: C_20  and  C_24
REMARK    6  A    between atoms: C_23  and  C_28
REMARK    7  A    between atoms: C_28  and  C_30
REMARK    8  A    between atoms: C_30  and  O_31
REMARK                            x       y       z     vdW  Elec       q    Type
REMARK                         _______ _______ _______ _____ _____    ______ ____
ROOT
ATOM      1  C   UNL     1      34.750 -21.077 -19.513  0.00  0.00    +0.139 C 
ATOM      2  C   UNL     1      33.698 -21.723 -18.875  0.00  0.00    +0.037 C 
ATOM      3  C   UNL     1      36.020 -21.061 -18.951  0.00  0.00    +0.037 C 
ATOM      4  C   UNL     1      35.191 -22.348 -17.083  0.00  0.00    +0.000 C 
ATOM      5  C   UNL     1      33.919 -22.360 -17.655  0.00  0.00    +0.003 C 
ATOM      6  C   UNL     1      36.242 -21.698 -17.730  0.00  0.00    +0.003 C 
ENDROOT
BRANCH   4   7
ATOM      7  C   UNL     1      35.421 -23.009 -15.816  0.00  0.00    +0.000 C 
ATOM      8  C   UNL     1      36.704 -23.040 -15.269  0.00  0.00    +0.000 C 
ATOM      9  C   UNL     1      34.360 -23.614 -15.142  0.00  0.00    +0.000 C 
ATOM     10  C   UNL     1      35.865 -24.280 -13.373  0.00  0.00    +0.031 C 
ATOM     11  C   UNL     1      36.926 -23.676 -14.047  0.00  0.00    +0.003 C 
ATOM     12  C   UNL     1      34.582 -24.250 -13.920  0.00  0.00    +0.003 C 
BRANCH  10  15
ATOM     13  N   UNL     1      37.296 -25.600 -11.831  0.00  0.00    -0.343 N 
ATOM     14  N   UNL     1      35.155 -24.935 -11.172  0.00  0.00    -0.285 NA
ATOM     15  C   UNL     1      36.097 -24.944 -12.100  0.00  0.00    +0.117 C 
ATOM     16  H   UNL     1      37.431 -26.043 -10.962  0.00  0.00    +0.144 HD
ATOM     17  H   UNL     1      38.008 -25.621 -12.510  0.00  0.00    +0.144 HD
ATOM     18  H   UNL     1      35.310 -25.384 -10.309  0.00  0.00    +0.188 HD
ENDBRANCH  10  15
ENDBRANCH   4   7
BRANCH   1  19
ATOM     19  O   UNL     1      34.532 -20.449 -20.714  0.00  0.00    -0.474 OA
BRANCH  19  20
ATOM     20  C   UNL     1      34.930 -19.093 -20.812  0.00  0.00    +0.225 C 
BRANCH  20  24
ATOM     21  O   UNL     1      33.465 -18.337 -24.881  0.00  0.00    -0.275 OA
ATOM     22  N   UNL     1      34.824 -19.320 -23.248  0.00  0.00    -0.302 N 
ATOM     23  C   UNL     1      34.627 -16.988 -23.208  0.00  0.00    +0.089 C 
ATOM     24  C   UNL     1      35.645 -18.890 -22.142  0.00  0.00    +0.116 C 
ATOM     25  C   UNL     1      35.896 -17.421 -22.464  0.00  0.00    +0.033 C 
ATOM     26  C   UNL     1      34.217 -18.262 -23.921  0.00  0.00    +0.223 C 
ATOM     27  H   UNL     1      34.705 -20.263 -23.501  0.00  0.00    +0.149 HD
BRANCH  23  28
ATOM     28  C   UNL     1      34.858 -15.828 -24.158  0.00  0.00    +0.118 C 
BRANCH  28  30
ATOM     29  O   UNL     1      33.449 -13.931 -23.563  0.00  0.00    -0.250 OA
ATOM     30  C   UNL     1      33.657 -14.921 -24.247  0.00  0.00    +0.314 C 
BRANCH  30  31
ATOM     31  O   UNL     1      32.813 -15.360 -25.216  0.00  0.00    -0.480 OA
ATOM     32  H   UNL     1      31.901 -15.148 -25.174  0.00  0.00    +0.295 HD
ENDBRANCH  30  31
ENDBRANCH  28  30
ENDBRANCH  23  28
ENDBRANCH  20  24
ENDBRANCH  19  20
ENDBRANCH   1  19
TORSDOF 8
ENDMDL
MODEL 8
REMARK VINA RESULT:     -10.8      1.929      3.084
REMARK  Name = 66000
REMARK  8 active torsions:
REMARK  status: ('A' for Active; 'I' for Inactive)
REMARK    1  A    between atoms: C_1  and  O_19
REMARK    2  A    between atoms: C_4  and  C_7
REMARK    3  A    between atoms: C_10  and  C_15
REMARK    4  A    between atoms: O_19  and  C_20
REMARK    5  A    between atoms: C_20  and  C_24
REMARK    6  A    between atoms: C_23  and  C_28
REMARK    7  A    between atoms: C_28  and  C_30
REMARK    8  A    between atoms: C_30  and  O_31
REMARK                            x       y       z     vdW  Elec       q    Type
REMARK                         _______ _______ _______ _____ _____    ______ ____
ROOT
ATOM      1  C   UNL     1      35.690 -22.617 -16.648  0.00  0.00    +0.139 C 
ATOM      2  C   UNL     1      36.782 -21.881 -17.091  0.00  0.00    +0.037 C 
ATOM      3  C   UNL     1      34.470 -22.549 -17.309  0.00  0.00    +0.037 C 
ATOM      4  C   UNL     1      35.430 -20.986 -18.881  0.00  0.00    +0.000 C 
ATOM      5  C   UNL     1      36.651 -21.062 -18.212  0.00  0.00    +0.003 C 
ATOM      6  C   UNL     1      34.339 -21.729 -18.430  0.00  0.00    +0.003 C 
ENDROOT
BRANCH   4   7
ATOM      7  C   UNL     1      35.294 -20.136 -20.044  0.00  0.00    +0.000 C 
ATOM      8  C   UNL     1      34.073 -20.062 -20.715  0.00  0.00    +0.000 C 
ATOM      9  C   UNL     1      36.383 -19.390 -20.495  0.00  0.00    +0.000 C 
ATOM     10  C   UNL     1      35.030 -18.495 -22.285  0.00  0.00    +0.031 C 
ATOM     11  C   UNL     1      33.941 -19.242 -21.835  0.00  0.00    +0.003 C 
ATOM     12  C   UNL     1      36.251 -18.569 -21.615  0.00  0.00    +0.003 C 
BRANCH  10  15
ATOM     13  N   UNL     1      34.094 -18.011 -24.534  0.00  0.00    -0.343 N 
ATOM     14  N   UNL     1      35.537 -16.488 -23.506  0.00  0.00    -0.285 NA
ATOM     15  C   UNL     1      34.893 -17.641 -23.454  0.00  0.00    +0.117 C 
ATOM     16  H   UNL     1      34.016 -17.417 -25.315  0.00  0.00    +0.144 HD
ATOM     17  H   UNL     1      33.609 -18.867 -24.516  0.00  0.00    +0.144 HD
ATOM     18  H   UNL     1      35.446 -15.908 -24.295  0.00  0.00    +0.188 HD
ENDBRANCH  10  15
ENDBRANCH   4   7
BRANCH   1  19
ATOM     19  O   UNL     1      35.819 -23.423 -15.543  0.00  0.00    -0.474 OA
BRANCH  19  20
ATOM     20  C   UNL     1      34.779 -24.354 -15.302  0.00  0.00    +0.225 C 
BRANCH  20  24
ATOM     21  O   UNL     1      38.113 -27.044 -14.343  0.00  0.00    -0.275 OA
ATOM     22  N   UNL     1      35.881 -26.342 -14.392  0.00  0.00    -0.302 N 
ATOM     23  C   UNL     1      37.462 -24.804 -13.612  0.00  0.00    +0.089 C 
ATOM     24  C   UNL     1      35.125 -25.160 -14.057  0.00  0.00    +0.116 C 
ATOM     25  C   UNL     1      36.065 -24.420 -13.112  0.00  0.00    +0.033 C 
ATOM     26  C   UNL     1      37.244 -26.209 -14.142  0.00  0.00    +0.223 C 
ATOM     27  H   UNL     1      35.474 -27.160 -14.760  0.00  0.00    +0.149 HD
BRANCH  23  28
ATOM     28  C   UNL     1      38.523 -24.740 -12.530  0.00  0.00    +0.118 C 
BRANCH  28  30
ATOM     29  O   UNL     1      38.332 -22.532 -11.516  0.00  0.00    -0.250 OA
ATOM     30  C   UNL     1      38.176 -23.742 -11.454  0.00  0.00    +0.314 C 
BRANCH  30  31
ATOM     31  O   UNL     1      37.649 -24.381 -10.378  0.00  0.00    -0.480 OA
ATOM     32  H   UNL     1      38.022 -24.252  -9.528  0.00  0.00    +0.295 HD
ENDBRANCH  30  31
ENDBRANCH  28  30
ENDBRANCH  23  28
ENDBRANCH  20  24
ENDBRANCH  19  20
ENDBRANCH   1  19
TORSDOF 8
ENDMDL
MODEL 9
REMARK VINA RESULT:     -10.5      4.491     11.151
REMARK  Name = 66000
REMARK  8 active torsions:
REMARK  status: ('A' for Active; 'I' for Inactive)
REMARK    1  A    between atoms: C_1  and  O_19
REMARK    2  A    between atoms: C_4  and  C_7
REMARK    3  A    between atoms: C_10  and  C_15
REMARK    4  A    between atoms: O_19  and  C_20
REMARK    5  A    between atoms: C_20  and  C_24
REMARK    6  A    between atoms: C_23  and  C_28
REMARK    7  A    between atoms: C_28  and  C_30
REMARK    8  A    between atoms: C_30  and  O_31
REMARK                            x       y       z     vdW  Elec       q    Type
REMARK                         _______ _______ _______ _____ _____    ______ ____
ROOT
ATOM      1  C   UNL     1      35.350 -19.470 -20.999  0.00  0.00    +0.139 C 
ATOM      2  C   UNL     1      36.485 -19.840 -20.287  0.00  0.00    +0.037 C 
ATOM      3  C   UNL     1      34.094 -19.929 -20.622  0.00  0.00    +0.037 C 
ATOM      4  C   UNL     1      35.105 -21.149 -18.799  0.00  0.00    +0.000 C 
ATOM      5  C   UNL     1      36.362 -20.683 -19.184  0.00  0.00    +0.003 C 
ATOM      6  C   UNL     1      33.970 -20.772 -19.519  0.00  0.00    +0.003 C 
ENDROOT
BRANCH   4   7
ATOM      7  C   UNL     1      34.976 -22.024 -17.654  0.00  0.00    +0.000 C 
ATOM      8  C   UNL     1      33.790 -22.727 -17.443  0.00  0.00    +0.000 C 
ATOM      9  C   UNL     1      36.039 -22.166 -16.761  0.00  0.00    +0.000 C 
ATOM     10  C   UNL     1      34.729 -23.714 -15.448  0.00  0.00    +0.031 C 
ATOM     11  C   UNL     1      33.666 -23.572 -16.339  0.00  0.00    +0.003 C 
ATOM     12  C   UNL     1      35.915 -23.011 -15.658  0.00  0.00    +0.003 C 
BRANCH  10  15
ATOM     13  N   UNL     1      35.640 -25.434 -13.905  0.00  0.00    -0.343 N 
ATOM     14  N   UNL     1      33.475 -24.610 -13.604  0.00  0.00    -0.285 NA
ATOM     15  C   UNL     1      34.600 -24.594 -14.297  0.00  0.00    +0.117 C 
ATOM     16  H   UNL     1      35.530 -26.022 -13.123  0.00  0.00    +0.144 HD
ATOM     17  H   UNL     1      36.485 -25.439 -14.410  0.00  0.00    +0.144 HD
ATOM     18  H   UNL     1      33.385 -25.205 -12.825  0.00  0.00    +0.188 HD
ENDBRANCH  10  15
ENDBRANCH   4   7
BRANCH   1  19
ATOM     19  O   UNL     1      35.472 -18.641 -22.086  0.00  0.00    -0.474 OA
BRANCH  19  20
ATOM     20  C   UNL     1      34.796 -17.397 -22.025  0.00  0.00    +0.225 C 
BRANCH  20  24
ATOM     21  O   UNL     1      33.480 -15.875 -25.927  0.00  0.00    -0.275 OA
ATOM     22  N   UNL     1      35.005 -16.735 -24.373  0.00  0.00    -0.302 N 
ATOM     23  C   UNL     1      33.735 -14.886 -23.706  0.00  0.00    +0.089 C 
ATOM     24  C   UNL     1      35.436 -16.445 -23.026  0.00  0.00    +0.116 C 
ATOM     25  C   UNL     1      34.993 -14.998 -22.838  0.00  0.00    +0.033 C 
ATOM     26  C   UNL     1      34.029 -15.856 -24.835  0.00  0.00    +0.223 C 
ATOM     27  H   UNL     1      35.364 -17.478 -24.909  0.00  0.00    +0.149 HD
BRANCH  23  28
ATOM     28  C   UNL     1      33.470 -13.475 -24.195  0.00  0.00    +0.118 C 
BRANCH  28  30
ATOM     29  O   UNL     1      32.920 -12.415 -22.071  0.00  0.00    -0.250 OA
ATOM     30  C   UNL     1      33.594 -12.459 -23.088  0.00  0.00    +0.314 C 
BRANCH  30  31
ATOM     31  O   UNL     1      34.584 -11.575 -23.376  0.00  0.00    -0.480 OA
ATOM     32  H   UNL     1      34.950 -11.043 -22.697  0.00  0.00    +0.295 HD
ENDBRANCH  30  31
ENDBRANCH  28  30
ENDBRANCH  23  28
ENDBRANCH  20  24
ENDBRANCH  19  20
ENDBRANCH   1  19
TORSDOF 8
ENDMDL
