MODEL 1
REMARK VINA RESULT:     -11.8      0.000      0.000
REMARK  Name = 213049
REMARK  9 active torsions:
REMARK  status: ('A' for Active; 'I' for Inactive)
REMARK    1  A    between atoms: C_3  and  C_13
REMARK    2  A    between atoms: C_4  and  N_25
REMARK    3  A    between atoms: C_16  and  C_17
REMARK    4  A    between atoms: C_17  and  O_18
REMARK    5  A    between atoms: C_17  and  C_20
REMARK    6  A    between atoms: C_20  and  O_21
REMARK    7  A    between atoms: C_26  and  C_29
REMARK    8  A    between atoms: C_29  and  O_30
REMARK    9  A    between atoms: O_30  and  C_33
REMARK                            x       y       z     vdW  Elec       q    Type
REMARK                         _______ _______ _______ _____ _____    ______ ____
ROOT
ATOM      1  F   UNL     1      32.319 -19.742 -20.813  0.00  0.00    -0.204 F 
ATOM      2  F   UNL     1      37.062 -19.517 -20.545  0.00  0.00    -0.204 F 
ATOM      3  C   UNL     1      34.692 -19.601 -20.709  0.00  0.00    +0.051 C 
ATOM      4  C   UNL     1      34.660 -21.442 -18.613  0.00  0.00    +0.062 C 
ATOM      5  C   UNL     1      33.479 -20.119 -20.253  0.00  0.00    +0.143 C 
ATOM      6  C   UNL     1      35.888 -20.004 -20.117  0.00  0.00    +0.143 C 
ATOM      7  C   UNL     1      33.463 -21.039 -19.205  0.00  0.00    +0.045 C 
ATOM      8  C   UNL     1      35.873 -20.924 -19.069  0.00  0.00    +0.045 C 
ENDROOT
BRANCH   3  13
ATOM      9  O   UNL     1      33.328 -16.185 -25.860  0.00  0.00    -0.272 OA
ATOM     10  N   UNL     1      34.542 -16.755 -23.958  0.00  0.00    -0.273 N 
ATOM     11  C   UNL     1      34.057 -19.018 -23.126  0.00  0.00    +0.048 C 
ATOM     12  C   UNL     1      34.574 -18.179 -24.290  0.00  0.00    +0.098 C 
ATOM     13  C   UNL     1      34.708 -18.623 -21.822  0.00  0.00    -0.019 C 
ATOM     14  C   UNL     1      35.289 -16.354 -22.759  0.00  0.00    +0.120 C 
ATOM     15  C   UNL     1      35.267 -17.406 -21.686  0.00  0.00    -0.009 C 
ATOM     16  C   UNL     1      33.955 -15.854 -24.851  0.00  0.00    +0.255 C 
BRANCH  16  17
ATOM     17  C   UNL     1      34.113 -14.389 -24.525  0.00  0.00    +0.217 C 
BRANCH  17  18
ATOM     18  O   UNL     1      33.801 -13.700 -25.718  0.00  0.00    -0.374 OA
ATOM     19  H   UNL     1      33.299 -12.898 -25.508  0.00  0.00    +0.211 HD
ENDBRANCH  17  18
BRANCH  17  20
ATOM     20  C   UNL     1      33.144 -13.978 -23.438  0.00  0.00    +0.176 C 
BRANCH  20  21
ATOM     21  O   UNL     1      33.630 -12.818 -22.777  0.00  0.00    -0.379 OA
ATOM     22  H   UNL     1      34.592 -12.761 -22.890  0.00  0.00    +0.211 HD
ENDBRANCH  20  21
ENDBRANCH  17  20
ENDBRANCH  16  17
ENDBRANCH   3  13
BRANCH   4  25
ATOM     23  O   UNL     1      35.206 -23.562 -15.703  0.00  0.00    -0.432 OA
ATOM     24  O   UNL     1      36.639 -21.928 -16.354  0.00  0.00    -0.226 OA
ATOM     25  N   UNL     1      34.644 -22.383 -17.544  0.00  0.00    -0.221 N 
ATOM     26  C   UNL     1      33.863 -23.947 -16.028  0.00  0.00    +0.234 C 
ATOM     27  C   UNL     1      33.649 -23.414 -17.428  0.00  0.00    +0.149 C 
ATOM     28  C   UNL     1      35.593 -22.535 -16.536  0.00  0.00    +0.409 C 
BRANCH  26  29
ATOM     29  C   UNL     1      32.916 -23.340 -15.003  0.00  0.00    +0.252 C 
BRANCH  29  30
ATOM     30  O   UNL     1      31.733 -24.120 -14.960  0.00  0.00    -0.454 OA
BRANCH  30  33
ATOM     31  O   UNL     1      29.273 -22.268 -16.546  0.00  0.00    -0.347 OA
ATOM     32  N   UNL     1      30.568 -22.763 -16.448  0.00  0.00    -0.039 NA
ATOM     33  C   UNL     1      30.576 -23.493 -15.330  0.00  0.00    +0.264 C 
ATOM     34  C   UNL     1      29.326 -23.497 -14.686  0.00  0.00    +0.104 C 
ATOM     35  C   UNL     1      28.542 -22.713 -15.490  0.00  0.00    +0.217 C 
ENDBRANCH  30  33
ENDBRANCH  29  30
ENDBRANCH  26  29
ENDBRANCH   4  25
TORSDOF 9
ENDMDL
MODEL 2
REMARK VINA RESULT:     -11.4      2.061      9.940
REMARK  Name = 213049
REMARK  9 active torsions:
REMARK  status: ('A' for Active; 'I' for Inactive)
REMARK    1  A    between atoms: C_3  and  C_13
REMARK    2  A    between atoms: C_4  and  N_25
REMARK    3  A    between atoms: C_16  and  C_17
REMARK    4  A    between atoms: C_17  and  O_18
REMARK    5  A    between atoms: C_17  and  C_20
REMARK    6  A    between atoms: C_20  and  O_21
REMARK    7  A    between atoms: C_26  and  C_29
REMARK    8  A    between atoms: C_29  and  O_30
REMARK    9  A    between atoms: O_30  and  C_33
REMARK                            x       y       z     vdW  Elec       q    Type
REMARK                         _______ _______ _______ _____ _____    ______ ____
ROOT
ATOM      1  F   UNL     1      36.888 -21.004 -19.613  0.00  0.00    -0.204 F 
ATOM      2  F   UNL     1      32.167 -20.454 -19.451  0.00  0.00    -0.204 F 
ATOM      3  C   UNL     1      34.526 -20.753 -19.498  0.00  0.00    +0.051 C 
ATOM      4  C   UNL     1      34.650 -19.047 -21.702  0.00  0.00    +0.062 C 
ATOM      5  C   UNL     1      35.755 -20.466 -20.091  0.00  0.00    +0.143 C 
ATOM      6  C   UNL     1      33.357 -20.187 -20.008  0.00  0.00    +0.143 C 
ATOM      7  C   UNL     1      35.818 -19.613 -21.192  0.00  0.00    +0.045 C 
ATOM      8  C   UNL     1      33.419 -19.334 -21.109  0.00  0.00    +0.045 C 
ENDROOT
BRANCH   3  13
ATOM      9  O   UNL     1      35.061 -23.366 -13.758  0.00  0.00    -0.272 OA
ATOM     10  N   UNL     1      34.337 -23.237 -15.966  0.00  0.00    -0.273 N 
ATOM     11  C   UNL     1      35.572 -21.587 -17.310  0.00  0.00    +0.048 C 
ATOM     12  C   UNL     1      35.656 -22.862 -16.476  0.00  0.00    +0.098 C 
ATOM     13  C   UNL     1      34.460 -21.659 -18.328  0.00  0.00    -0.019 C 
ATOM     14  C   UNL     1      33.288 -23.436 -16.974  0.00  0.00    +0.120 C 
ATOM     15  C   UNL     1      33.436 -22.516 -18.152  0.00  0.00    -0.009 C 
ATOM     16  C   UNL     1      34.183 -23.530 -14.609  0.00  0.00    +0.255 C 
BRANCH  16  17
ATOM     17  C   UNL     1      32.839 -24.075 -14.190  0.00  0.00    +0.217 C 
BRANCH  17  18
ATOM     18  O   UNL     1      33.121 -25.117 -13.279  0.00  0.00    -0.374 OA
ATOM     19  H   UNL     1      32.899 -25.970 -13.683  0.00  0.00    +0.211 HD
ENDBRANCH  17  18
BRANCH  17  20
ATOM     20  C   UNL     1      32.024 -23.006 -13.495  0.00  0.00    +0.176 C 
BRANCH  20  21
ATOM     21  O   UNL     1      32.464 -22.866 -12.152  0.00  0.00    -0.379 OA
ATOM     22  H   UNL     1      32.862 -21.990 -12.031  0.00  0.00    +0.211 HD
ENDBRANCH  20  21
ENDBRANCH  17  20
ENDBRANCH  16  17
ENDBRANCH   3  13
BRANCH   4  25
ATOM     23  O   UNL     1      34.444 -17.299 -24.890  0.00  0.00    -0.432 OA
ATOM     24  O   UNL     1      33.500 -19.326 -24.505  0.00  0.00    -0.226 OA
ATOM     25  N   UNL     1      34.713 -18.177 -22.828  0.00  0.00    -0.221 N 
ATOM     26  C   UNL     1      35.025 -16.261 -24.088  0.00  0.00    +0.234 C 
ATOM     27  C   UNL     1      35.498 -16.973 -22.840  0.00  0.00    +0.149 C 
ATOM     28  C   UNL     1      34.146 -18.376 -24.085  0.00  0.00    +0.409 C 
BRANCH  26  29
ATOM     29  C   UNL     1      33.964 -15.205 -23.810  0.00  0.00    +0.252 C 
BRANCH  29  30
ATOM     30  O   UNL     1      34.456 -14.316 -22.821  0.00  0.00    -0.454 OA
BRANCH  30  33
ATOM     31  O   UNL     1      31.816 -12.542 -21.450  0.00  0.00    -0.347 OA
ATOM     32  N   UNL     1      32.596 -12.950 -22.526  0.00  0.00    -0.039 NA
ATOM     33  C   UNL     1      33.525 -13.748 -21.996  0.00  0.00    +0.264 C 
ATOM     34  C   UNL     1      33.385 -13.882 -20.604  0.00  0.00    +0.104 C 
ATOM     35  C   UNL     1      32.296 -13.104 -20.310  0.00  0.00    +0.217 C 
ENDBRANCH  30  33
ENDBRANCH  29  30
ENDBRANCH  26  29
ENDBRANCH   4  25
TORSDOF 9
ENDMDL
MODEL 3
REMARK VINA RESULT:     -10.9      2.547      4.066
REMARK  Name = 213049
REMARK  9 active torsions:
REMARK  status: ('A' for Active; 'I' for Inactive)
REMARK    1  A    between atoms: C_3  and  C_13
REMARK    2  A    between atoms: C_4  and  N_25
REMARK    3  A    between atoms: C_16  and  C_17
REMARK    4  A    between atoms: C_17  and  O_18
REMARK    5  A    between atoms: C_17  and  C_20
REMARK    6  A    between atoms: C_20  and  O_21
REMARK    7  A    between atoms: C_26  and  C_29
REMARK    8  A    between atoms: C_29  and  O_30
REMARK    9  A    between atoms: O_30  and  C_33
REMARK                            x       y       z     vdW  Elec       q    Type
REMARK                         _______ _______ _______ _____ _____    ______ ____
ROOT
ATOM      1  F   UNL     1      32.708 -20.274 -20.234  0.00  0.00    -0.204 F 
ATOM      2  F   UNL     1      37.438 -19.790 -20.293  0.00  0.00    -0.204 F 
ATOM      3  C   UNL     1      35.071 -20.008 -20.297  0.00  0.00    +0.051 C 
ATOM      4  C   UNL     1      35.260 -21.588 -18.006  0.00  0.00    +0.062 C 
ATOM      5  C   UNL     1      33.917 -20.526 -19.709  0.00  0.00    +0.143 C 
ATOM      6  C   UNL     1      36.320 -20.280 -19.739  0.00  0.00    +0.143 C 
ATOM      7  C   UNL     1      34.011 -21.316 -18.564  0.00  0.00    +0.045 C 
ATOM      8  C   UNL     1      36.415 -21.069 -18.593  0.00  0.00    +0.045 C 
ENDROOT
BRANCH   3  13
ATOM      9  O   UNL     1      33.063 -16.973 -25.475  0.00  0.00    -0.272 OA
ATOM     10  N   UNL     1      34.584 -17.532 -23.806  0.00  0.00    -0.273 N 
ATOM     11  C   UNL     1      33.994 -19.585 -22.586  0.00  0.00    +0.048 C 
ATOM     12  C   UNL     1      34.345 -18.969 -23.937  0.00  0.00    +0.098 C 
ATOM     13  C   UNL     1      34.970 -19.168 -21.513  0.00  0.00    -0.019 C 
ATOM     14  C   UNL     1      35.631 -17.136 -22.855  0.00  0.00    +0.120 C 
ATOM     15  C   UNL     1      35.708 -18.052 -21.666  0.00  0.00    -0.009 C 
ATOM     16  C   UNL     1      33.941 -16.646 -24.674  0.00  0.00    +0.255 C 
BRANCH  16  17
ATOM     17  C   UNL     1      34.369 -15.201 -24.593  0.00  0.00    +0.217 C 
BRANCH  17  18
ATOM     18  O   UNL     1      34.206 -14.685 -25.898  0.00  0.00    -0.374 OA
ATOM     19  H   UNL     1      33.784 -13.813 -25.852  0.00  0.00    +0.211 HD
ENDBRANCH  17  18
BRANCH  17  20
ATOM     20  C   UNL     1      33.482 -14.436 -23.635  0.00  0.00    +0.176 C 
BRANCH  20  21
ATOM     21  O   UNL     1      34.286 -13.719 -22.708  0.00  0.00    -0.379 OA
ATOM     22  H   UNL     1      34.079 -12.773 -22.765  0.00  0.00    +0.211 HD
ENDBRANCH  20  21
ENDBRANCH  17  20
ENDBRANCH  16  17
ENDBRANCH   3  13
BRANCH   4  25
ATOM     23  O   UNL     1      35.026 -24.027 -15.311  0.00  0.00    -0.432 OA
ATOM     24  O   UNL     1      33.762 -24.108 -17.193  0.00  0.00    -0.226 OA
ATOM     25  N   UNL     1      35.357 -22.396 -16.837  0.00  0.00    -0.221 N 
ATOM     26  C   UNL     1      36.190 -23.307 -14.879  0.00  0.00    +0.234 C 
ATOM     27  C   UNL     1      36.179 -22.044 -15.711  0.00  0.00    +0.149 C 
ATOM     28  C   UNL     1      34.635 -23.551 -16.544  0.00  0.00    +0.409 C 
BRANCH  26  29
ATOM     29  C   UNL     1      37.419 -24.173 -15.119  0.00  0.00    +0.252 C 
BRANCH  29  30
ATOM     30  O   UNL     1      38.346 -23.944 -14.071  0.00  0.00    -0.454 OA
BRANCH  30  33
ATOM     31  O   UNL     1      37.724 -24.342 -10.687  0.00  0.00    -0.347 OA
ATOM     32  N   UNL     1      38.180 -23.607 -11.774  0.00  0.00    -0.039 NA
ATOM     33  C   UNL     1      37.989 -24.399 -12.832  0.00  0.00    +0.264 C 
ATOM     34  C   UNL     1      37.421 -25.636 -12.478  0.00  0.00    +0.104 C 
ATOM     35  C   UNL     1      37.275 -25.550 -11.119  0.00  0.00    +0.217 C 
ENDBRANCH  30  33
ENDBRANCH  29  30
ENDBRANCH  26  29
ENDBRANCH   4  25
TORSDOF 9
ENDMDL
MODEL 4
REMARK VINA RESULT:     -10.6      2.607     10.083
REMARK  Name = 213049
REMARK  9 active torsions:
REMARK  status: ('A' for Active; 'I' for Inactive)
REMARK    1  A    between atoms: C_3  and  C_13
REMARK    2  A    between atoms: C_4  and  N_25
REMARK    3  A    between atoms: C_16  and  C_17
REMARK    4  A    between atoms: C_17  and  O_18
REMARK    5  A    between atoms: C_17  and  C_20
REMARK    6  A    between atoms: C_20  and  O_21
REMARK    7  A    between atoms: C_26  and  C_29
REMARK    8  A    between atoms: C_29  and  O_30
REMARK    9  A    between atoms: O_30  and  C_33
REMARK                            x       y       z     vdW  Elec       q    Type
REMARK                         _______ _______ _______ _____ _____    ______ ____
ROOT
ATOM      1  F   UNL     1      37.557 -20.412 -19.385  0.00  0.00    -0.204 F 
ATOM      2  F   UNL     1      32.833 -20.949 -19.284  0.00  0.00    -0.204 F 
ATOM      3  C   UNL     1      35.198 -20.703 -19.300  0.00  0.00    +0.051 C 
ATOM      4  C   UNL     1      34.970 -19.121 -21.586  0.00  0.00    +0.062 C 
ATOM      5  C   UNL     1      36.341 -20.171 -19.897  0.00  0.00    +0.143 C 
ATOM      6  C   UNL     1      33.941 -20.444 -19.845  0.00  0.00    +0.143 C 
ATOM      7  C   UNL     1      36.227 -19.380 -21.040  0.00  0.00    +0.045 C 
ATOM      8  C   UNL     1      33.826 -19.653 -20.988  0.00  0.00    +0.045 C 
ENDROOT
BRANCH   3  13
ATOM      9  O   UNL     1      34.893 -25.393 -15.060  0.00  0.00    -0.272 OA
ATOM     10  N   UNL     1      35.549 -23.313 -15.873  0.00  0.00    -0.273 N 
ATOM     11  C   UNL     1      34.236 -22.557 -17.810  0.00  0.00    +0.048 C 
ATOM     12  C   UNL     1      34.208 -22.967 -16.341  0.00  0.00    +0.098 C 
ATOM     13  C   UNL     1      35.319 -21.543 -18.085  0.00  0.00    -0.019 C 
ATOM     14  C   UNL     1      36.574 -22.272 -16.022  0.00  0.00    +0.120 C 
ATOM     15  C   UNL     1      36.369 -21.431 -17.249  0.00  0.00    -0.009 C 
ATOM     16  C   UNL     1      35.749 -24.515 -15.188  0.00  0.00    +0.255 C 
BRANCH  16  17
ATOM     17  C   UNL     1      37.118 -24.723 -14.587  0.00  0.00    +0.217 C 
BRANCH  17  18
ATOM     18  O   UNL     1      37.084 -24.067 -13.335  0.00  0.00    -0.374 OA
ATOM     19  H   UNL     1      36.171 -23.818 -13.125  0.00  0.00    +0.211 HD
ENDBRANCH  17  18
BRANCH  17  20
ATOM     20  C   UNL     1      37.389 -26.196 -14.376  0.00  0.00    +0.176 C 
BRANCH  20  21
ATOM     21  O   UNL     1      37.095 -26.911 -15.568  0.00  0.00    -0.379 OA
ATOM     22  H   UNL     1      36.268 -27.405 -15.452  0.00  0.00    +0.211 HD
ENDBRANCH  20  21
ENDBRANCH  17  20
ENDBRANCH  16  17
ENDBRANCH   3  13
BRANCH   4  25
ATOM     23  O   UNL     1      34.295 -17.568 -24.810  0.00  0.00    -0.432 OA
ATOM     24  O   UNL     1      33.507 -19.608 -24.209  0.00  0.00    -0.226 OA
ATOM     25  N   UNL     1      34.853 -18.315 -22.754  0.00  0.00    -0.221 N 
ATOM     26  C   UNL     1      34.915 -16.461 -24.139  0.00  0.00    +0.234 C 
ATOM     27  C   UNL     1      35.571 -17.080 -22.924  0.00  0.00    +0.149 C 
ATOM     28  C   UNL     1      34.150 -18.609 -23.920  0.00  0.00    +0.409 C 
BRANCH  26  29
ATOM     29  C   UNL     1      33.844 -15.438 -23.787  0.00  0.00    +0.252 C 
BRANCH  29  30
ATOM     30  O   UNL     1      34.394 -14.500 -22.877  0.00  0.00    -0.454 OA
BRANCH  30  33
ATOM     31  O   UNL     1      31.853 -12.555 -21.550  0.00  0.00    -0.347 OA
ATOM     32  N   UNL     1      32.585 -13.058 -22.619  0.00  0.00    -0.039 NA
ATOM     33  C   UNL     1      33.507 -13.850 -22.065  0.00  0.00    +0.264 C 
ATOM     34  C   UNL     1      33.406 -13.887 -20.663  0.00  0.00    +0.104 C 
ATOM     35  C   UNL     1      32.351 -13.056 -20.390  0.00  0.00    +0.217 C 
ENDBRANCH  30  33
ENDBRANCH  29  30
ENDBRANCH  26  29
ENDBRANCH   4  25
TORSDOF 9
ENDMDL
MODEL 5
REMARK VINA RESULT:     -10.5      3.569     10.959
REMARK  Name = 213049
REMARK  9 active torsions:
REMARK  status: ('A' for Active; 'I' for Inactive)
REMARK    1  A    between atoms: C_3  and  C_13
REMARK    2  A    between atoms: C_4  and  N_25
REMARK    3  A    between atoms: C_16  and  C_17
REMARK    4  A    between atoms: C_17  and  O_18
REMARK    5  A    between atoms: C_17  and  C_20
REMARK    6  A    between atoms: C_20  and  O_21
REMARK    7  A    between atoms: C_26  and  C_29
REMARK    8  A    between atoms: C_29  and  O_30
REMARK    9  A    between atoms: O_30  and  C_33
REMARK                            x       y       z     vdW  Elec       q    Type
REMARK                         _______ _______ _______ _____ _____    ______ ____
ROOT
ATOM      1  F   UNL     1      34.876 -15.664 -19.642  0.00  0.00    -0.204 F 
ATOM      2  F   UNL     1      34.816 -17.740 -23.920  0.00  0.00    -0.204 F 
ATOM      3  C   UNL     1      34.852 -16.740 -21.763  0.00  0.00    +0.051 C 
ATOM      4  C   UNL     1      34.393 -14.261 -22.959  0.00  0.00    +0.062 C 
ATOM      5  C   UNL     1      34.752 -15.593 -20.976  0.00  0.00    +0.143 C 
ATOM      6  C   UNL     1      34.721 -16.647 -23.149  0.00  0.00    +0.143 C 
ATOM      7  C   UNL     1      34.523 -14.353 -21.573  0.00  0.00    +0.045 C 
ATOM      8  C   UNL     1      34.492 -15.409 -23.747  0.00  0.00    +0.045 C 
ENDROOT
BRANCH   3  13
ATOM      9  O   UNL     1      36.881 -21.453 -18.059  0.00  0.00    -0.272 OA
ATOM     10  N   UNL     1      35.596 -20.486 -19.740  0.00  0.00    -0.273 N 
ATOM     11  C   UNL     1      36.438 -18.298 -20.484  0.00  0.00    +0.048 C 
ATOM     12  C   UNL     1      36.733 -19.787 -20.338  0.00  0.00    +0.098 C 
ATOM     13  C   UNL     1      35.095 -18.056 -21.128  0.00  0.00    -0.019 C 
ATOM     14  C   UNL     1      34.315 -20.356 -20.446  0.00  0.00    +0.120 C 
ATOM     15  C   UNL     1      34.149 -19.015 -21.102  0.00  0.00    -0.009 C 
ATOM     16  C   UNL     1      35.808 -21.340 -18.655  0.00  0.00    +0.255 C 
BRANCH  16  17
ATOM     17  C   UNL     1      34.620 -22.156 -18.204  0.00  0.00    +0.217 C 
BRANCH  17  18
ATOM     18  O   UNL     1      34.587 -23.279 -19.060  0.00  0.00    -0.374 OA
ATOM     19  H   UNL     1      34.537 -24.090 -18.530  0.00  0.00    +0.211 HD
ENDBRANCH  17  18
BRANCH  17  20
ATOM     20  C   UNL     1      34.803 -22.617 -16.775  0.00  0.00    +0.176 C 
BRANCH  20  21
ATOM     21  O   UNL     1      34.049 -23.801 -16.554  0.00  0.00    -0.379 OA
ATOM     22  H   UNL     1      34.039 -24.006 -15.606  0.00  0.00    +0.211 HD
ENDBRANCH  20  21
ENDBRANCH  17  20
ENDBRANCH  16  17
ENDBRANCH   3  13
BRANCH   4  25
ATOM     23  O   UNL     1      33.501 -11.386 -25.008  0.00  0.00    -0.432 OA
ATOM     24  O   UNL     1      33.022 -13.530 -25.574  0.00  0.00    -0.226 OA
ATOM     25  N   UNL     1      34.160 -12.996 -23.569  0.00  0.00    -0.221 N 
ATOM     26  C   UNL     1      33.950 -10.705 -23.827  0.00  0.00    +0.234 C 
ATOM     27  C   UNL     1      34.688 -11.766 -23.041  0.00  0.00    +0.149 C 
ATOM     28  C   UNL     1      33.510 -12.744 -24.775  0.00  0.00    +0.409 C 
BRANCH  26  29
ATOM     29  C   UNL     1      32.739 -10.148 -23.092  0.00  0.00    +0.252 C 
BRANCH  29  30
ATOM     30  O   UNL     1      33.004  -8.801 -22.737  0.00  0.00    -0.454 OA
BRANCH  30  33
ATOM     31  O   UNL     1      32.992  -7.367 -19.584  0.00  0.00    -0.347 OA
ATOM     32  N   UNL     1      33.478  -7.478 -20.882  0.00  0.00    -0.039 NA
ATOM     33  C   UNL     1      32.756  -8.454 -21.438  0.00  0.00    +0.264 C 
ATOM     34  C   UNL     1      31.808  -8.991 -20.549  0.00  0.00    +0.104 C 
ATOM     35  C   UNL     1      31.998  -8.273 -19.397  0.00  0.00    +0.217 C 
ENDBRANCH  30  33
ENDBRANCH  29  30
ENDBRANCH  26  29
ENDBRANCH   4  25
TORSDOF 9
ENDMDL
MODEL 6
REMARK VINA RESULT:     -10.5      3.577     10.754
REMARK  Name = 213049
REMARK  9 active torsions:
REMARK  status: ('A' for Active; 'I' for Inactive)
REMARK    1  A    between atoms: C_3  and  C_13
REMARK    2  A    between atoms: C_4  and  N_25
REMARK    3  A    between atoms: C_16  and  C_17
REMARK    4  A    between atoms: C_17  and  O_18
REMARK    5  A    between atoms: C_17  and  C_20
REMARK    6  A    between atoms: C_20  and  O_21
REMARK    7  A    between atoms: C_26  and  C_29
REMARK    8  A    between atoms: C_29  and  O_30
REMARK    9  A    between atoms: O_30  and  C_33
REMARK                            x       y       z     vdW  Elec       q    Type
REMARK                         _______ _______ _______ _____ _____    ______ ____
ROOT
ATOM      1  F   UNL     1      33.061 -23.217 -16.902  0.00  0.00    -0.204 F 
ATOM      2  F   UNL     1      37.538 -21.739 -16.275  0.00  0.00    -0.204 F 
ATOM      3  C   UNL     1      35.302 -22.500 -16.553  0.00  0.00    +0.051 C 
ATOM      4  C   UNL     1      35.167 -21.076 -18.948  0.00  0.00    +0.062 C 
ATOM      5  C   UNL     1      34.132 -22.519 -17.311  0.00  0.00    +0.143 C 
ATOM      6  C   UNL     1      36.406 -21.769 -16.993  0.00  0.00    +0.143 C 
ATOM      7  C   UNL     1      34.063 -21.807 -18.509  0.00  0.00    +0.045 C 
ATOM      8  C   UNL     1      36.339 -21.057 -18.190  0.00  0.00    +0.045 C 
ENDROOT
BRANCH   3  13
ATOM      9  O   UNL     1      37.249 -25.674 -11.435  0.00  0.00    -0.272 OA
ATOM     10  N   UNL     1      35.691 -24.630 -12.813  0.00  0.00    -0.273 N 
ATOM     11  C   UNL     1      36.511 -24.232 -15.097  0.00  0.00    +0.048 C 
ATOM     12  C   UNL     1      36.193 -25.272 -14.027  0.00  0.00    +0.098 C 
ATOM     13  C   UNL     1      35.374 -23.257 -15.281  0.00  0.00    -0.019 C 
ATOM     14  C   UNL     1      34.501 -23.784 -12.974  0.00  0.00    +0.120 C 
ATOM     15  C   UNL     1      34.469 -23.079 -14.300  0.00  0.00    -0.009 C 
ATOM     16  C   UNL     1      36.251 -24.964 -11.576  0.00  0.00    +0.255 C 
BRANCH  16  17
ATOM     17  C   UNL     1      35.568 -24.395 -10.357  0.00  0.00    +0.217 C 
BRANCH  17  18
ATOM     18  O   UNL     1      35.410 -25.483  -9.470  0.00  0.00    -0.374 OA
ATOM     19  H   UNL     1      34.494 -25.511  -9.150  0.00  0.00    +0.211 HD
ENDBRANCH  17  18
BRANCH  17  20
ATOM     20  C   UNL     1      36.432 -23.337  -9.707  0.00  0.00    +0.176 C 
BRANCH  20  21
ATOM     21  O   UNL     1      37.461 -22.943 -10.604  0.00  0.00    -0.379 OA
ATOM     22  H   UNL     1      38.041 -22.300 -10.168  0.00  0.00    +0.211 HD
ENDBRANCH  20  21
ENDBRANCH  17  20
ENDBRANCH  16  17
ENDBRANCH   3  13
BRANCH   4  25
ATOM     23  O   UNL     1      34.321 -19.294 -22.009  0.00  0.00    -0.432 OA
ATOM     24  O   UNL     1      32.779 -20.224 -20.630  0.00  0.00    -0.226 OA
ATOM     25  N   UNL     1      35.097 -20.348 -20.170  0.00  0.00    -0.221 N 
ATOM     26  C   UNL     1      35.721 -18.989 -21.937  0.00  0.00    +0.234 C 
ATOM     27  C   UNL     1      36.265 -19.967 -20.918  0.00  0.00    +0.149 C 
ATOM     28  C   UNL     1      33.953 -19.987 -20.877  0.00  0.00    +0.409 C 
BRANCH  26  29
ATOM     29  C   UNL     1      35.886 -17.535 -21.520  0.00  0.00    +0.252 C 
BRANCH  29  30
ATOM     30  O   UNL     1      35.396 -16.706 -22.561  0.00  0.00    -0.454 OA
BRANCH  30  33
ATOM     31  O   UNL     1      34.382 -13.869 -20.851  0.00  0.00    -0.347 OA
ATOM     32  N   UNL     1      34.859 -15.174 -20.893  0.00  0.00    -0.039 NA
ATOM     33  C   UNL     1      34.946 -15.468 -22.193  0.00  0.00    +0.264 C 
ATOM     34  C   UNL     1      34.542 -14.398 -23.011  0.00  0.00    +0.104 C 
ATOM     35  C   UNL     1      34.197 -13.418 -22.119  0.00  0.00    +0.217 C 
ENDBRANCH  30  33
ENDBRANCH  29  30
ENDBRANCH  26  29
ENDBRANCH   4  25
TORSDOF 9
ENDMDL
MODEL 7
REMARK VINA RESULT:     -10.3      2.551     10.794
REMARK  Name = 213049
REMARK  9 active torsions:
REMARK  status: ('A' for Active; 'I' for Inactive)
REMARK    1  A    between atoms: C_3  and  C_13
REMARK    2  A    between atoms: C_4  and  N_25
REMARK    3  A    between atoms: C_16  and  C_17
REMARK    4  A    between atoms: C_17  and  O_18
REMARK    5  A    between atoms: C_17  and  C_20
REMARK    6  A    between atoms: C_20  and  O_21
REMARK    7  A    between atoms: C_26  and  C_29
REMARK    8  A    between atoms: C_29  and  O_30
REMARK    9  A    between atoms: O_30  and  C_33
REMARK                            x       y       z     vdW  Elec       q    Type
REMARK                         _______ _______ _______ _____ _____    ______ ____
ROOT
ATOM      1  F   UNL     1      35.301 -16.734 -19.607  0.00  0.00    -0.204 F 
ATOM      2  F   UNL     1      34.527 -19.693 -23.249  0.00  0.00    -0.204 F 
ATOM      3  C   UNL     1      34.918 -18.246 -21.403  0.00  0.00    +0.051 C 
ATOM      4  C   UNL     1      34.566 -16.062 -23.102  0.00  0.00    +0.062 C 
ATOM      5  C   UNL     1      35.027 -16.948 -20.903  0.00  0.00    +0.143 C 
ATOM      6  C   UNL     1      34.633 -18.452 -22.753  0.00  0.00    +0.143 C 
ATOM      7  C   UNL     1      34.851 -15.856 -21.752  0.00  0.00    +0.045 C 
ATOM      8  C   UNL     1      34.457 -17.360 -23.602  0.00  0.00    +0.045 C 
ENDROOT
BRANCH   3  13
ATOM      9  O   UNL     1      36.970 -22.263 -16.963  0.00  0.00    -0.272 OA
ATOM     10  N   UNL     1      35.540 -21.507 -18.635  0.00  0.00    -0.273 N 
ATOM     11  C   UNL     1      36.501 -19.710 -20.012  0.00  0.00    +0.048 C 
ATOM     12  C   UNL     1      36.631 -21.155 -19.542  0.00  0.00    +0.098 C 
ATOM     13  C   UNL     1      35.105 -19.406 -20.500  0.00  0.00    -0.019 C 
ATOM     14  C   UNL     1      34.180 -21.335 -19.163  0.00  0.00    +0.120 C 
ATOM     15  C   UNL     1      34.068 -20.168 -20.103  0.00  0.00    -0.009 C 
ATOM     16  C   UNL     1      35.831 -22.116 -17.411  0.00  0.00    +0.255 C 
BRANCH  16  17
ATOM     17  C   UNL     1      34.651 -22.605 -16.608  0.00  0.00    +0.217 C 
BRANCH  17  18
ATOM     18  O   UNL     1      34.165 -23.736 -17.302  0.00  0.00    -0.374 OA
ATOM     19  H   UNL     1      34.165 -24.504 -16.710  0.00  0.00    +0.211 HD
ENDBRANCH  17  18
BRANCH  17  20
ATOM     20  C   UNL     1      35.084 -23.015 -15.218  0.00  0.00    +0.176 C 
BRANCH  20  21
ATOM     21  O   UNL     1      35.707 -24.291 -15.268  0.00  0.00    -0.379 OA
ATOM     22  H   UNL     1      35.358 -24.848 -14.555  0.00  0.00    +0.211 HD
ENDBRANCH  20  21
ENDBRANCH  17  20
ENDBRANCH  16  17
ENDBRANCH   3  13
BRANCH   4  25
ATOM     23  O   UNL     1      33.868 -13.668 -25.756  0.00  0.00    -0.432 OA
ATOM     24  O   UNL     1      33.470 -15.894 -25.935  0.00  0.00    -0.226 OA
ATOM     25  N   UNL     1      34.387 -14.947 -23.970  0.00  0.00    -0.221 N 
ATOM     26  C   UNL     1      34.185 -12.758 -24.693  0.00  0.00    +0.234 C 
ATOM     27  C   UNL     1      34.845 -13.623 -23.643  0.00  0.00    +0.149 C 
ATOM     28  C   UNL     1      33.865 -14.954 -25.261  0.00  0.00    +0.409 C 
BRANCH  26  29
ATOM     29  C   UNL     1      32.899 -12.103 -24.209  0.00  0.00    +0.252 C 
BRANCH  29  30
ATOM     30  O   UNL     1      33.138 -11.517 -22.940  0.00  0.00    -0.454 OA
BRANCH  30  33
ATOM     31  O   UNL     1      33.721  -8.111 -23.185  0.00  0.00    -0.347 OA
ATOM     32  N   UNL     1      34.076  -9.437 -23.400  0.00  0.00    -0.039 NA
ATOM     33  C   UNL     1      33.076 -10.152 -22.879  0.00  0.00    +0.264 C 
ATOM     34  C   UNL     1      32.070  -9.340 -22.327  0.00  0.00    +0.104 C 
ATOM     35  C   UNL     1      32.524  -8.066 -22.545  0.00  0.00    +0.217 C 
ENDBRANCH  30  33
ENDBRANCH  29  30
ENDBRANCH  26  29
ENDBRANCH   4  25
TORSDOF 9
ENDMDL
MODEL 8
REMARK VINA RESULT:     -10.1      3.766     10.579
REMARK  Name = 213049
REMARK  9 active torsions:
REMARK  status: ('A' for Active; 'I' for Inactive)
REMARK    1  A    between atoms: C_3  and  C_13
REMARK    2  A    between atoms: C_4  and  N_25
REMARK    3  A    between atoms: C_16  and  C_17
REMARK    4  A    between atoms: C_17  and  O_18
REMARK    5  A    between atoms: C_17  and  C_20
REMARK    6  A    between atoms: C_20  and  O_21
REMARK    7  A    between atoms: C_26  and  C_29
REMARK    8  A    between atoms: C_29  and  O_30
REMARK    9  A    between atoms: O_30  and  C_33
REMARK                            x       y       z     vdW  Elec       q    Type
REMARK                         _______ _______ _______ _____ _____    ______ ____
ROOT
ATOM      1  F   UNL     1      34.226 -23.136 -17.742  0.00  0.00    -0.204 F 
ATOM      2  F   UNL     1      37.997 -20.600 -16.342  0.00  0.00    -0.204 F 
ATOM      3  C   UNL     1      36.115 -21.892 -17.008  0.00  0.00    +0.051 C 
ATOM      4  C   UNL     1      35.924 -20.335 -19.315  0.00  0.00    +0.062 C 
ATOM      5  C   UNL     1      35.110 -22.146 -17.941  0.00  0.00    +0.143 C 
ATOM      6  C   UNL     1      37.026 -20.859 -17.229  0.00  0.00    +0.143 C 
ATOM      7  C   UNL     1      35.013 -21.368 -19.094  0.00  0.00    +0.045 C 
ATOM      8  C   UNL     1      36.930 -20.080 -18.382  0.00  0.00    +0.045 C 
ENDROOT
BRANCH   3  13
ATOM      9  O   UNL     1      38.124 -24.868 -11.796  0.00  0.00    -0.272 OA
ATOM     10  N   UNL     1      36.553 -24.184 -13.370  0.00  0.00    -0.273 N 
ATOM     11  C   UNL     1      37.553 -23.340 -15.453  0.00  0.00    +0.048 C 
ATOM     12  C   UNL     1      37.403 -24.529 -14.508  0.00  0.00    +0.098 C 
ATOM     13  C   UNL     1      36.217 -22.719 -15.783  0.00  0.00    -0.019 C 
ATOM     14  C   UNL     1      35.203 -23.704 -13.694  0.00  0.00    +0.120 C 
ATOM     15  C   UNL     1      35.163 -22.908 -14.967  0.00  0.00    -0.009 C 
ATOM     16  C   UNL     1      36.993 -24.465 -12.074  0.00  0.00    +0.255 C 
BRANCH  16  17
ATOM     17  C   UNL     1      35.994 -24.241 -10.965  0.00  0.00    +0.217 C 
BRANCH  17  18
ATOM     18  O   UNL     1      35.845 -25.496 -10.332  0.00  0.00    -0.374 OA
ATOM     19  H   UNL     1      34.927 -25.797 -10.421  0.00  0.00    +0.211 HD
ENDBRANCH  17  18
BRANCH  17  20
ATOM     20  C   UNL     1      36.521 -23.233  -9.968  0.00  0.00    +0.176 C 
BRANCH  20  21
ATOM     21  O   UNL     1      37.333 -22.279 -10.636  0.00  0.00    -0.379 OA
ATOM     22  H   UNL     1      37.910 -22.733 -11.270  0.00  0.00    +0.211 HD
ENDBRANCH  20  21
ENDBRANCH  17  20
ENDBRANCH  16  17
ENDBRANCH   3  13
BRANCH   4  25
ATOM     23  O   UNL     1      36.338 -18.218 -22.249  0.00  0.00    -0.432 OA
ATOM     24  O   UNL     1      38.045 -18.818 -20.881  0.00  0.00    -0.226 OA
ATOM     25  N   UNL     1      35.825 -19.539 -20.492  0.00  0.00    -0.221 N 
ATOM     26  C   UNL     1      34.977 -18.629 -22.444  0.00  0.00    +0.234 C 
ATOM     27  C   UNL     1      34.568 -19.213 -21.109  0.00  0.00    +0.149 C 
ATOM     28  C   UNL     1      36.856 -18.880 -21.157  0.00  0.00    +0.409 C 
BRANCH  26  29
ATOM     29  C   UNL     1      34.928 -19.639 -23.581  0.00  0.00    +0.252 C 
BRANCH  29  30
ATOM     30  O   UNL     1      33.934 -19.233 -24.507  0.00  0.00    -0.454 OA
BRANCH  30  33
ATOM     31  O   UNL     1      32.935 -16.030 -25.368  0.00  0.00    -0.347 OA
ATOM     32  N   UNL     1      32.699 -17.391 -25.212  0.00  0.00    -0.039 NA
ATOM     33  C   UNL     1      33.852 -17.891 -24.761  0.00  0.00    +0.264 C 
ATOM     34  C   UNL     1      34.842 -16.904 -24.613  0.00  0.00    +0.104 C 
ATOM     35  C   UNL     1      34.215 -15.752 -25.008  0.00  0.00    +0.217 C 
ENDBRANCH  30  33
ENDBRANCH  29  30
ENDBRANCH  26  29
ENDBRANCH   4  25
TORSDOF 9
ENDMDL
MODEL 9
REMARK VINA RESULT:     -10.1      6.580     13.146
REMARK  Name = 213049
REMARK  9 active torsions:
REMARK  status: ('A' for Active; 'I' for Inactive)
REMARK    1  A    between atoms: C_3  and  C_13
REMARK    2  A    between atoms: C_4  and  N_25
REMARK    3  A    between atoms: C_16  and  C_17
REMARK    4  A    between atoms: C_17  and  O_18
REMARK    5  A    between atoms: C_17  and  C_20
REMARK    6  A    between atoms: C_20  and  O_21
REMARK    7  A    between atoms: C_26  and  C_29
REMARK    8  A    between atoms: C_29  and  O_30
REMARK    9  A    between atoms: O_30  and  C_33
REMARK                            x       y       z     vdW  Elec       q    Type
REMARK                         _______ _______ _______ _____ _____    ______ ____
ROOT
ATOM      1  F   UNL     1      34.697 -11.666 -24.230  0.00  0.00    -0.204 F 
ATOM      2  F   UNL     1      31.934 -13.475 -20.808  0.00  0.00    -0.204 F 
ATOM      3  C   UNL     1      33.330 -12.609 -22.526  0.00  0.00    +0.051 C 
ATOM      4  C   UNL     1      32.375 -10.052 -21.948  0.00  0.00    +0.062 C 
ATOM      5  C   UNL     1      33.793 -11.510 -23.250  0.00  0.00    +0.143 C 
ATOM      6  C   UNL     1      32.389 -12.429 -21.512  0.00  0.00    +0.143 C 
ATOM      7  C   UNL     1      33.315 -10.232 -22.962  0.00  0.00    +0.045 C 
ATOM      8  C   UNL     1      31.912 -11.151 -21.222  0.00  0.00    +0.045 C 
ENDROOT
BRANCH   3  13
ATOM      9  O   UNL     1      35.043 -18.696 -22.257  0.00  0.00    -0.272 OA
ATOM     10  N   UNL     1      34.685 -16.641 -23.289  0.00  0.00    -0.273 N 
ATOM     11  C   UNL     1      34.426 -14.778 -21.705  0.00  0.00    +0.048 C 
ATOM     12  C   UNL     1      35.340 -15.885 -22.223  0.00  0.00    +0.098 C 
ATOM     13  C   UNL     1      33.838 -13.966 -22.833  0.00  0.00    -0.019 C 
ATOM     14  C   UNL     1      34.231 -15.863 -24.449  0.00  0.00    +0.120 C 
ATOM     15  C   UNL     1      33.769 -14.483 -24.075  0.00  0.00    -0.009 C 
ATOM     16  C   UNL     1      34.663 -18.037 -23.228  0.00  0.00    +0.255 C 
BRANCH  16  17
ATOM     17  C   UNL     1      34.126 -18.753 -24.444  0.00  0.00    +0.217 C 
BRANCH  17  18
ATOM     18  O   UNL     1      34.786 -20.002 -24.470  0.00  0.00    -0.374 OA
ATOM     19  H   UNL     1      34.246 -20.644 -24.956  0.00  0.00    +0.211 HD
ENDBRANCH  17  18
BRANCH  17  20
ATOM     20  C   UNL     1      32.635 -18.973 -24.316  0.00  0.00    +0.176 C 
BRANCH  20  21
ATOM     21  O   UNL     1      31.977 -18.475 -25.473  0.00  0.00    -0.379 OA
ATOM     22  H   UNL     1      31.224 -19.047 -25.688  0.00  0.00    +0.211 HD
ENDBRANCH  20  21
ENDBRANCH  17  20
ENDBRANCH  16  17
ENDBRANCH   3  13
BRANCH   4  25
ATOM     23  O   UNL     1      31.400  -6.818 -20.587  0.00  0.00    -0.432 OA
ATOM     24  O   UNL     1      32.556  -8.379 -19.414  0.00  0.00    -0.226 OA
ATOM     25  N   UNL     1      31.886  -8.748 -21.653  0.00  0.00    -0.221 N 
ATOM     26  C   UNL     1      31.046  -6.613 -21.962  0.00  0.00    +0.234 C 
ATOM     27  C   UNL     1      31.059  -8.001 -22.563  0.00  0.00    +0.149 C 
ATOM     28  C   UNL     1      32.020  -8.042 -20.460  0.00  0.00    +0.409 C 
BRANCH  26  29
ATOM     29  C   UNL     1      32.063  -5.675 -22.596  0.00  0.00    +0.252 C 
BRANCH  29  30
ATOM     30  O   UNL     1      31.387  -4.812 -23.494  0.00  0.00    -0.454 OA
BRANCH  30  33
ATOM     31  O   UNL     1      29.801  -1.793 -22.885  0.00  0.00    -0.347 OA
ATOM     32  N   UNL     1      30.026  -2.930 -23.651  0.00  0.00    -0.039 NA
ATOM     33  C   UNL     1      30.952  -3.621 -22.981  0.00  0.00    +0.264 C 
ATOM     34  C   UNL     1      31.345  -2.976 -21.795  0.00  0.00    +0.104 C 
ATOM     35  C   UNL     1      30.593  -1.831 -21.782  0.00  0.00    +0.217 C 
ENDBRANCH  30  33
ENDBRANCH  29  30
ENDBRANCH  26  29
ENDBRANCH   4  25
TORSDOF 9
ENDMDL
