MODEL 1
REMARK VINA RESULT:     -12.1      0.000      0.000
REMARK  Name = 42642648
REMARK  5 active torsions:
REMARK  status: ('A' for Active; 'I' for Inactive)
REMARK    1  A    between atoms: N_1  and  C_22
REMARK    2  A    between atoms: C_4  and  N_15
REMARK    3  A    between atoms: C_25  and  O_28
REMARK    4  A    between atoms: O_28  and  C_29
REMARK    5  A    between atoms: C_29  and  C_32
REMARK                            x       y       z     vdW  Elec       q    Type
REMARK                         _______ _______ _______ _____ _____    ______ ____
ROOT
ATOM      1  N   UNL     1      33.668 -22.680 -17.784  0.00  0.00    -0.301 N 
ATOM      2  N   UNL     1      30.500 -23.065 -15.148  0.00  0.00    -0.248 NA
ATOM      3  N   UNL     1      31.420 -22.266 -17.227  0.00  0.00    -0.233 NA
ATOM      4  C   UNL     1      34.168 -24.758 -14.120  0.00  0.00    +0.048 C 
ATOM      5  C   UNL     1      32.796 -23.510 -15.678  0.00  0.00    +0.117 C 
ATOM      6  C   UNL     1      34.032 -24.082 -15.328  0.00  0.00    +0.001 C 
ATOM      7  C   UNL     1      31.686 -23.608 -14.823  0.00  0.00    +0.067 C 
ATOM      8  C   UNL     1      32.594 -22.821 -16.870  0.00  0.00    +0.115 C 
ATOM      9  C   UNL     1      33.076 -24.862 -13.265  0.00  0.00    +0.016 C 
ATOM     10  C   UNL     1      31.852 -24.290 -13.619  0.00  0.00    +0.016 C 
ATOM     11  C   UNL     1      30.431 -22.423 -16.331  0.00  0.00    +0.251 C 
ATOM     12  H   UNL     1      34.311 -23.424 -17.757  0.00  0.00    +0.153 HD
ENDROOT
BRANCH   4  15
ATOM     13  O   UNL     1      37.429 -25.642 -12.754  0.00  0.00    -0.448 OA
ATOM     14  N   UNL     1      36.251 -23.779 -12.154  0.00  0.00    -0.222 NA
ATOM     15  N   UNL     1      35.404 -25.333 -13.763  0.00  0.00    -0.269 N 
ATOM     16  C   UNL     1      37.464 -23.832 -11.322  0.00  0.00    +0.151 C 
ATOM     17  C   UNL     1      38.346 -24.858 -12.003  0.00  0.00    +0.233 C 
ATOM     18  C   UNL     1      36.317 -24.860 -12.870  0.00  0.00    +0.284 C 
ATOM     19  C   UNL     1      38.103 -22.460 -11.233  0.00  0.00    +0.030 C 
ATOM     20  H   UNL     1      35.635 -26.178 -14.214  0.00  0.00    +0.157 HD
ENDBRANCH   4  15
BRANCH   1  22
ATOM     21 CL   UNL     1      37.290 -19.836 -20.011  0.00  0.00    -0.079 Cl
ATOM     22  C   UNL     1      33.991 -21.684 -18.719  0.00  0.00    +0.050 C 
ATOM     23  C   UNL     1      35.319 -21.292 -18.890  0.00  0.00    +0.029 C 
ATOM     24  C   UNL     1      32.985 -21.086 -19.476  0.00  0.00    +0.018 C 
ATOM     25  C   UNL     1      34.632 -19.705 -20.578  0.00  0.00    +0.150 C 
ATOM     26  C   UNL     1      35.640 -20.303 -19.820  0.00  0.00    +0.093 C 
ATOM     27  C   UNL     1      33.305 -20.097 -20.406  0.00  0.00    +0.039 C 
BRANCH  25  28
ATOM     28  O   UNL     1      34.916 -18.735 -21.493  0.00  0.00    -0.468 OA
BRANCH  28  29
ATOM     29  C   UNL     1      34.564 -19.003 -22.849  0.00  0.00    +0.257 C 
BRANCH  29  32
ATOM     30  S   UNL     1      35.021 -16.266 -22.864  0.00  0.00    -0.067 S 
ATOM     31  N   UNL     1      33.851 -17.573 -24.762  0.00  0.00    -0.237 NA
ATOM     32  C   UNL     1      34.418 -17.703 -23.583  0.00  0.00    +0.132 C 
ATOM     33  C   UNL     1      34.487 -15.385 -24.234  0.00  0.00    +0.057 C 
ATOM     34  C   UNL     1      33.890 -16.243 -25.134  0.00  0.00    +0.106 C 
ENDBRANCH  29  32
ENDBRANCH  28  29
ENDBRANCH  25  28
ENDBRANCH   1  22
TORSDOF 5
ENDMDL
MODEL 2
REMARK VINA RESULT:     -11.8      5.696      9.954
REMARK  Name = 42642648
REMARK  5 active torsions:
REMARK  status: ('A' for Active; 'I' for Inactive)
REMARK    1  A    between atoms: N_1  and  C_22
REMARK    2  A    between atoms: C_4  and  N_15
REMARK    3  A    between atoms: C_25  and  O_28
REMARK    4  A    between atoms: O_28  and  C_29
REMARK    5  A    between atoms: C_29  and  C_32
REMARK                            x       y       z     vdW  Elec       q    Type
REMARK                         _______ _______ _______ _____ _____    ______ ____
ROOT
ATOM      1  N   UNL     1      34.263 -14.412 -22.142  0.00  0.00    -0.301 N 
ATOM      2  N   UNL     1      33.783 -17.106 -25.247  0.00  0.00    -0.248 NA
ATOM      3  N   UNL     1      33.506 -14.902 -24.316  0.00  0.00    -0.233 NA
ATOM      4  C   UNL     1      35.635 -18.405 -21.746  0.00  0.00    +0.048 C 
ATOM      5  C   UNL     1      34.569 -16.649 -23.029  0.00  0.00    +0.117 C 
ATOM      6  C   UNL     1      35.195 -17.090 -21.849  0.00  0.00    +0.001 C 
ATOM      7  C   UNL     1      34.379 -17.519 -24.115  0.00  0.00    +0.067 C 
ATOM      8  C   UNL     1      34.106 -15.347 -23.196  0.00  0.00    +0.115 C 
ATOM      9  C   UNL     1      35.452 -19.276 -22.814  0.00  0.00    +0.016 C 
ATOM     10  C   UNL     1      34.829 -18.830 -23.983  0.00  0.00    +0.016 C 
ATOM     11  C   UNL     1      33.378 -15.821 -25.287  0.00  0.00    +0.251 C 
ATOM     12  H   UNL     1      35.053 -14.576 -21.580  0.00  0.00    +0.153 HD
ENDROOT
BRANCH   4  15
ATOM     13  O   UNL     1      36.782 -20.147 -18.757  0.00  0.00    -0.448 OA
ATOM     14  N   UNL     1      35.149 -20.930 -20.148  0.00  0.00    -0.222 NA
ATOM     15  N   UNL     1      36.262 -18.854 -20.566  0.00  0.00    -0.269 N 
ATOM     16  C   UNL     1      35.390 -21.951 -19.116  0.00  0.00    +0.151 C 
ATOM     17  C   UNL     1      36.198 -21.235 -18.055  0.00  0.00    +0.233 C 
ATOM     18  C   UNL     1      36.014 -20.001 -19.875  0.00  0.00    +0.284 C 
ATOM     19  C   UNL     1      34.074 -22.499 -18.598  0.00  0.00    +0.030 C 
ATOM     20  H   UNL     1      36.963 -18.268 -20.198  0.00  0.00    +0.157 HD
ENDBRANCH   4  15
BRANCH   1  22
ATOM     21 CL   UNL     1      32.710  -9.646 -23.160  0.00  0.00    -0.079 Cl
ATOM     22  C   UNL     1      33.507 -13.296 -21.747  0.00  0.00    +0.050 C 
ATOM     23  C   UNL     1      33.479 -12.154 -22.546  0.00  0.00    +0.029 C 
ATOM     24  C   UNL     1      32.786 -13.331 -20.554  0.00  0.00    +0.018 C 
ATOM     25  C   UNL     1      32.005 -11.081 -20.959  0.00  0.00    +0.150 C 
ATOM     26  C   UNL     1      32.727 -11.046 -22.153  0.00  0.00    +0.093 C 
ATOM     27  C   UNL     1      32.035 -12.224 -20.161  0.00  0.00    +0.039 C 
BRANCH  25  28
ATOM     28  O   UNL     1      31.263 -10.014 -20.550  0.00  0.00    -0.468 OA
BRANCH  28  29
ATOM     29  C   UNL     1      31.895  -9.087 -19.668  0.00  0.00    +0.257 C 
BRANCH  29  32
ATOM     30  S   UNL     1      33.435  -6.821 -20.104  0.00  0.00    -0.067 S 
ATOM     31  N   UNL     1      31.118  -7.251 -21.164  0.00  0.00    -0.237 NA
ATOM     32  C   UNL     1      32.023  -7.762 -20.359  0.00  0.00    +0.132 C 
ATOM     33  C   UNL     1      32.798  -5.624 -21.154  0.00  0.00    +0.057 C 
ATOM     34  C   UNL     1      31.563  -6.026 -21.618  0.00  0.00    +0.106 C 
ENDBRANCH  29  32
ENDBRANCH  28  29
ENDBRANCH  25  28
ENDBRANCH   1  22
TORSDOF 5
ENDMDL
MODEL 3
REMARK VINA RESULT:     -11.5      1.602      2.122
REMARK  Name = 42642648
REMARK  5 active torsions:
REMARK  status: ('A' for Active; 'I' for Inactive)
REMARK    1  A    between atoms: N_1  and  C_22
REMARK    2  A    between atoms: C_4  and  N_15
REMARK    3  A    between atoms: C_25  and  O_28
REMARK    4  A    between atoms: O_28  and  C_29
REMARK    5  A    between atoms: C_29  and  C_32
REMARK                            x       y       z     vdW  Elec       q    Type
REMARK                         _______ _______ _______ _____ _____    ______ ____
ROOT
ATOM      1  N   UNL     1      33.833 -22.807 -17.031  0.00  0.00    -0.301 N 
ATOM      2  N   UNL     1      30.175 -23.168 -15.128  0.00  0.00    -0.248 NA
ATOM      3  N   UNL     1      31.484 -22.683 -17.092  0.00  0.00    -0.233 NA
ATOM      4  C   UNL     1      33.644 -23.932 -12.946  0.00  0.00    +0.048 C 
ATOM      5  C   UNL     1      32.567 -23.306 -15.023  0.00  0.00    +0.117 C 
ATOM      6  C   UNL     1      33.735 -23.565 -14.284  0.00  0.00    +0.001 C 
ATOM      7  C   UNL     1      31.298 -23.413 -14.430  0.00  0.00    +0.067 C 
ATOM      8  C   UNL     1      32.589 -22.935 -16.364  0.00  0.00    +0.115 C 
ATOM      9  C   UNL     1      32.393 -24.040 -12.348  0.00  0.00    +0.016 C 
ATOM     10  C   UNL     1      31.237 -23.781 -13.088  0.00  0.00    +0.016 C 
ATOM     11  C   UNL     1      30.329 -22.816 -16.420  0.00  0.00    +0.251 C 
ATOM     12  H   UNL     1      34.533 -23.404 -16.682  0.00  0.00    +0.153 HD
ENDROOT
BRANCH   4  15
ATOM     13  O   UNL     1      36.909 -24.911 -11.657  0.00  0.00    -0.448 OA
ATOM     14  N   UNL     1      36.228 -25.249 -13.811  0.00  0.00    -0.222 NA
ATOM     15  N   UNL     1      34.811 -24.192 -12.200  0.00  0.00    -0.269 N 
ATOM     16  C   UNL     1      37.627 -25.693 -13.706  0.00  0.00    +0.151 C 
ATOM     17  C   UNL     1      37.888 -25.775 -12.217  0.00  0.00    +0.233 C 
ATOM     18  C   UNL     1      35.957 -24.789 -12.628  0.00  0.00    +0.284 C 
ATOM     19  C   UNL     1      37.816 -27.017 -14.420  0.00  0.00    +0.030 C 
ATOM     20  H   UNL     1      34.795 -23.909 -11.257  0.00  0.00    +0.157 HD
ENDBRANCH   4  15
BRANCH   1  22
ATOM     21 CL   UNL     1      32.560 -19.806 -20.972  0.00  0.00    -0.079 Cl
ATOM     22  C   UNL     1      34.259 -21.993 -18.093  0.00  0.00    +0.050 C 
ATOM     23  C   UNL     1      33.320 -21.371 -18.915  0.00  0.00    +0.029 C 
ATOM     24  C   UNL     1      35.621 -21.807 -18.325  0.00  0.00    +0.018 C 
ATOM     25  C   UNL     1      35.107 -20.375 -20.202  0.00  0.00    +0.150 C 
ATOM     26  C   UNL     1      33.743 -20.562 -19.970  0.00  0.00    +0.093 C 
ATOM     27  C   UNL     1      36.045 -20.998 -19.379  0.00  0.00    +0.039 C 
BRANCH  25  28
ATOM     28  O   UNL     1      35.549 -19.591 -21.225  0.00  0.00    -0.468 OA
BRANCH  28  29
ATOM     29  C   UNL     1      35.801 -18.219 -20.925  0.00  0.00    +0.257 C 
BRANCH  29  32
ATOM     30  S   UNL     1      34.660 -18.139 -23.454  0.00  0.00    -0.067 S 
ATOM     31  N   UNL     1      35.408 -16.061 -22.110  0.00  0.00    -0.237 NA
ATOM     32  C   UNL     1      35.336 -17.373 -22.075  0.00  0.00    +0.132 C 
ATOM     33  C   UNL     1      34.438 -16.597 -24.170  0.00  0.00    +0.057 C 
ATOM     34  C   UNL     1      34.893 -15.618 -23.312  0.00  0.00    +0.106 C 
ENDBRANCH  29  32
ENDBRANCH  28  29
ENDBRANCH  25  28
ENDBRANCH   1  22
TORSDOF 5
ENDMDL
MODEL 4
REMARK VINA RESULT:     -11.1      5.687     10.148
REMARK  Name = 42642648
REMARK  5 active torsions:
REMARK  status: ('A' for Active; 'I' for Inactive)
REMARK    1  A    between atoms: N_1  and  C_22
REMARK    2  A    between atoms: C_4  and  N_15
REMARK    3  A    between atoms: C_25  and  O_28
REMARK    4  A    between atoms: O_28  and  C_29
REMARK    5  A    between atoms: C_29  and  C_32
REMARK                            x       y       z     vdW  Elec       q    Type
REMARK                         _______ _______ _______ _____ _____    ______ ____
ROOT
ATOM      1  N   UNL     1      34.564 -14.292 -22.885  0.00  0.00    -0.301 N 
ATOM      2  N   UNL     1      33.386 -17.444 -25.296  0.00  0.00    -0.248 NA
ATOM      3  N   UNL     1      33.436 -15.088 -24.791  0.00  0.00    -0.233 NA
ATOM      4  C   UNL     1      35.659 -18.270 -21.901  0.00  0.00    +0.048 C 
ATOM      5  C   UNL     1      34.547 -16.674 -23.345  0.00  0.00    +0.117 C 
ATOM      6  C   UNL     1      35.315 -16.956 -22.200  0.00  0.00    +0.001 C 
ATOM      7  C   UNL     1      34.119 -17.703 -24.199  0.00  0.00    +0.067 C 
ATOM      8  C   UNL     1      34.169 -15.383 -23.700  0.00  0.00    +0.115 C 
ATOM      9  C   UNL     1      35.240 -19.297 -22.739  0.00  0.00    +0.016 C 
ATOM     10  C   UNL     1      34.478 -19.009 -23.874  0.00  0.00    +0.016 C 
ATOM     11  C   UNL     1      33.084 -16.152 -25.532  0.00  0.00    +0.251 C 
ATOM     12  H   UNL     1      35.419 -14.436 -22.418  0.00  0.00    +0.153 HD
ENDROOT
BRANCH   4  15
ATOM     13  O   UNL     1      37.217 -19.636 -18.902  0.00  0.00    -0.448 OA
ATOM     14  N   UNL     1      35.532 -20.664 -20.052  0.00  0.00    -0.222 NA
ATOM     15  N   UNL     1      36.427 -18.559 -20.755  0.00  0.00    -0.269 N 
ATOM     16  C   UNL     1      35.950 -21.564 -18.966  0.00  0.00    +0.151 C 
ATOM     17  C   UNL     1      36.791 -20.694 -18.055  0.00  0.00    +0.233 C 
ATOM     18  C   UNL     1      36.339 -19.652 -19.947  0.00  0.00    +0.284 C 
ATOM     19  C   UNL     1      34.737 -22.156 -18.275  0.00  0.00    +0.030 C 
ATOM     20  H   UNL     1      37.108 -17.892 -20.510  0.00  0.00    +0.157 HD
ENDBRANCH   4  15
BRANCH   1  22
ATOM     21 CL   UNL     1      31.560 -11.487 -19.841  0.00  0.00    -0.079 Cl
ATOM     22  C   UNL     1      33.973 -13.047 -22.617  0.00  0.00    +0.050 C 
ATOM     23  C   UNL     1      33.155 -12.891 -21.498  0.00  0.00    +0.029 C 
ATOM     24  C   UNL     1      34.203 -11.969 -23.469  0.00  0.00    +0.018 C 
ATOM     25  C   UNL     1      32.799 -10.574 -22.085  0.00  0.00    +0.150 C 
ATOM     26  C   UNL     1      32.568 -11.654 -21.231  0.00  0.00    +0.093 C 
ATOM     27  C   UNL     1      33.616 -10.732 -23.203  0.00  0.00    +0.039 C 
BRANCH  25  28
ATOM     28  O   UNL     1      32.238  -9.354 -21.849  0.00  0.00    -0.468 OA
BRANCH  28  29
ATOM     29  C   UNL     1      32.977  -8.210 -22.273  0.00  0.00    +0.257 C 
BRANCH  29  32
ATOM     30  S   UNL     1      31.905  -6.064 -23.668  0.00  0.00    -0.067 S 
ATOM     31  N   UNL     1      31.396  -6.612 -21.194  0.00  0.00    -0.237 NA
ATOM     32  C   UNL     1      32.078  -7.008 -22.246  0.00  0.00    +0.132 C 
ATOM     33  C   UNL     1      30.828  -5.032 -22.822  0.00  0.00    +0.057 C 
ATOM     34  C   UNL     1      30.680  -5.479 -21.526  0.00  0.00    +0.106 C 
ENDBRANCH  29  32
ENDBRANCH  28  29
ENDBRANCH  25  28
ENDBRANCH   1  22
TORSDOF 5
ENDMDL
MODEL 5
REMARK VINA RESULT:      -9.9      8.988     16.249
REMARK  Name = 42642648
REMARK  5 active torsions:
REMARK  status: ('A' for Active; 'I' for Inactive)
REMARK    1  A    between atoms: N_1  and  C_22
REMARK    2  A    between atoms: C_4  and  N_15
REMARK    3  A    between atoms: C_25  and  O_28
REMARK    4  A    between atoms: O_28  and  C_29
REMARK    5  A    between atoms: C_29  and  C_32
REMARK                            x       y       z     vdW  Elec       q    Type
REMARK                         _______ _______ _______ _____ _____    ______ ____
ROOT
ATOM      1  N   UNL     1      33.293  -9.370 -23.110  0.00  0.00    -0.301 N 
ATOM      2  N   UNL     1      31.548  -7.290 -19.986  0.00  0.00    -0.248 NA
ATOM      3  N   UNL     1      32.550  -9.291 -20.879  0.00  0.00    -0.233 NA
ATOM      4  C   UNL     1      32.031  -5.357 -23.647  0.00  0.00    +0.048 C 
ATOM      5  C   UNL     1      32.293  -7.329 -22.265  0.00  0.00    +0.117 C 
ATOM      6  C   UNL     1      32.454  -6.673 -23.499  0.00  0.00    +0.001 C 
ATOM      7  C   UNL     1      31.707  -6.673 -21.170  0.00  0.00    +0.067 C 
ATOM      8  C   UNL     1      32.694  -8.644 -22.051  0.00  0.00    +0.115 C 
ATOM      9  C   UNL     1      31.449  -4.697 -22.570  0.00  0.00    +0.016 C 
ATOM     10  C   UNL     1      31.291  -5.355 -21.348  0.00  0.00    +0.016 C 
ATOM     11  C   UNL     1      31.978  -8.565 -19.905  0.00  0.00    +0.251 C 
ATOM     12  H   UNL     1      33.795  -8.807 -23.743  0.00  0.00    +0.153 HD
ENDROOT
BRANCH   4  15
ATOM     13  O   UNL     1      33.154  -3.881 -26.785  0.00  0.00    -0.448 OA
ATOM     14  N   UNL     1      34.487  -5.115 -25.400  0.00  0.00    -0.222 NA
ATOM     15  N   UNL     1      32.190  -4.694 -24.881  0.00  0.00    -0.269 N 
ATOM     16  C   UNL     1      35.272  -4.777 -26.598  0.00  0.00    +0.151 C 
ATOM     17  C   UNL     1      34.471  -3.690 -27.282  0.00  0.00    +0.233 C 
ATOM     18  C   UNL     1      33.316  -4.609 -25.642  0.00  0.00    +0.284 C 
ATOM     19  C   UNL     1      36.669  -4.334 -26.206  0.00  0.00    +0.030 C 
ATOM     20  H   UNL     1      31.391  -4.239 -25.235  0.00  0.00    +0.157 HD
ENDBRANCH   4  15
BRANCH   1  22
ATOM     21 CL   UNL     1      33.879 -12.976 -26.690  0.00  0.00    -0.079 Cl
ATOM     22  C   UNL     1      33.310 -10.737 -23.431  0.00  0.00    +0.050 C 
ATOM     23  C   UNL     1      33.556 -11.143 -24.742  0.00  0.00    +0.029 C 
ATOM     24  C   UNL     1      33.079 -11.688 -22.438  0.00  0.00    +0.018 C 
ATOM     25  C   UNL     1      33.342 -13.453 -24.066  0.00  0.00    +0.150 C 
ATOM     26  C   UNL     1      33.573 -12.501 -25.060  0.00  0.00    +0.093 C 
ATOM     27  C   UNL     1      33.095 -13.046 -22.755  0.00  0.00    +0.039 C 
BRANCH  25  28
ATOM     28  O   UNL     1      33.352 -14.787 -24.348  0.00  0.00    -0.468 OA
BRANCH  28  29
ATOM     29  C   UNL     1      34.628 -15.414 -24.463  0.00  0.00    +0.257 C 
BRANCH  29  32
ATOM     30  S   UNL     1      35.224 -17.459 -22.685  0.00  0.00    -0.067 S 
ATOM     31  N   UNL     1      33.842 -17.747 -24.850  0.00  0.00    -0.237 NA
ATOM     32  C   UNL     1      34.492 -16.868 -24.121  0.00  0.00    +0.132 C 
ATOM     33  C   UNL     1      34.629 -19.024 -23.055  0.00  0.00    +0.057 C 
ATOM     34  C   UNL     1      33.921 -18.983 -24.239  0.00  0.00    +0.106 C 
ENDBRANCH  29  32
ENDBRANCH  28  29
ENDBRANCH  25  28
ENDBRANCH   1  22
TORSDOF 5
ENDMDL
MODEL 6
REMARK VINA RESULT:      -9.6      8.753     16.846
REMARK  Name = 42642648
REMARK  5 active torsions:
REMARK  status: ('A' for Active; 'I' for Inactive)
REMARK    1  A    between atoms: N_1  and  C_22
REMARK    2  A    between atoms: C_4  and  N_15
REMARK    3  A    between atoms: C_25  and  O_28
REMARK    4  A    between atoms: O_28  and  C_29
REMARK    5  A    between atoms: C_29  and  C_32
REMARK                            x       y       z     vdW  Elec       q    Type
REMARK                         _______ _______ _______ _____ _____    ______ ____
ROOT
ATOM      1  N   UNL     1      33.855  -9.420 -23.426  0.00  0.00    -0.301 N 
ATOM      2  N   UNL     1      31.228  -6.635 -21.852  0.00  0.00    -0.248 NA
ATOM      3  N   UNL     1      32.029  -8.900 -22.035  0.00  0.00    -0.233 NA
ATOM      4  C   UNL     1      34.150  -5.334 -24.525  0.00  0.00    +0.048 C 
ATOM      5  C   UNL     1      33.091  -7.122 -23.280  0.00  0.00    +0.117 C 
ATOM      6  C   UNL     1      34.076  -6.680 -24.182  0.00  0.00    +0.001 C 
ATOM      7  C   UNL     1      32.173  -6.223 -22.715  0.00  0.00    +0.067 C 
ATOM      8  C   UNL     1      32.963  -8.453 -22.896  0.00  0.00    +0.115 C 
ATOM      9  C   UNL     1      33.246  -4.434 -23.972  0.00  0.00    +0.016 C 
ATOM     10  C   UNL     1      32.270  -4.881 -23.078  0.00  0.00    +0.016 C 
ATOM     11  C   UNL     1      31.207  -7.951 -21.559  0.00  0.00    +0.251 C 
ATOM     12  H   UNL     1      34.745  -9.061 -23.642  0.00  0.00    +0.153 HD
ENDROOT
BRANCH   4  15
ATOM     13  O   UNL     1      36.110  -4.055 -27.319  0.00  0.00    -0.448 OA
ATOM     14  N   UNL     1      33.833  -4.239 -27.329  0.00  0.00    -0.222 NA
ATOM     15  N   UNL     1      35.134  -4.884 -25.428  0.00  0.00    -0.269 N 
ATOM     16  C   UNL     1      34.240  -3.600 -28.591  0.00  0.00    +0.151 C 
ATOM     17  C   UNL     1      35.733  -3.833 -28.671  0.00  0.00    +0.233 C 
ATOM     18  C   UNL     1      34.950  -4.397 -26.686  0.00  0.00    +0.284 C 
ATOM     19  C   UNL     1      33.477  -4.201 -29.756  0.00  0.00    +0.030 C 
ATOM     20  H   UNL     1      36.066  -4.929 -25.112  0.00  0.00    +0.157 HD
ENDBRANCH   4  15
BRANCH   1  22
ATOM     21 CL   UNL     1      33.624 -14.202 -21.627  0.00  0.00    -0.079 Cl
ATOM     22  C   UNL     1      33.712 -10.789 -23.701  0.00  0.00    +0.050 C 
ATOM     23  C   UNL     1      33.734 -11.716 -22.660  0.00  0.00    +0.029 C 
ATOM     24  C   UNL     1      33.548 -11.222 -25.017  0.00  0.00    +0.018 C 
ATOM     25  C   UNL     1      33.428 -13.510 -24.250  0.00  0.00    +0.150 C 
ATOM     26  C   UNL     1      33.592 -13.076 -22.934  0.00  0.00    +0.093 C 
ATOM     27  C   UNL     1      33.406 -12.582 -25.291  0.00  0.00    +0.039 C 
BRANCH  25  28
ATOM     28  O   UNL     1      33.287 -14.832 -24.547  0.00  0.00    -0.468 OA
BRANCH  28  29
ATOM     29  C   UNL     1      34.461 -15.531 -24.960  0.00  0.00    +0.257 C 
BRANCH  29  32
ATOM     30  S   UNL     1      33.839 -18.182 -24.426  0.00  0.00    -0.067 S 
ATOM     31  N   UNL     1      35.437 -16.730 -23.005  0.00  0.00    -0.237 NA
ATOM     32  C   UNL     1      34.662 -16.720 -24.066  0.00  0.00    +0.132 C 
ATOM     33  C   UNL     1      34.572 -18.903 -23.054  0.00  0.00    +0.057 C 
ATOM     34  C   UNL     1      35.384 -17.982 -22.425  0.00  0.00    +0.106 C 
ENDBRANCH  29  32
ENDBRANCH  28  29
ENDBRANCH  25  28
ENDBRANCH   1  22
TORSDOF 5
ENDMDL
MODEL 7
REMARK VINA RESULT:      -9.5      2.311      4.581
REMARK  Name = 42642648
REMARK  5 active torsions:
REMARK  status: ('A' for Active; 'I' for Inactive)
REMARK    1  A    between atoms: N_1  and  C_22
REMARK    2  A    between atoms: C_4  and  N_15
REMARK    3  A    between atoms: C_25  and  O_28
REMARK    4  A    between atoms: O_28  and  C_29
REMARK    5  A    between atoms: C_29  and  C_32
REMARK                            x       y       z     vdW  Elec       q    Type
REMARK                         _______ _______ _______ _____ _____    ______ ____
ROOT
ATOM      1  N   UNL     1      35.806 -22.049 -16.189  0.00  0.00    -0.301 N 
ATOM      2  N   UNL     1      38.804 -24.268 -14.395  0.00  0.00    -0.248 NA
ATOM      3  N   UNL     1      38.073 -22.661 -16.035  0.00  0.00    -0.233 NA
ATOM      4  C   UNL     1      34.900 -24.690 -12.996  0.00  0.00    +0.048 C 
ATOM      5  C   UNL     1      36.485 -23.672 -14.519  0.00  0.00    +0.117 C 
ATOM      6  C   UNL     1      35.169 -23.816 -14.044  0.00  0.00    +0.001 C 
ATOM      7  C   UNL     1      37.542 -24.399 -13.949  0.00  0.00    +0.067 C 
ATOM      8  C   UNL     1      36.821 -22.816 -15.564  0.00  0.00    +0.115 C 
ATOM      9  C   UNL     1      35.939 -25.416 -12.424  0.00  0.00    +0.016 C 
ATOM     10  C   UNL     1      37.244 -25.267 -12.902  0.00  0.00    +0.016 C 
ATOM     11  C   UNL     1      39.001 -23.407 -15.413  0.00  0.00    +0.251 C 
ATOM     12  H   UNL     1      35.061 -21.814 -15.591  0.00  0.00    +0.153 HD
ENDROOT
BRANCH   4  15
ATOM     13  O   UNL     1      31.301 -24.844 -12.444  0.00  0.00    -0.448 OA
ATOM     14  N   UNL     1      32.268 -24.235 -14.421  0.00  0.00    -0.222 NA
ATOM     15  N   UNL     1      33.584 -24.840 -12.516  0.00  0.00    -0.269 N 
ATOM     16  C   UNL     1      30.811 -24.263 -14.622  0.00  0.00    +0.151 C 
ATOM     17  C   UNL     1      30.236 -24.318 -13.223  0.00  0.00    +0.233 C 
ATOM     18  C   UNL     1      32.421 -24.624 -13.192  0.00  0.00    +0.284 C 
ATOM     19  C   UNL     1      30.363 -23.044 -15.406  0.00  0.00    +0.030 C 
ATOM     20  H   UNL     1      33.493 -25.135 -11.581  0.00  0.00    +0.157 HD
ENDBRANCH   4  15
BRANCH   1  22
ATOM     21 CL   UNL     1      32.668 -20.919 -20.067  0.00  0.00    -0.079 Cl
ATOM     22  C   UNL     1      35.659 -21.560 -17.497  0.00  0.00    +0.050 C 
ATOM     23  C   UNL     1      34.392 -21.486 -18.076  0.00  0.00    +0.029 C 
ATOM     24  C   UNL     1      36.780 -21.149 -18.217  0.00  0.00    +0.018 C 
ATOM     25  C   UNL     1      35.368 -20.588 -20.096  0.00  0.00    +0.150 C 
ATOM     26  C   UNL     1      34.246 -20.999 -19.375  0.00  0.00    +0.093 C 
ATOM     27  C   UNL     1      36.635 -20.663 -19.516  0.00  0.00    +0.039 C 
BRANCH  25  28
ATOM     28  O   UNL     1      35.256 -20.109 -21.367  0.00  0.00    -0.468 OA
BRANCH  28  29
ATOM     29  C   UNL     1      35.659 -18.758 -21.587  0.00  0.00    +0.257 C 
BRANCH  29  32
ATOM     30  S   UNL     1      35.114 -16.567 -23.200  0.00  0.00    -0.067 S 
ATOM     31  N   UNL     1      34.209 -18.954 -23.605  0.00  0.00    -0.237 NA
ATOM     32  C   UNL     1      34.955 -18.229 -22.802  0.00  0.00    +0.132 C 
ATOM     33  C   UNL     1      34.104 -16.823 -24.562  0.00  0.00    +0.057 C 
ATOM     34  C   UNL     1      33.721 -18.147 -24.613  0.00  0.00    +0.106 C 
ENDBRANCH  29  32
ENDBRANCH  28  29
ENDBRANCH  25  28
ENDBRANCH   1  22
TORSDOF 5
ENDMDL
MODEL 8
REMARK VINA RESULT:      -9.1      7.180     12.339
REMARK  Name = 42642648
REMARK  5 active torsions:
REMARK  status: ('A' for Active; 'I' for Inactive)
REMARK    1  A    between atoms: N_1  and  C_22
REMARK    2  A    between atoms: C_4  and  N_15
REMARK    3  A    between atoms: C_25  and  O_28
REMARK    4  A    between atoms: O_28  and  C_29
REMARK    5  A    between atoms: C_29  and  C_32
REMARK                            x       y       z     vdW  Elec       q    Type
REMARK                         _______ _______ _______ _____ _____    ______ ____
ROOT
ATOM      1  N   UNL     1      34.076 -11.950 -23.156  0.00  0.00    -0.301 N 
ATOM      2  N   UNL     1      33.124 -14.583 -26.205  0.00  0.00    -0.248 NA
ATOM      3  N   UNL     1      33.123 -12.363 -25.268  0.00  0.00    -0.233 NA
ATOM      4  C   UNL     1      35.087 -16.057 -22.836  0.00  0.00    +0.048 C 
ATOM      5  C   UNL     1      34.105 -14.205 -24.050  0.00  0.00    +0.117 C 
ATOM      6  C   UNL     1      34.767 -14.706 -22.915  0.00  0.00    +0.001 C 
ATOM      7  C   UNL     1      33.756 -15.052 -25.115  0.00  0.00    +0.067 C 
ATOM      8  C   UNL     1      33.757 -12.865 -24.191  0.00  0.00    +0.115 C 
ATOM      9  C   UNL     1      34.746 -16.905 -23.884  0.00  0.00    +0.016 C 
ATOM     10  C   UNL     1      34.088 -16.400 -25.008  0.00  0.00    +0.016 C 
ATOM     11  C   UNL     1      32.841 -13.265 -26.222  0.00  0.00    +0.251 C 
ATOM     12  H   UNL     1      34.885 -12.190 -22.651  0.00  0.00    +0.153 HD
ENDROOT
BRANCH   4  15
ATOM     13  O   UNL     1      36.411 -17.995 -20.048  0.00  0.00    -0.448 OA
ATOM     14  N   UNL     1      34.917 -18.804 -21.575  0.00  0.00    -0.222 NA
ATOM     15  N   UNL     1      35.750 -16.565 -21.701  0.00  0.00    -0.269 N 
ATOM     16  C   UNL     1      35.276 -19.906 -20.669  0.00  0.00    +0.151 C 
ATOM     17  C   UNL     1      35.966 -19.230 -19.503  0.00  0.00    +0.233 C 
ATOM     18  C   UNL     1      35.646 -17.812 -21.164  0.00  0.00    +0.284 C 
ATOM     19  C   UNL     1      34.037 -20.681 -20.264  0.00  0.00    +0.030 C 
ATOM     20  H   UNL     1      36.361 -15.944 -21.242  0.00  0.00    +0.157 HD
ENDBRANCH   4  15
BRANCH   1  22
ATOM     21 CL   UNL     1      33.688  -6.864 -23.528  0.00  0.00    -0.079 Cl
ATOM     22  C   UNL     1      33.460 -10.768 -22.714  0.00  0.00    +0.050 C 
ATOM     23  C   UNL     1      33.827  -9.542 -23.267  0.00  0.00    +0.029 C 
ATOM     24  C   UNL     1      32.481 -10.822 -21.723  0.00  0.00    +0.018 C 
ATOM     25  C   UNL     1      32.234  -8.421 -21.836  0.00  0.00    +0.150 C 
ATOM     26  C   UNL     1      33.214  -8.368 -22.828  0.00  0.00    +0.093 C 
ATOM     27  C   UNL     1      31.868  -9.648 -21.284  0.00  0.00    +0.039 C 
BRANCH  25  28
ATOM     28  O   UNL     1      31.619  -7.290 -21.388  0.00  0.00    -0.468 OA
BRANCH  28  29
ATOM     29  C   UNL     1      32.450  -6.299 -20.785  0.00  0.00    +0.257 C 
BRANCH  29  32
ATOM     30  S   UNL     1      30.822  -4.819 -22.477  0.00  0.00    -0.067 S 
ATOM     31  N   UNL     1      32.407  -3.808 -20.703  0.00  0.00    -0.237 NA
ATOM     32  C   UNL     1      31.984  -4.940 -21.220  0.00  0.00    +0.132 C 
ATOM     33  C   UNL     1      30.877  -3.112 -22.329  0.00  0.00    +0.057 C 
ATOM     34  C   UNL     1      31.771  -2.761 -21.340  0.00  0.00    +0.106 C 
ENDBRANCH  29  32
ENDBRANCH  28  29
ENDBRANCH  25  28
ENDBRANCH   1  22
TORSDOF 5
ENDMDL
