MODEL 1
REMARK VINA RESULT:     -11.8      0.000      0.000
REMARK  Name = 9909438
REMARK  10 active torsions:
REMARK  status: ('A' for Active; 'I' for Inactive)
REMARK    1  A    between atoms: C_1  and  C_2
REMARK    2  A    between atoms: C_1  and  C_18
REMARK    3  A    between atoms: C_2  and  C_7
REMARK    4  A    between atoms: N_4  and  C_10
REMARK    5  A    between atoms: C_10  and  C_11
REMARK    6  A    between atoms: C_18  and  C_19
REMARK    7  A    between atoms: C_22  and  O_25
REMARK    8  A    between atoms: O_25  and  C_26
REMARK    9  A    between atoms: C_26  and  C_30
REMARK   10  A    between atoms: C_30  and  O_31
REMARK                            x       y       z     vdW  Elec       q    Type
REMARK                         _______ _______ _______ _____ _____    ______ ____
ROOT
ATOM      1  C   UNL     1      34.114 -22.345 -18.683  0.00  0.00    +0.014 C 
ENDROOT
BRANCH   1   2
ATOM      2  C   UNL     1      33.537 -21.035 -19.216  0.00  0.00    +0.078 C 
BRANCH   2   7
ATOM      3  O   UNL     1      37.548 -18.906 -20.511  0.00  0.00    -0.191 OA
ATOM      4  N   UNL     1      35.500 -19.171 -21.583  0.00  0.00    -0.151 N 
ATOM      5  N   UNL     1      34.332 -19.770 -21.223  0.00  0.00    -0.229 N 
ATOM      6  N   UNL     1      35.772 -20.039 -19.519  0.00  0.00    -0.308 NA
ATOM      7  C   UNL     1      34.563 -20.268 -19.976  0.00  0.00    +0.187 C 
ATOM      8  C   UNL     1      36.397 -19.323 -20.541  0.00  0.00    +0.286 C 
ATOM      9  H   UNL     1      33.502 -19.831 -21.749  0.00  0.00    +0.173 HD
BRANCH   4  10
ATOM     10  C   UNL     1      35.633 -18.516 -22.854  0.00  0.00    +0.152 C 
BRANCH  10  11
ATOM     11  C   UNL     1      35.163 -17.091 -22.805  0.00  0.00    +0.000 C 
ATOM     12  C   UNL     1      34.667 -16.492 -23.956  0.00  0.00    -0.003 C 
ATOM     13  C   UNL     1      35.230 -16.386 -21.609  0.00  0.00    -0.003 C 
ATOM     14  C   UNL     1      34.293 -14.453 -22.714  0.00  0.00    -0.022 C 
ATOM     15  C   UNL     1      34.230 -15.167 -23.910  0.00  0.00    -0.005 C 
ATOM     16  C   UNL     1      34.792 -15.063 -21.563  0.00  0.00    -0.005 C 
ATOM     17  C   UNL     1      33.826 -13.038 -22.666  0.00  0.00    +0.031 C 
ENDBRANCH  10  11
ENDBRANCH   4  10
ENDBRANCH   2   7
ENDBRANCH   1   2
BRANCH   1  18
ATOM     18  C   UNL     1      33.672 -22.635 -17.244  0.00  0.00    +0.027 C 
BRANCH  18  19
ATOM     19  C   UNL     1      34.850 -22.932 -16.352  0.00  0.00    -0.022 C 
ATOM     20  C   UNL     1      36.083 -22.369 -16.642  0.00  0.00    -0.001 C 
ATOM     21  C   UNL     1      34.680 -23.762 -15.254  0.00  0.00    -0.001 C 
ATOM     22  C   UNL     1      37.017 -23.476 -14.708  0.00  0.00    +0.139 C 
ATOM     23  C   UNL     1      37.174 -22.642 -15.816  0.00  0.00    +0.037 C 
ATOM     24  C   UNL     1      35.771 -24.037 -14.428  0.00  0.00    +0.037 C 
BRANCH  22  25
ATOM     25  O   UNL     1      38.080 -23.745 -13.903  0.00  0.00    -0.472 OA
BRANCH  25  26
ATOM     26  C   UNL     1      38.513 -25.102 -13.830  0.00  0.00    +0.221 C 
ATOM     27  C   UNL     1      38.468 -25.534 -12.367  0.00  0.00    +0.055 C 
ATOM     28  C   UNL     1      37.590 -25.940 -14.709  0.00  0.00    +0.055 C 
BRANCH  26  30
ATOM     29  O   UNL     1      40.895 -24.603 -13.788  0.00  0.00    -0.246 OA
ATOM     30  C   UNL     1      39.939 -25.107 -14.364  0.00  0.00    +0.350 C 
BRANCH  30  31
ATOM     31  O   UNL     1      40.062 -25.734 -15.562  0.00  0.00    -0.478 OA
ATOM     32  H   UNL     1      39.416 -25.605 -16.227  0.00  0.00    +0.295 HD
ENDBRANCH  30  31
ENDBRANCH  26  30
ENDBRANCH  25  26
ENDBRANCH  22  25
ENDBRANCH  18  19
ENDBRANCH   1  18
TORSDOF 10
ENDMDL
MODEL 2
REMARK VINA RESULT:     -11.7      1.238      1.625
REMARK  Name = 9909438
REMARK  10 active torsions:
REMARK  status: ('A' for Active; 'I' for Inactive)
REMARK    1  A    between atoms: C_1  and  C_2
REMARK    2  A    between atoms: C_1  and  C_18
REMARK    3  A    between atoms: C_2  and  C_7
REMARK    4  A    between atoms: N_4  and  C_10
REMARK    5  A    between atoms: C_10  and  C_11
REMARK    6  A    between atoms: C_18  and  C_19
REMARK    7  A    between atoms: C_22  and  O_25
REMARK    8  A    between atoms: O_25  and  C_26
REMARK    9  A    between atoms: C_26  and  C_30
REMARK   10  A    between atoms: C_30  and  O_31
REMARK                            x       y       z     vdW  Elec       q    Type
REMARK                         _______ _______ _______ _____ _____    ______ ____
ROOT
ATOM      1  C   UNL     1      34.204 -22.222 -18.809  0.00  0.00    +0.014 C 
ENDROOT
BRANCH   1   2
ATOM      2  C   UNL     1      33.596 -20.983 -19.462  0.00  0.00    +0.078 C 
BRANCH   2   7
ATOM      3  O   UNL     1      37.660 -18.828 -20.523  0.00  0.00    -0.191 OA
ATOM      4  N   UNL     1      35.607 -18.922 -21.615  0.00  0.00    -0.151 N 
ATOM      5  N   UNL     1      34.425 -19.526 -21.320  0.00  0.00    -0.229 N 
ATOM      6  N   UNL     1      35.856 -20.017 -19.659  0.00  0.00    -0.308 NA
ATOM      7  C   UNL     1      34.642 -20.163 -20.136  0.00  0.00    +0.187 C 
ATOM      8  C   UNL     1      36.499 -19.210 -20.597  0.00  0.00    +0.286 C 
ATOM      9  H   UNL     1      33.593 -19.508 -21.847  0.00  0.00    +0.173 HD
BRANCH   4  10
ATOM     10  C   UNL     1      35.759 -18.135 -22.806  0.00  0.00    +0.152 C 
BRANCH  10  11
ATOM     11  C   UNL     1      35.171 -16.762 -22.652  0.00  0.00    +0.000 C 
ATOM     12  C   UNL     1      34.606 -16.130 -23.753  0.00  0.00    -0.003 C 
ATOM     13  C   UNL     1      35.200 -16.137 -21.411  0.00  0.00    -0.003 C 
ATOM     14  C   UNL     1      34.084 -14.220 -22.369  0.00  0.00    -0.022 C 
ATOM     15  C   UNL     1      34.059 -14.854 -23.610  0.00  0.00    -0.005 C 
ATOM     16  C   UNL     1      34.653 -14.862 -21.269  0.00  0.00    -0.005 C 
ATOM     17  C   UNL     1      33.500 -12.856 -22.216  0.00  0.00    +0.031 C 
ENDBRANCH  10  11
ENDBRANCH   4  10
ENDBRANCH   2   7
ENDBRANCH   1   2
BRANCH   1  18
ATOM     18  C   UNL     1      33.464 -22.633 -17.531  0.00  0.00    +0.027 C 
BRANCH  18  19
ATOM     19  C   UNL     1      34.419 -22.896 -16.396  0.00  0.00    -0.022 C 
ATOM     20  C   UNL     1      35.743 -22.499 -16.514  0.00  0.00    -0.001 C 
ATOM     21  C   UNL     1      33.959 -23.530 -15.252  0.00  0.00    -0.001 C 
ATOM     22  C   UNL     1      36.178 -23.378 -14.306  0.00  0.00    +0.139 C 
ATOM     23  C   UNL     1      36.628 -22.741 -15.463  0.00  0.00    +0.037 C 
ATOM     24  C   UNL     1      34.844 -23.773 -14.201  0.00  0.00    +0.037 C 
BRANCH  22  25
ATOM     25  O   UNL     1      37.040 -23.616 -13.281  0.00  0.00    -0.472 OA
BRANCH  25  26
ATOM     26  C   UNL     1      37.551 -24.943 -13.157  0.00  0.00    +0.221 C 
ATOM     27  C   UNL     1      36.720 -25.854 -14.055  0.00  0.00    +0.055 C 
ATOM     28  C   UNL     1      39.023 -24.922 -13.557  0.00  0.00    +0.055 C 
BRANCH  26  30
ATOM     29  O   UNL     1      37.652 -24.567 -10.754  0.00  0.00    -0.246 OA
ATOM     30  C   UNL     1      37.382 -25.311 -11.689  0.00  0.00    +0.350 C 
BRANCH  30  31
ATOM     31  O   UNL     1      36.895 -26.565 -11.501  0.00  0.00    -0.478 OA
ATOM     32  H   UNL     1      37.114 -27.040 -10.724  0.00  0.00    +0.295 HD
ENDBRANCH  30  31
ENDBRANCH  26  30
ENDBRANCH  25  26
ENDBRANCH  22  25
ENDBRANCH  18  19
ENDBRANCH   1  18
TORSDOF 10
ENDMDL
MODEL 3
REMARK VINA RESULT:     -11.3      2.778      4.468
REMARK  Name = 9909438
REMARK  10 active torsions:
REMARK  status: ('A' for Active; 'I' for Inactive)
REMARK    1  A    between atoms: C_1  and  C_2
REMARK    2  A    between atoms: C_1  and  C_18
REMARK    3  A    between atoms: C_2  and  C_7
REMARK    4  A    between atoms: N_4  and  C_10
REMARK    5  A    between atoms: C_10  and  C_11
REMARK    6  A    between atoms: C_18  and  C_19
REMARK    7  A    between atoms: C_22  and  O_25
REMARK    8  A    between atoms: O_25  and  C_26
REMARK    9  A    between atoms: C_26  and  C_30
REMARK   10  A    between atoms: C_30  and  O_31
REMARK                            x       y       z     vdW  Elec       q    Type
REMARK                         _______ _______ _______ _____ _____    ______ ____
ROOT
ATOM      1  C   UNL     1      35.082 -19.461 -21.178  0.00  0.00    +0.014 C 
ENDROOT
BRANCH   1   2
ATOM      2  C   UNL     1      34.966 -19.613 -22.693  0.00  0.00    +0.078 C 
BRANCH   2   7
ATOM      3  O   UNL     1      33.337 -16.207 -25.529  0.00  0.00    -0.191 OA
ATOM      4  N   UNL     1      34.822 -16.175 -23.738  0.00  0.00    -0.151 N 
ATOM      5  N   UNL     1      35.311 -17.144 -22.917  0.00  0.00    -0.229 N 
ATOM      6  N   UNL     1      33.905 -18.139 -24.361  0.00  0.00    -0.308 NA
ATOM      7  C   UNL     1      34.723 -18.296 -23.346  0.00  0.00    +0.187 C 
ATOM      8  C   UNL     1      33.958 -16.773 -24.638  0.00  0.00    +0.286 C 
ATOM      9  H   UNL     1      35.950 -17.038 -22.175  0.00  0.00    +0.173 HD
BRANCH   4  10
ATOM     10  C   UNL     1      35.232 -14.806 -23.591  0.00  0.00    +0.152 C 
BRANCH  10  11
ATOM     11  C   UNL     1      34.313 -14.039 -22.684  0.00  0.00    +0.000 C 
ATOM     12  C   UNL     1      34.236 -14.379 -21.339  0.00  0.00    -0.003 C 
ATOM     13  C   UNL     1      33.550 -12.998 -23.199  0.00  0.00    -0.003 C 
ATOM     14  C   UNL     1      32.614 -12.620 -21.005  0.00  0.00    -0.022 C 
ATOM     15  C   UNL     1      33.382 -13.665 -20.496  0.00  0.00    -0.005 C 
ATOM     16  C   UNL     1      32.698 -12.285 -22.356  0.00  0.00    -0.005 C 
ATOM     17  C   UNL     1      31.701 -11.858 -20.103  0.00  0.00    +0.031 C 
ENDBRANCH  10  11
ENDBRANCH   4  10
ENDBRANCH   2   7
ENDBRANCH   1   2
BRANCH   1  18
ATOM     18  C   UNL     1      33.756 -19.732 -20.459  0.00  0.00    +0.027 C 
BRANCH  18  19
ATOM     19  C   UNL     1      33.895 -20.825 -19.430  0.00  0.00    -0.022 C 
ATOM     20  C   UNL     1      32.759 -21.332 -18.818  0.00  0.00    -0.001 C 
ATOM     21  C   UNL     1      35.156 -21.305 -19.113  0.00  0.00    -0.001 C 
ATOM     22  C   UNL     1      34.149 -22.836 -17.538  0.00  0.00    +0.139 C 
ATOM     23  C   UNL     1      32.886 -22.343 -17.867  0.00  0.00    +0.037 C 
ATOM     24  C   UNL     1      35.284 -22.317 -18.161  0.00  0.00    +0.037 C 
BRANCH  22  25
ATOM     25  O   UNL     1      34.275 -23.822 -16.609  0.00  0.00    -0.472 OA
BRANCH  25  26
ATOM     26  C   UNL     1      34.499 -23.417 -15.259  0.00  0.00    +0.221 C 
ATOM     27  C   UNL     1      35.537 -22.299 -15.268  0.00  0.00    +0.055 C 
ATOM     28  C   UNL     1      33.165 -22.965 -14.674  0.00  0.00    +0.055 C 
BRANCH  26  30
ATOM     29  O   UNL     1      35.923 -25.371 -14.967  0.00  0.00    -0.246 OA
ATOM     30  C   UNL     1      35.025 -24.653 -14.542  0.00  0.00    +0.350 C 
BRANCH  30  31
ATOM     31  O   UNL     1      34.399 -24.899 -13.362  0.00  0.00    -0.478 OA
ATOM     32  H   UNL     1      33.469 -24.815 -13.300  0.00  0.00    +0.295 HD
ENDBRANCH  30  31
ENDBRANCH  26  30
ENDBRANCH  25  26
ENDBRANCH  22  25
ENDBRANCH  18  19
ENDBRANCH   1  18
TORSDOF 10
ENDMDL
MODEL 4
REMARK VINA RESULT:     -11.3      5.692     13.088
REMARK  Name = 9909438
REMARK  10 active torsions:
REMARK  status: ('A' for Active; 'I' for Inactive)
REMARK    1  A    between atoms: C_1  and  C_2
REMARK    2  A    between atoms: C_1  and  C_18
REMARK    3  A    between atoms: C_2  and  C_7
REMARK    4  A    between atoms: N_4  and  C_10
REMARK    5  A    between atoms: C_10  and  C_11
REMARK    6  A    between atoms: C_18  and  C_19
REMARK    7  A    between atoms: C_22  and  O_25
REMARK    8  A    between atoms: O_25  and  C_26
REMARK    9  A    between atoms: C_26  and  C_30
REMARK   10  A    between atoms: C_30  and  O_31
REMARK                            x       y       z     vdW  Elec       q    Type
REMARK                         _______ _______ _______ _____ _____    ______ ____
ROOT
ATOM      1  C   UNL     1      33.478 -13.752 -21.032  0.00  0.00    +0.014 C 
ENDROOT
BRANCH   1   2
ATOM      2  C   UNL     1      34.421 -14.616 -20.198  0.00  0.00    +0.078 C 
BRANCH   2   7
ATOM      3  O   UNL     1      35.286 -17.715 -23.653  0.00  0.00    -0.191 OA
ATOM      4  N   UNL     1      35.719 -17.759 -21.367  0.00  0.00    -0.151 N 
ATOM      5  N   UNL     1      35.468 -16.883 -20.357  0.00  0.00    -0.229 N 
ATOM      6  N   UNL     1      34.688 -15.957 -22.250  0.00  0.00    -0.308 NA
ATOM      7  C   UNL     1      34.848 -15.827 -20.953  0.00  0.00    +0.187 C 
ATOM      8  C   UNL     1      35.239 -17.205 -22.541  0.00  0.00    +0.286 C 
ATOM      9  H   UNL     1      35.687 -16.989 -19.402  0.00  0.00    +0.173 HD
BRANCH   4  10
ATOM     10  C   UNL     1      36.366 -19.015 -21.113  0.00  0.00    +0.152 C 
BRANCH  10  11
ATOM     11  C   UNL     1      35.510 -19.931 -20.287  0.00  0.00    +0.000 C 
ATOM     12  C   UNL     1      34.127 -19.861 -20.394  0.00  0.00    -0.003 C 
ATOM     13  C   UNL     1      36.111 -20.839 -19.423  0.00  0.00    -0.003 C 
ATOM     14  C   UNL     1      33.926 -21.626 -18.757  0.00  0.00    -0.022 C 
ATOM     15  C   UNL     1      33.331 -20.713 -19.626  0.00  0.00    -0.005 C 
ATOM     16  C   UNL     1      35.316 -21.690 -18.656  0.00  0.00    -0.005 C 
ATOM     17  C   UNL     1      33.075 -22.536 -17.936  0.00  0.00    +0.031 C 
ENDBRANCH  10  11
ENDBRANCH   4  10
ENDBRANCH   2   7
ENDBRANCH   1   2
BRANCH   1  18
ATOM     18  C   UNL     1      32.333 -13.164 -20.199  0.00  0.00    +0.027 C 
BRANCH  18  19
ATOM     19  C   UNL     1      32.087 -11.716 -20.538  0.00  0.00    -0.022 C 
ATOM     20  C   UNL     1      32.386 -11.255 -21.811  0.00  0.00    -0.001 C 
ATOM     21  C   UNL     1      31.564 -10.870 -19.572  0.00  0.00    -0.001 C 
ATOM     22  C   UNL     1      31.631  -9.053 -21.164  0.00  0.00    +0.139 C 
ATOM     23  C   UNL     1      32.157  -9.915 -22.126  0.00  0.00    +0.037 C 
ATOM     24  C   UNL     1      31.335  -9.530 -19.887  0.00  0.00    +0.037 C 
BRANCH  22  25
ATOM     25  O   UNL     1      31.409  -7.746 -21.469  0.00  0.00    -0.472 OA
BRANCH  25  26
ATOM     26  C   UNL     1      32.485  -6.836 -21.249  0.00  0.00    +0.221 C 
ATOM     27  C   UNL     1      33.158  -7.210 -19.932  0.00  0.00    +0.055 C 
ATOM     28  C   UNL     1      33.439  -6.936 -22.436  0.00  0.00    +0.055 C 
BRANCH  26  30
ATOM     29  O   UNL     1      32.465  -4.415 -20.991  0.00  0.00    -0.246 OA
ATOM     30  C   UNL     1      31.846  -5.456 -21.170  0.00  0.00    +0.350 C 
BRANCH  30  31
ATOM     31  O   UNL     1      30.496  -5.479 -21.318  0.00  0.00    -0.478 OA
ATOM     32  H   UNL     1      30.017  -4.676 -21.372  0.00  0.00    +0.295 HD
ENDBRANCH  30  31
ENDBRANCH  26  30
ENDBRANCH  25  26
ENDBRANCH  22  25
ENDBRANCH  18  19
ENDBRANCH   1  18
TORSDOF 10
ENDMDL
MODEL 5
REMARK VINA RESULT:     -11.2      5.711     13.222
REMARK  Name = 9909438
REMARK  10 active torsions:
REMARK  status: ('A' for Active; 'I' for Inactive)
REMARK    1  A    between atoms: C_1  and  C_2
REMARK    2  A    between atoms: C_1  and  C_18
REMARK    3  A    between atoms: C_2  and  C_7
REMARK    4  A    between atoms: N_4  and  C_10
REMARK    5  A    between atoms: C_10  and  C_11
REMARK    6  A    between atoms: C_18  and  C_19
REMARK    7  A    between atoms: C_22  and  O_25
REMARK    8  A    between atoms: O_25  and  C_26
REMARK    9  A    between atoms: C_26  and  C_30
REMARK   10  A    between atoms: C_30  and  O_31
REMARK                            x       y       z     vdW  Elec       q    Type
REMARK                         _______ _______ _______ _____ _____    ______ ____
ROOT
ATOM      1  C   UNL     1      32.848 -13.485 -21.032  0.00  0.00    +0.014 C 
ENDROOT
BRANCH   1   2
ATOM      2  C   UNL     1      34.235 -13.993 -20.646  0.00  0.00    +0.078 C 
BRANCH   2   7
ATOM      3  O   UNL     1      34.944 -16.864 -24.327  0.00  0.00    -0.191 OA
ATOM      4  N   UNL     1      35.528 -17.026 -22.080  0.00  0.00    -0.151 N 
ATOM      5  N   UNL     1      35.323 -16.217 -21.006  0.00  0.00    -0.229 N 
ATOM      6  N   UNL     1      34.398 -15.206 -22.786  0.00  0.00    -0.308 NA
ATOM      7  C   UNL     1      34.640 -15.147 -21.498  0.00  0.00    +0.187 C 
ATOM      8  C   UNL     1      34.958 -16.420 -23.186  0.00  0.00    +0.286 C 
ATOM      9  H   UNL     1      35.607 -16.371 -20.075  0.00  0.00    +0.173 HD
BRANCH   4  10
ATOM     10  C   UNL     1      36.220 -18.277 -21.943  0.00  0.00    +0.152 C 
BRANCH  10  11
ATOM     11  C   UNL     1      35.482 -19.234 -21.052  0.00  0.00    +0.000 C 
ATOM     12  C   UNL     1      36.188 -20.000 -20.133  0.00  0.00    -0.003 C 
ATOM     13  C   UNL     1      34.101 -19.344 -21.157  0.00  0.00    -0.003 C 
ATOM     14  C   UNL     1      34.117 -21.005 -19.403  0.00  0.00    -0.022 C 
ATOM     15  C   UNL     1      35.502 -20.889 -19.304  0.00  0.00    -0.005 C 
ATOM     16  C   UNL     1      33.415 -20.233 -20.328  0.00  0.00    -0.005 C 
ATOM     17  C   UNL     1      33.384 -21.956 -18.517  0.00  0.00    +0.031 C 
ENDBRANCH  10  11
ENDBRANCH   4  10
ENDBRANCH   2   7
ENDBRANCH   1   2
BRANCH   1  18
ATOM     18  C   UNL     1      32.171 -12.711 -19.896  0.00  0.00    +0.027 C 
BRANCH  18  19
ATOM     19  C   UNL     1      31.958 -11.264 -20.260  0.00  0.00    -0.022 C 
ATOM     20  C   UNL     1      31.864 -10.315 -19.252  0.00  0.00    -0.001 C 
ATOM     21  C   UNL     1      31.862 -10.904 -21.595  0.00  0.00    -0.001 C 
ATOM     22  C   UNL     1      31.569  -8.601 -20.928  0.00  0.00    +0.139 C 
ATOM     23  C   UNL     1      31.668  -8.976 -19.588  0.00  0.00    +0.037 C 
ATOM     24  C   UNL     1      31.665  -9.564 -21.932  0.00  0.00    +0.037 C 
BRANCH  22  25
ATOM     25  O   UNL     1      31.376  -7.294 -21.257  0.00  0.00    -0.472 OA
BRANCH  25  26
ATOM     26  C   UNL     1      32.508  -6.572 -21.740  0.00  0.00    +0.221 C 
ATOM     27  C   UNL     1      32.520  -5.204 -21.064  0.00  0.00    +0.055 C 
ATOM     28  C   UNL     1      33.759  -7.386 -21.421  0.00  0.00    +0.055 C 
BRANCH  26  30
ATOM     29  O   UNL     1      31.231  -6.616 -23.812  0.00  0.00    -0.246 OA
ATOM     30  C   UNL     1      32.302  -6.444 -23.243  0.00  0.00    +0.350 C 
BRANCH  30  31
ATOM     31  O   UNL     1      33.435  -6.114 -23.916  0.00  0.00    -0.478 OA
ATOM     32  H   UNL     1      34.111  -6.751 -24.034  0.00  0.00    +0.295 HD
ENDBRANCH  30  31
ENDBRANCH  26  30
ENDBRANCH  25  26
ENDBRANCH  22  25
ENDBRANCH  18  19
ENDBRANCH   1  18
TORSDOF 10
ENDMDL
MODEL 6
REMARK VINA RESULT:     -11.2      2.277      3.337
REMARK  Name = 9909438
REMARK  10 active torsions:
REMARK  status: ('A' for Active; 'I' for Inactive)
REMARK    1  A    between atoms: C_1  and  C_2
REMARK    2  A    between atoms: C_1  and  C_18
REMARK    3  A    between atoms: C_2  and  C_7
REMARK    4  A    between atoms: N_4  and  C_10
REMARK    5  A    between atoms: C_10  and  C_11
REMARK    6  A    between atoms: C_18  and  C_19
REMARK    7  A    between atoms: C_22  and  O_25
REMARK    8  A    between atoms: O_25  and  C_26
REMARK    9  A    between atoms: C_26  and  C_30
REMARK   10  A    between atoms: C_30  and  O_31
REMARK                            x       y       z     vdW  Elec       q    Type
REMARK                         _______ _______ _______ _____ _____    ______ ____
ROOT
ATOM      1  C   UNL     1      35.105 -20.408 -19.792  0.00  0.00    +0.014 C 
ENDROOT
BRANCH   1   2
ATOM      2  C   UNL     1      36.160 -19.504 -20.424  0.00  0.00    +0.078 C 
BRANCH   2   7
ATOM      3  O   UNL     1      33.749 -18.338 -24.313  0.00  0.00    -0.191 OA
ATOM      4  N   UNL     1      35.164 -17.119 -22.925  0.00  0.00    -0.151 N 
ATOM      5  N   UNL     1      35.874 -17.439 -21.810  0.00  0.00    -0.229 N 
ATOM      6  N   UNL     1      34.776 -19.291 -22.454  0.00  0.00    -0.308 NA
ATOM      7  C   UNL     1      35.599 -18.754 -21.584  0.00  0.00    +0.187 C 
ATOM      8  C   UNL     1      34.485 -18.252 -23.339  0.00  0.00    +0.286 C 
ATOM      9  H   UNL     1      36.459 -16.850 -21.281  0.00  0.00    +0.173 HD
BRANCH   4  10
ATOM     10  C   UNL     1      35.214 -15.796 -23.479  0.00  0.00    +0.152 C 
BRANCH  10  11
ATOM     11  C   UNL     1      34.371 -14.827 -22.701  0.00  0.00    +0.000 C 
ATOM     12  C   UNL     1      34.531 -14.731 -21.324  0.00  0.00    -0.003 C 
ATOM     13  C   UNL     1      33.439 -14.039 -23.365  0.00  0.00    -0.003 C 
ATOM     14  C   UNL     1      32.811 -13.036 -21.259  0.00  0.00    -0.022 C 
ATOM     15  C   UNL     1      33.748 -13.830 -20.601  0.00  0.00    -0.005 C 
ATOM     16  C   UNL     1      32.656 -13.140 -22.642  0.00  0.00    -0.005 C 
ATOM     17  C   UNL     1      31.973 -12.074 -20.485  0.00  0.00    +0.031 C 
ENDBRANCH  10  11
ENDBRANCH   4  10
ENDBRANCH   2   7
ENDBRANCH   1   2
BRANCH   1  18
ATOM     18  C   UNL     1      35.649 -21.805 -19.471  0.00  0.00    +0.027 C 
BRANCH  18  19
ATOM     19  C   UNL     1      35.619 -22.085 -17.990  0.00  0.00    -0.022 C 
ATOM     20  C   UNL     1      36.723 -21.766 -17.214  0.00  0.00    -0.001 C 
ATOM     21  C   UNL     1      34.487 -22.656 -17.428  0.00  0.00    -0.001 C 
ATOM     22  C   UNL     1      35.563 -22.598 -15.265  0.00  0.00    +0.139 C 
ATOM     23  C   UNL     1      36.696 -22.024 -15.844  0.00  0.00    +0.037 C 
ATOM     24  C   UNL     1      34.460 -22.915 -16.057  0.00  0.00    +0.037 C 
BRANCH  22  25
ATOM     25  O   UNL     1      35.536 -22.852 -13.929  0.00  0.00    -0.472 OA
BRANCH  25  26
ATOM     26  C   UNL     1      36.032 -24.118 -13.498  0.00  0.00    +0.221 C 
ATOM     27  C   UNL     1      35.677 -25.151 -14.562  0.00  0.00    +0.055 C 
ATOM     28  C   UNL     1      37.539 -23.990 -13.295  0.00  0.00    +0.055 C 
BRANCH  26  30
ATOM     29  O   UNL     1      34.317 -23.827 -11.794  0.00  0.00    -0.246 OA
ATOM     30  C   UNL     1      35.321 -24.411 -12.184  0.00  0.00    +0.350 C 
BRANCH  30  31
ATOM     31  O   UNL     1      35.910 -25.400 -11.462  0.00  0.00    -0.478 OA
ATOM     32  H   UNL     1      36.261 -25.216 -10.614  0.00  0.00    +0.295 HD
ENDBRANCH  30  31
ENDBRANCH  26  30
ENDBRANCH  25  26
ENDBRANCH  22  25
ENDBRANCH  18  19
ENDBRANCH   1  18
TORSDOF 10
ENDMDL
MODEL 7
REMARK VINA RESULT:     -11.1      2.287      3.343
REMARK  Name = 9909438
REMARK  10 active torsions:
REMARK  status: ('A' for Active; 'I' for Inactive)
REMARK    1  A    between atoms: C_1  and  C_2
REMARK    2  A    between atoms: C_1  and  C_18
REMARK    3  A    between atoms: C_2  and  C_7
REMARK    4  A    between atoms: N_4  and  C_10
REMARK    5  A    between atoms: C_10  and  C_11
REMARK    6  A    between atoms: C_18  and  C_19
REMARK    7  A    between atoms: C_22  and  O_25
REMARK    8  A    between atoms: O_25  and  C_26
REMARK    9  A    between atoms: C_26  and  C_30
REMARK   10  A    between atoms: C_30  and  O_31
REMARK                            x       y       z     vdW  Elec       q    Type
REMARK                         _______ _______ _______ _____ _____    ______ ____
ROOT
ATOM      1  C   UNL     1      35.197 -20.372 -19.777  0.00  0.00    +0.014 C 
ENDROOT
BRANCH   1   2
ATOM      2  C   UNL     1      36.259 -19.512 -20.456  0.00  0.00    +0.078 C 
BRANCH   2   7
ATOM      3  O   UNL     1      33.757 -18.256 -24.258  0.00  0.00    -0.191 OA
ATOM      4  N   UNL     1      35.237 -17.081 -22.901  0.00  0.00    -0.151 N 
ATOM      5  N   UNL     1      35.975 -17.427 -21.811  0.00  0.00    -0.229 N 
ATOM      6  N   UNL     1      34.820 -19.249 -22.441  0.00  0.00    -0.308 NA
ATOM      7  C   UNL     1      35.679 -18.739 -21.590  0.00  0.00    +0.187 C 
ATOM      8  C   UNL     1      34.524 -18.196 -23.305  0.00  0.00    +0.286 C 
ATOM      9  H   UNL     1      36.587 -16.855 -21.294  0.00  0.00    +0.173 HD
BRANCH   4  10
ATOM     10  C   UNL     1      35.298 -15.753 -23.443  0.00  0.00    +0.152 C 
BRANCH  10  11
ATOM     11  C   UNL     1      34.409 -14.800 -22.698  0.00  0.00    +0.000 C 
ATOM     12  C   UNL     1      33.478 -14.042 -23.397  0.00  0.00    -0.003 C 
ATOM     13  C   UNL     1      34.526 -14.686 -21.318  0.00  0.00    -0.003 C 
ATOM     14  C   UNL     1      32.761 -13.036 -21.321  0.00  0.00    -0.022 C 
ATOM     15  C   UNL     1      32.650 -13.156 -22.705  0.00  0.00    -0.005 C 
ATOM     16  C   UNL     1      33.699 -13.801 -20.627  0.00  0.00    -0.005 C 
ATOM     17  C   UNL     1      31.877 -12.089 -20.581  0.00  0.00    +0.031 C 
ENDBRANCH  10  11
ENDBRANCH   4  10
ENDBRANCH   2   7
ENDBRANCH   1   2
BRANCH   1  18
ATOM     18  C   UNL     1      35.708 -21.778 -19.443  0.00  0.00    +0.027 C 
BRANCH  18  19
ATOM     19  C   UNL     1      35.681 -22.041 -17.959  0.00  0.00    -0.022 C 
ATOM     20  C   UNL     1      34.554 -22.614 -17.390  0.00  0.00    -0.001 C 
ATOM     21  C   UNL     1      36.784 -21.708 -17.188  0.00  0.00    -0.001 C 
ATOM     22  C   UNL     1      35.632 -22.529 -15.230  0.00  0.00    +0.139 C 
ATOM     23  C   UNL     1      34.528 -22.860 -16.018  0.00  0.00    +0.037 C 
ATOM     24  C   UNL     1      36.759 -21.952 -15.815  0.00  0.00    +0.037 C 
BRANCH  22  25
ATOM     25  O   UNL     1      35.607 -22.766 -13.890  0.00  0.00    -0.472 OA
BRANCH  25  26
ATOM     26  C   UNL     1      36.026 -24.058 -13.452  0.00  0.00    +0.221 C 
ATOM     27  C   UNL     1      35.640 -25.069 -14.527  0.00  0.00    +0.055 C 
ATOM     28  C   UNL     1      37.532 -24.011 -13.215  0.00  0.00    +0.055 C 
BRANCH  26  30
ATOM     29  O   UNL     1      35.648 -25.078 -11.274  0.00  0.00    -0.246 OA
ATOM     30  C   UNL     1      35.270 -24.315 -12.155  0.00  0.00    +0.350 C 
BRANCH  30  31
ATOM     31  O   UNL     1      34.114 -23.609 -12.056  0.00  0.00    -0.478 OA
ATOM     32  H   UNL     1      34.103 -22.697 -12.270  0.00  0.00    +0.295 HD
ENDBRANCH  30  31
ENDBRANCH  26  30
ENDBRANCH  25  26
ENDBRANCH  22  25
ENDBRANCH  18  19
ENDBRANCH   1  18
TORSDOF 10
ENDMDL
MODEL 8
REMARK VINA RESULT:     -11.1      4.977     12.832
REMARK  Name = 9909438
REMARK  10 active torsions:
REMARK  status: ('A' for Active; 'I' for Inactive)
REMARK    1  A    between atoms: C_1  and  C_2
REMARK    2  A    between atoms: C_1  and  C_18
REMARK    3  A    between atoms: C_2  and  C_7
REMARK    4  A    between atoms: N_4  and  C_10
REMARK    5  A    between atoms: C_10  and  C_11
REMARK    6  A    between atoms: C_18  and  C_19
REMARK    7  A    between atoms: C_22  and  O_25
REMARK    8  A    between atoms: O_25  and  C_26
REMARK    9  A    between atoms: C_26  and  C_30
REMARK   10  A    between atoms: C_30  and  O_31
REMARK                            x       y       z     vdW  Elec       q    Type
REMARK                         _______ _______ _______ _____ _____    ______ ____
ROOT
ATOM      1  C   UNL     1      33.396 -13.935 -23.693  0.00  0.00    +0.014 C 
ENDROOT
BRANCH   1   2
ATOM      2  C   UNL     1      34.180 -15.180 -24.101  0.00  0.00    +0.078 C 
BRANCH   2   7
ATOM      3  O   UNL     1      35.329 -16.338 -19.670  0.00  0.00    -0.191 OA
ATOM      4  N   UNL     1      35.743 -17.369 -21.714  0.00  0.00    -0.151 N 
ATOM      5  N   UNL     1      35.431 -17.046 -22.999  0.00  0.00    -0.229 N 
ATOM      6  N   UNL     1      34.586 -15.433 -21.682  0.00  0.00    -0.308 NA
ATOM      7  C   UNL     1      34.740 -15.876 -22.908  0.00  0.00    +0.187 C 
ATOM      8  C   UNL     1      35.234 -16.381 -20.890  0.00  0.00    +0.286 C 
ATOM      9  H   UNL     1      35.654 -17.548 -23.816  0.00  0.00    +0.173 HD
BRANCH   4  10
ATOM     10  C   UNL     1      36.492 -18.556 -21.412  0.00  0.00    +0.152 C 
BRANCH  10  11
ATOM     11  C   UNL     1      35.692 -19.535 -20.602  0.00  0.00    +0.000 C 
ATOM     12  C   UNL     1      36.340 -20.381 -19.711  0.00  0.00    -0.003 C 
ATOM     13  C   UNL     1      34.311 -19.586 -20.753  0.00  0.00    -0.003 C 
ATOM     14  C   UNL     1      34.211 -21.348 -19.103  0.00  0.00    -0.022 C 
ATOM     15  C   UNL     1      35.596 -21.291 -18.958  0.00  0.00    -0.005 C 
ATOM     16  C   UNL     1      33.568 -20.495 -20.001  0.00  0.00    -0.005 C 
ATOM     17  C   UNL     1      33.417 -22.320 -18.299  0.00  0.00    +0.031 C 
ENDBRANCH  10  11
ENDBRANCH   4  10
ENDBRANCH   2   7
ENDBRANCH   1   2
BRANCH   1  18
ATOM     18  C   UNL     1      34.207 -12.647 -23.878  0.00  0.00    +0.027 C 
BRANCH  18  19
ATOM     19  C   UNL     1      33.506 -11.458 -23.273  0.00  0.00    -0.022 C 
ATOM     20  C   UNL     1      33.644 -10.212 -23.866  0.00  0.00    -0.001 C 
ATOM     21  C   UNL     1      32.734 -11.629 -22.134  0.00  0.00    -0.001 C 
ATOM     22  C   UNL     1      32.215  -9.270 -22.162  0.00  0.00    +0.139 C 
ATOM     23  C   UNL     1      32.995  -9.111 -23.308  0.00  0.00    +0.037 C 
ATOM     24  C   UNL     1      32.085 -10.528 -21.574  0.00  0.00    +0.037 C 
BRANCH  22  25
ATOM     25  O   UNL     1      31.583  -8.196 -21.615  0.00  0.00    -0.472 OA
BRANCH  25  26
ATOM     26  C   UNL     1      32.406  -7.161 -21.078  0.00  0.00    +0.221 C 
ATOM     27  C   UNL     1      33.706  -7.131 -21.876  0.00  0.00    +0.055 C 
ATOM     28  C   UNL     1      31.636  -5.847 -21.175  0.00  0.00    +0.055 C 
BRANCH  26  30
ATOM     29  O   UNL     1      31.925  -8.277 -18.969  0.00  0.00    -0.246 OA
ATOM     30  C   UNL     1      32.657  -7.548 -19.627  0.00  0.00    +0.350 C 
BRANCH  30  31
ATOM     31  O   UNL     1      33.790  -7.003 -19.113  0.00  0.00    -0.478 OA
ATOM     32  H   UNL     1      33.751  -6.502 -18.323  0.00  0.00    +0.295 HD
ENDBRANCH  30  31
ENDBRANCH  26  30
ENDBRANCH  25  26
ENDBRANCH  22  25
ENDBRANCH  18  19
ENDBRANCH   1  18
TORSDOF 10
ENDMDL
MODEL 9
REMARK VINA RESULT:     -10.9      5.489     13.196
REMARK  Name = 9909438
REMARK  10 active torsions:
REMARK  status: ('A' for Active; 'I' for Inactive)
REMARK    1  A    between atoms: C_1  and  C_2
REMARK    2  A    between atoms: C_1  and  C_18
REMARK    3  A    between atoms: C_2  and  C_7
REMARK    4  A    between atoms: N_4  and  C_10
REMARK    5  A    between atoms: C_10  and  C_11
REMARK    6  A    between atoms: C_18  and  C_19
REMARK    7  A    between atoms: C_22  and  O_25
REMARK    8  A    between atoms: O_25  and  C_26
REMARK    9  A    between atoms: C_26  and  C_30
REMARK   10  A    between atoms: C_30  and  O_31
REMARK                            x       y       z     vdW  Elec       q    Type
REMARK                         _______ _______ _______ _____ _____    ______ ____
ROOT
ATOM      1  C   UNL     1      33.323 -13.857 -23.800  0.00  0.00    +0.014 C 
ENDROOT
BRANCH   1   2
ATOM      2  C   UNL     1      34.072 -15.126 -24.198  0.00  0.00    +0.078 C 
BRANCH   2   7
ATOM      3  O   UNL     1      35.243 -16.252 -19.765  0.00  0.00    -0.191 OA
ATOM      4  N   UNL     1      35.701 -17.264 -21.809  0.00  0.00    -0.151 N 
ATOM      5  N   UNL     1      35.383 -16.950 -23.094  0.00  0.00    -0.229 N 
ATOM      6  N   UNL     1      34.478 -15.369 -21.778  0.00  0.00    -0.308 NA
ATOM      7  C   UNL     1      34.652 -15.804 -23.004  0.00  0.00    +0.187 C 
ATOM      8  C   UNL     1      35.155 -16.296 -20.985  0.00  0.00    +0.286 C 
ATOM      9  H   UNL     1      35.626 -17.443 -23.911  0.00  0.00    +0.173 HD
BRANCH   4  10
ATOM     10  C   UNL     1      36.489 -18.425 -21.506  0.00  0.00    +0.152 C 
BRANCH  10  11
ATOM     11  C   UNL     1      35.725 -19.426 -20.688  0.00  0.00    +0.000 C 
ATOM     12  C   UNL     1      34.344 -19.509 -20.821  0.00  0.00    -0.003 C 
ATOM     13  C   UNL     1      36.405 -20.257 -19.806  0.00  0.00    -0.003 C 
ATOM     14  C   UNL     1      34.308 -21.277 -19.175  0.00  0.00    -0.022 C 
ATOM     15  C   UNL     1      33.633 -20.440 -20.061  0.00  0.00    -0.005 C 
ATOM     16  C   UNL     1      35.694 -21.186 -19.047  0.00  0.00    -0.005 C 
ATOM     17  C   UNL     1      33.548 -22.271 -18.362  0.00  0.00    +0.031 C 
ENDBRANCH  10  11
ENDBRANCH   4  10
ENDBRANCH   2   7
ENDBRANCH   1   2
BRANCH   1  18
ATOM     18  C   UNL     1      34.270 -12.694 -23.482  0.00  0.00    +0.027 C 
BRANCH  18  19
ATOM     19  C   UNL     1      33.514 -11.464 -23.052  0.00  0.00    -0.022 C 
ATOM     20  C   UNL     1      32.657 -11.538 -21.963  0.00  0.00    -0.001 C 
ATOM     21  C   UNL     1      33.688 -10.278 -23.749  0.00  0.00    -0.001 C 
ATOM     22  C   UNL     1      32.124  -9.200 -22.256  0.00  0.00    +0.139 C 
ATOM     23  C   UNL     1      31.958 -10.399 -21.563  0.00  0.00    +0.037 C 
ATOM     24  C   UNL     1      32.987  -9.139 -23.350  0.00  0.00    +0.037 C 
BRANCH  22  25
ATOM     25  O   UNL     1      31.440  -8.089 -21.868  0.00  0.00    -0.472 OA
BRANCH  25  26
ATOM     26  C   UNL     1      32.089  -7.218 -20.943  0.00  0.00    +0.221 C 
ATOM     27  C   UNL     1      31.795  -7.722 -19.533  0.00  0.00    +0.055 C 
ATOM     28  C   UNL     1      33.582  -7.221 -21.259  0.00  0.00    +0.055 C 
BRANCH  26  30
ATOM     29  O   UNL     1      30.299  -5.645 -21.440  0.00  0.00    -0.246 OA
ATOM     30  C   UNL     1      31.479  -5.843 -21.176  0.00  0.00    +0.350 C 
BRANCH  30  31
ATOM     31  O   UNL     1      32.376  -4.829 -21.065  0.00  0.00    -0.478 OA
ATOM     32  H   UNL     1      32.415  -4.165 -21.724  0.00  0.00    +0.295 HD
ENDBRANCH  30  31
ENDBRANCH  26  30
ENDBRANCH  25  26
ENDBRANCH  22  25
ENDBRANCH  18  19
ENDBRANCH   1  18
TORSDOF 10
ENDMDL
