MODEL 1
REMARK VINA RESULT:     -12.5      0.000      0.000
REMARK  Name = 448890
REMARK  6 active torsions:
REMARK  status: ('A' for Active; 'I' for Inactive)
REMARK    1  A    between atoms: C_1  and  C_2
REMARK    2  A    between atoms: C_1  and  C_17
REMARK    3  A    between atoms: C_2  and  C_3
REMARK    4  A    between atoms: C_3  and  N_4
REMARK    5  A    between atoms: C_8  and  C_11
REMARK    6  A    between atoms: C_17  and  N_21
REMARK                            x       y       z     vdW  Elec       q    Type
REMARK                         _______ _______ _______ _____ _____    ______ ____
ROOT
ATOM      1  C   UNL     1      33.236 -14.352 -24.608  0.00  0.00    +0.022 C 
ENDROOT
BRANCH   1   2
ATOM      2  C   UNL     1      33.718 -15.796 -24.781  0.00  0.00    -0.021 C 
BRANCH   2   3
ATOM      3  C   UNL     1      35.177 -15.944 -24.352  0.00  0.00    -0.077 C 
BRANCH   3   4
ATOM      4  N   UNL     1      35.318 -17.048 -23.405  0.00  0.00    +0.390 N 
ATOM      5  C   UNL     1      35.217 -16.574 -22.021  0.00  0.00    -0.072 C 
ATOM      6  C   UNL     1      34.315 -18.092 -23.670  0.00  0.00    -0.051 C 
ATOM      7  C   UNL     1      35.533 -17.723 -21.052  0.00  0.00    +0.003 C 
ATOM      8  C   UNL     1      34.790 -18.997 -21.384  0.00  0.00    -0.031 C 
ATOM      9  C   UNL     1      34.231 -19.148 -22.601  0.00  0.00    -0.053 C 
ATOM     10  H   UNL     1      36.245 -17.454 -23.531  0.00  0.00    -0.079 HD
BRANCH   8  11
ATOM     11  C   UNL     1      34.705 -20.054 -20.347  0.00  0.00    -0.004 C 
ATOM     12  C   UNL     1      33.460 -20.500 -19.901  0.00  0.00    -0.000 C 
ATOM     13  C   UNL     1      35.872 -20.607 -19.814  0.00  0.00    -0.000 C 
ATOM     14  C   UNL     1      33.380 -21.494 -18.926  0.00  0.00    -0.000 C 
ATOM     15  C   UNL     1      35.792 -21.601 -18.838  0.00  0.00    -0.000 C 
ATOM     16  C   UNL     1      34.547 -22.045 -18.394  0.00  0.00    -0.000 C 
ENDBRANCH   8  11
ENDBRANCH   3   4
ENDBRANCH   2   3
ENDBRANCH   1   2
BRANCH   1  17
ATOM     17  C   UNL     1      34.218 -13.497 -23.814  0.00  0.00    +0.110 C 
BRANCH  17  21
ATOM     18  F   UNL     1      31.226  -9.481 -20.260  0.00  0.00    -0.204 F 
ATOM     19  O   UNL     1      34.387 -11.190 -25.419  0.00  0.00    -0.246 OA
ATOM     20  O   UNL     1      32.099  -8.566 -22.452  0.00  0.00    -0.267 OA
ATOM     21  N   UNL     1      33.657 -12.198 -23.449  0.00  0.00    -0.281 N 
ATOM     22  N   UNL     1      33.243  -9.916 -23.916  0.00  0.00    -0.274 N 
ATOM     23  C   UNL     1      32.971 -12.060 -22.202  0.00  0.00    +0.071 A 
ATOM     24  C   UNL     1      33.805 -11.121 -24.333  0.00  0.00    +0.330 A 
ATOM     25  C   UNL     1      32.427 -10.823 -21.835  0.00  0.00    +0.099 A 
ATOM     26  C   UNL     1      32.820 -13.137 -21.312  0.00  0.00    +0.018 C 
ATOM     27  C   UNL     1      32.561  -9.666 -22.737  0.00  0.00    +0.265 A 
ATOM     28  C   UNL     1      31.751 -10.661 -20.618  0.00  0.00    +0.146 C 
ATOM     29  C   UNL     1      32.146 -12.978 -20.098  0.00  0.00    +0.004 C 
ATOM     30  C   UNL     1      31.611 -11.741 -19.751  0.00  0.00    +0.030 C 
ATOM     31  H   UNL     1      33.343  -9.154 -24.531  0.00  0.00    +0.173 HD
ENDBRANCH  17  21
ENDBRANCH   1  17
TORSDOF 6
ENDMDL
MODEL 2
REMARK VINA RESULT:     -12.0      1.616      2.426
REMARK  Name = 448890
REMARK  6 active torsions:
REMARK  status: ('A' for Active; 'I' for Inactive)
REMARK    1  A    between atoms: C_1  and  C_2
REMARK    2  A    between atoms: C_1  and  C_17
REMARK    3  A    between atoms: C_2  and  C_3
REMARK    4  A    between atoms: C_3  and  N_4
REMARK    5  A    between atoms: C_8  and  C_11
REMARK    6  A    between atoms: C_17  and  N_21
REMARK                            x       y       z     vdW  Elec       q    Type
REMARK                         _______ _______ _______ _____ _____    ______ ____
ROOT
ATOM      1  C   UNL     1      33.495 -13.932 -24.092  0.00  0.00    +0.022 C 
ENDROOT
BRANCH   1   2
ATOM      2  C   UNL     1      33.826 -15.415 -24.293  0.00  0.00    -0.021 C 
BRANCH   2   3
ATOM      3  C   UNL     1      35.300 -15.693 -24.004  0.00  0.00    -0.077 C 
BRANCH   3   4
ATOM      4  N   UNL     1      35.433 -16.839 -23.107  0.00  0.00    +0.390 N 
ATOM      5  C   UNL     1      35.206 -16.447 -21.712  0.00  0.00    -0.072 C 
ATOM      6  C   UNL     1      34.512 -17.917 -23.499  0.00  0.00    -0.051 C 
ATOM      7  C   UNL     1      35.514 -17.629 -20.781  0.00  0.00    +0.003 C 
ATOM      8  C   UNL     1      34.869 -18.920 -21.232  0.00  0.00    -0.031 C 
ATOM      9  C   UNL     1      34.410 -19.033 -22.494  0.00  0.00    -0.053 C 
ATOM     10  H   UNL     1      36.388 -17.189 -23.183  0.00  0.00    -0.079 HD
BRANCH   8  11
ATOM     11  C   UNL     1      34.769 -20.034 -20.259  0.00  0.00    -0.004 C 
ATOM     12  C   UNL     1      33.517 -20.518 -19.874  0.00  0.00    -0.000 C 
ATOM     13  C   UNL     1      35.927 -20.605 -19.725  0.00  0.00    -0.000 C 
ATOM     14  C   UNL     1      33.423 -21.566 -18.959  0.00  0.00    -0.000 C 
ATOM     15  C   UNL     1      35.832 -21.653 -18.810  0.00  0.00    -0.000 C 
ATOM     16  C   UNL     1      34.580 -22.134 -18.426  0.00  0.00    -0.000 C 
ENDBRANCH   8  11
ENDBRANCH   3   4
ENDBRANCH   2   3
ENDBRANCH   1   2
BRANCH   1  17
ATOM     17  C   UNL     1      34.179 -13.341 -22.863  0.00  0.00    +0.110 C 
BRANCH  17  21
ATOM     18  F   UNL     1      31.222  -8.208 -21.244  0.00  0.00    -0.204 F 
ATOM     19  O   UNL     1      32.716 -14.287 -20.651  0.00  0.00    -0.246 OA
ATOM     20  O   UNL     1      30.741 -10.245 -19.821  0.00  0.00    -0.267 OA
ATOM     21  N   UNL     1      33.273 -12.519 -22.064  0.00  0.00    -0.281 N 
ATOM     22  N   UNL     1      31.754 -12.257 -20.270  0.00  0.00    -0.274 N 
ATOM     23  C   UNL     1      33.099 -11.141 -22.403  0.00  0.00    +0.071 A 
ATOM     24  C   UNL     1      32.599 -13.104 -20.984  0.00  0.00    +0.330 A 
ATOM     25  C   UNL     1      32.235 -10.337 -21.649  0.00  0.00    +0.099 A 
ATOM     26  C   UNL     1      33.773 -10.549 -23.485  0.00  0.00    +0.018 C 
ATOM     27  C   UNL     1      31.508 -10.915 -20.505  0.00  0.00    +0.265 A 
ATOM     28  C   UNL     1      32.046  -8.984 -21.961  0.00  0.00    +0.146 C 
ATOM     29  C   UNL     1      33.587  -9.200 -23.798  0.00  0.00    +0.004 C 
ATOM     30  C   UNL     1      32.725  -8.418 -23.037  0.00  0.00    +0.030 C 
ATOM     31  H   UNL     1      31.275 -12.659 -19.510  0.00  0.00    +0.173 HD
ENDBRANCH  17  21
ENDBRANCH   1  17
TORSDOF 6
ENDMDL
MODEL 3
REMARK VINA RESULT:     -11.9      1.028      1.491
REMARK  Name = 448890
REMARK  6 active torsions:
REMARK  status: ('A' for Active; 'I' for Inactive)
REMARK    1  A    between atoms: C_1  and  C_2
REMARK    2  A    between atoms: C_1  and  C_17
REMARK    3  A    between atoms: C_2  and  C_3
REMARK    4  A    between atoms: C_3  and  N_4
REMARK    5  A    between atoms: C_8  and  C_11
REMARK    6  A    between atoms: C_17  and  N_21
REMARK                            x       y       z     vdW  Elec       q    Type
REMARK                         _______ _______ _______ _____ _____    ______ ____
ROOT
ATOM      1  C   UNL     1      34.312 -13.474 -23.196  0.00  0.00    +0.022 C 
ENDROOT
BRANCH   1   2
ATOM      2  C   UNL     1      34.057 -14.953 -23.507  0.00  0.00    -0.021 C 
BRANCH   2   3
ATOM      3  C   UNL     1      35.367 -15.692 -23.779  0.00  0.00    -0.077 C 
BRANCH   3   4
ATOM      4  N   UNL     1      35.474 -16.867 -22.916  0.00  0.00    +0.390 N 
ATOM      5  C   UNL     1      35.264 -16.511 -21.510  0.00  0.00    -0.072 C 
ATOM      6  C   UNL     1      34.525 -17.909 -23.335  0.00  0.00    -0.051 C 
ATOM      7  C   UNL     1      35.547 -17.728 -20.616  0.00  0.00    +0.003 C 
ATOM      8  C   UNL     1      34.866 -18.988 -21.101  0.00  0.00    -0.031 C 
ATOM      9  C   UNL     1      34.398 -19.051 -22.363  0.00  0.00    -0.053 C 
ATOM     10  H   UNL     1      36.420 -17.238 -23.008  0.00  0.00    -0.079 HD
BRANCH   8  11
ATOM     11  C   UNL     1      34.742 -20.127 -20.161  0.00  0.00    -0.004 C 
ATOM     12  C   UNL     1      35.886 -20.723 -19.627  0.00  0.00    -0.000 C 
ATOM     13  C   UNL     1      33.479 -20.608 -19.806  0.00  0.00    -0.000 C 
ATOM     14  C   UNL     1      35.768 -21.795 -18.742  0.00  0.00    -0.000 C 
ATOM     15  C   UNL     1      33.362 -21.680 -18.922  0.00  0.00    -0.000 C 
ATOM     16  C   UNL     1      34.506 -22.274 -18.389  0.00  0.00    -0.000 C 
ENDBRANCH   8  11
ENDBRANCH   3   4
ENDBRANCH   2   3
ENDBRANCH   1   2
BRANCH   1  17
ATOM     17  C   UNL     1      33.307 -12.550 -23.878  0.00  0.00    +0.110 C 
BRANCH  17  21
ATOM     18  F   UNL     1      32.088  -7.830 -20.143  0.00  0.00    -0.204 F 
ATOM     19  O   UNL     1      34.862 -10.542 -25.091  0.00  0.00    -0.246 OA
ATOM     20  O   UNL     1      33.668  -7.334 -22.057  0.00  0.00    -0.267 OA
ATOM     21  N   UNL     1      33.398 -11.176 -23.393  0.00  0.00    -0.281 N 
ATOM     22  N   UNL     1      34.243  -8.972 -23.560  0.00  0.00    -0.274 N 
ATOM     23  C   UNL     1      32.660 -10.796 -22.229  0.00  0.00    +0.071 A 
ATOM     24  C   UNL     1      34.208 -10.263 -24.083  0.00  0.00    +0.330 A 
ATOM     25  C   UNL     1      32.735  -9.483 -21.749  0.00  0.00    +0.099 A 
ATOM     26  C   UNL     1      31.847 -11.707 -21.532  0.00  0.00    +0.018 C 
ATOM     27  C   UNL     1      33.575  -8.494 -22.447  0.00  0.00    +0.265 A 
ATOM     28  C   UNL     1      32.022  -9.086 -20.609  0.00  0.00    +0.146 C 
ATOM     29  C   UNL     1      31.135 -11.313 -20.396  0.00  0.00    +0.004 C 
ATOM     30  C   UNL     1      31.222 -10.004 -19.935  0.00  0.00    +0.030 C 
ATOM     31  H   UNL     1      34.810  -8.324 -24.039  0.00  0.00    +0.173 HD
ENDBRANCH  17  21
ENDBRANCH   1  17
TORSDOF 6
ENDMDL
MODEL 4
REMARK VINA RESULT:     -11.7      8.030     12.763
REMARK  Name = 448890
REMARK  6 active torsions:
REMARK  status: ('A' for Active; 'I' for Inactive)
REMARK    1  A    between atoms: C_1  and  C_2
REMARK    2  A    between atoms: C_1  and  C_17
REMARK    3  A    between atoms: C_2  and  C_3
REMARK    4  A    between atoms: C_3  and  N_4
REMARK    5  A    between atoms: C_8  and  C_11
REMARK    6  A    between atoms: C_17  and  N_21
REMARK                            x       y       z     vdW  Elec       q    Type
REMARK                         _______ _______ _______ _____ _____    ______ ____
ROOT
ATOM      1  C   UNL     1      33.744 -23.478 -15.809  0.00  0.00    +0.022 C 
ENDROOT
BRANCH   1   2
ATOM      2  C   UNL     1      33.740 -22.793 -17.180  0.00  0.00    -0.021 C 
BRANCH   2   3
ATOM      3  C   UNL     1      35.154 -22.395 -17.600  0.00  0.00    -0.077 C 
BRANCH   3   4
ATOM      4  N   UNL     1      35.112 -21.221 -18.470  0.00  0.00    +0.390 N 
ATOM      5  C   UNL     1      36.265 -21.194 -19.375  0.00  0.00    -0.072 C 
ATOM      6  C   UNL     1      33.854 -21.180 -19.230  0.00  0.00    -0.051 C 
ATOM      7  C   UNL     1      36.283 -19.871 -20.156  0.00  0.00    +0.003 C 
ATOM      8  C   UNL     1      34.942 -19.524 -20.762  0.00  0.00    -0.031 C 
ATOM      9  C   UNL     1      33.829 -20.143 -20.320  0.00  0.00    -0.053 C 
ATOM     10  H   UNL     1      35.158 -20.391 -17.878  0.00  0.00    -0.079 HD
BRANCH   8  11
ATOM     11  C   UNL     1      34.895 -18.497 -21.829  0.00  0.00    -0.004 C 
ATOM     12  C   UNL     1      35.399 -17.217 -21.593  0.00  0.00    -0.000 C 
ATOM     13  C   UNL     1      34.348 -18.808 -23.077  0.00  0.00    -0.000 C 
ATOM     14  C   UNL     1      35.356 -16.251 -22.598  0.00  0.00    -0.000 C 
ATOM     15  C   UNL     1      34.305 -17.841 -24.082  0.00  0.00    -0.000 C 
ATOM     16  C   UNL     1      34.809 -16.563 -23.843  0.00  0.00    -0.000 C 
ENDBRANCH   8  11
ENDBRANCH   3   4
ENDBRANCH   2   3
ENDBRANCH   1   2
BRANCH   1  17
ATOM     17  C   UNL     1      34.552 -22.706 -14.770  0.00  0.00    +0.110 C 
BRANCH  17  21
ATOM     18  F   UNL     1      39.102 -25.981 -12.263  0.00  0.00    -0.204 F 
ATOM     19  O   UNL     1      33.227 -23.756 -12.520  0.00  0.00    -0.246 OA
ATOM     20  O   UNL     1      36.896 -26.042 -11.024  0.00  0.00    -0.267 OA
ATOM     21  N   UNL     1      35.176 -23.586 -13.785  0.00  0.00    -0.281 N 
ATOM     22  N   UNL     1      35.076 -24.880 -11.808  0.00  0.00    -0.274 N 
ATOM     23  C   UNL     1      36.547 -23.956 -13.949  0.00  0.00    +0.071 A 
ATOM     24  C   UNL     1      34.412 -24.046 -12.704  0.00  0.00    +0.330 A 
ATOM     25  C   UNL     1      37.162 -24.798 -13.015  0.00  0.00    +0.099 A 
ATOM     26  C   UNL     1      37.318 -23.498 -15.031  0.00  0.00    +0.018 C 
ATOM     27  C   UNL     1      36.393 -25.303 -11.864  0.00  0.00    +0.265 A 
ATOM     28  C   UNL     1      38.506 -25.175 -13.152  0.00  0.00    +0.146 C 
ATOM     29  C   UNL     1      38.657 -23.872 -15.171  0.00  0.00    +0.004 C 
ATOM     30  C   UNL     1      39.251 -24.710 -14.232  0.00  0.00    +0.030 C 
ATOM     31  H   UNL     1      34.547 -25.208 -11.044  0.00  0.00    +0.173 HD
ENDBRANCH  17  21
ENDBRANCH   1  17
TORSDOF 6
ENDMDL
MODEL 5
REMARK VINA RESULT:     -11.7      7.219     11.517
REMARK  Name = 448890
REMARK  6 active torsions:
REMARK  status: ('A' for Active; 'I' for Inactive)
REMARK    1  A    between atoms: C_1  and  C_2
REMARK    2  A    between atoms: C_1  and  C_17
REMARK    3  A    between atoms: C_2  and  C_3
REMARK    4  A    between atoms: C_3  and  N_4
REMARK    5  A    between atoms: C_8  and  C_11
REMARK    6  A    between atoms: C_17  and  N_21
REMARK                            x       y       z     vdW  Elec       q    Type
REMARK                         _______ _______ _______ _____ _____    ______ ____
ROOT
ATOM      1  C   UNL     1      36.835 -22.062 -15.342  0.00  0.00    +0.022 C 
ENDROOT
BRANCH   1   2
ATOM      2  C   UNL     1      37.124 -21.258 -16.615  0.00  0.00    -0.021 C 
BRANCH   2   3
ATOM      3  C   UNL     1      36.308 -21.784 -17.795  0.00  0.00    -0.077 C 
BRANCH   3   4
ATOM      4  N   UNL     1      35.974 -20.692 -18.707  0.00  0.00    +0.390 N 
ATOM      5  C   UNL     1      37.078 -20.422 -19.633  0.00  0.00    -0.072 C 
ATOM      6  C   UNL     1      34.738 -20.990 -19.446  0.00  0.00    -0.051 C 
ATOM      7  C   UNL     1      36.766 -19.167 -20.463  0.00  0.00    +0.003 C 
ATOM      8  C   UNL     1      35.376 -19.182 -21.057  0.00  0.00    -0.031 C 
ATOM      9  C   UNL     1      34.452 -20.035 -20.573  0.00  0.00    -0.053 C 
ATOM     10  H   UNL     1      35.821 -19.853 -18.148  0.00  0.00    -0.079 HD
BRANCH   8  11
ATOM     11  C   UNL     1      35.072 -18.242 -22.162  0.00  0.00    -0.004 C 
ATOM     12  C   UNL     1      34.428 -18.698 -23.314  0.00  0.00    -0.000 C 
ATOM     13  C   UNL     1      35.428 -16.895 -22.053  0.00  0.00    -0.000 C 
ATOM     14  C   UNL     1      34.142 -17.812 -24.353  0.00  0.00    -0.000 C 
ATOM     15  C   UNL     1      35.141 -16.010 -23.092  0.00  0.00    -0.000 C 
ATOM     16  C   UNL     1      34.499 -16.468 -24.243  0.00  0.00    -0.000 C 
ENDBRANCH   8  11
ENDBRANCH   3   4
ENDBRANCH   2   3
ENDBRANCH   1   2
BRANCH   1  17
ATOM     17  C   UNL     1      36.231 -23.431 -15.638  0.00  0.00    +0.110 C 
BRANCH  17  21
ATOM     18  F   UNL     1      30.274 -23.746 -14.181  0.00  0.00    -0.204 F 
ATOM     19  O   UNL     1      36.410 -24.510 -13.044  0.00  0.00    -0.246 OA
ATOM     20  O   UNL     1      31.881 -24.557 -12.403  0.00  0.00    -0.267 OA
ATOM     21  N   UNL     1      35.079 -23.726 -14.789  0.00  0.00    -0.281 N 
ATOM     22  N   UNL     1      34.149 -24.517 -12.763  0.00  0.00    -0.274 N 
ATOM     23  C   UNL     1      33.764 -23.459 -15.280  0.00  0.00    +0.071 A 
ATOM     24  C   UNL     1      35.296 -24.263 -13.513  0.00  0.00    +0.330 A 
ATOM     25  C   UNL     1      32.648 -23.736 -14.481  0.00  0.00    +0.099 A 
ATOM     26  C   UNL     1      33.541 -22.922 -16.560  0.00  0.00    +0.018 C 
ATOM     27  C   UNL     1      32.833 -24.301 -13.133  0.00  0.00    +0.265 A 
ATOM     28  C   UNL     1      31.347 -23.484 -14.940  0.00  0.00    +0.146 C 
ATOM     29  C   UNL     1      32.246 -22.669 -17.019  0.00  0.00    +0.004 C 
ATOM     30  C   UNL     1      31.149 -22.950 -16.210  0.00  0.00    +0.030 C 
ATOM     31  H   UNL     1      34.291 -24.895 -11.865  0.00  0.00    +0.173 HD
ENDBRANCH  17  21
ENDBRANCH   1  17
TORSDOF 6
ENDMDL
MODEL 6
REMARK VINA RESULT:     -11.3      3.644      6.520
REMARK  Name = 448890
REMARK  6 active torsions:
REMARK  status: ('A' for Active; 'I' for Inactive)
REMARK    1  A    between atoms: C_1  and  C_2
REMARK    2  A    between atoms: C_1  and  C_17
REMARK    3  A    between atoms: C_2  and  C_3
REMARK    4  A    between atoms: C_3  and  N_4
REMARK    5  A    between atoms: C_8  and  C_11
REMARK    6  A    between atoms: C_17  and  N_21
REMARK                            x       y       z     vdW  Elec       q    Type
REMARK                         _______ _______ _______ _____ _____    ______ ____
ROOT
ATOM      1  C   UNL     1      36.623 -18.991 -20.716  0.00  0.00    +0.022 C 
ENDROOT
BRANCH   1   2
ATOM      2  C   UNL     1      36.891 -19.796 -19.440  0.00  0.00    -0.021 C 
BRANCH   2   3
ATOM      3  C   UNL     1      36.353 -21.221 -19.565  0.00  0.00    -0.077 C 
BRANCH   3   4
ATOM      4  N   UNL     1      35.415 -21.505 -18.481  0.00  0.00    +0.390 N 
ATOM      5  C   UNL     1      34.360 -22.423 -18.922  0.00  0.00    -0.072 C 
ATOM      6  C   UNL     1      36.121 -22.050 -17.311  0.00  0.00    -0.051 C 
ATOM      7  C   UNL     1      33.303 -22.571 -17.817  0.00  0.00    +0.003 C 
ATOM      8  C   UNL     1      33.904 -22.839 -16.456  0.00  0.00    -0.031 C 
ATOM      9  C   UNL     1      35.211 -22.592 -16.242  0.00  0.00    -0.053 C 
ATOM     10  H   UNL     1      34.973 -20.627 -18.210  0.00  0.00    -0.079 HD
BRANCH   8  11
ATOM     11  C   UNL     1      33.020 -23.363 -15.387  0.00  0.00    -0.004 C 
ATOM     12  C   UNL     1      33.570 -23.996 -14.271  0.00  0.00    -0.000 C 
ATOM     13  C   UNL     1      31.634 -23.226 -15.494  0.00  0.00    -0.000 C 
ATOM     14  C   UNL     1      32.739 -24.489 -13.265  0.00  0.00    -0.000 C 
ATOM     15  C   UNL     1      30.803 -23.719 -14.488  0.00  0.00    -0.000 C 
ATOM     16  C   UNL     1      31.355 -24.351 -13.374  0.00  0.00    -0.000 C 
ENDBRANCH   8  11
ENDBRANCH   3   4
ENDBRANCH   2   3
ENDBRANCH   1   2
BRANCH   1  17
ATOM     17  C   UNL     1      35.145 -18.659 -20.900  0.00  0.00    +0.110 C 
BRANCH  17  21
ATOM     18  F   UNL     1      34.199 -13.547 -24.170  0.00  0.00    -0.204 F 
ATOM     19  O   UNL     1      34.874 -19.760 -23.477  0.00  0.00    -0.246 OA
ATOM     20  O   UNL     1      34.208 -15.707 -25.490  0.00  0.00    -0.267 OA
ATOM     21  N   UNL     1      34.898 -17.874 -22.107  0.00  0.00    -0.281 N 
ATOM     22  N   UNL     1      34.546 -17.722 -24.442  0.00  0.00    -0.274 N 
ATOM     23  C   UNL     1      34.780 -16.453 -22.005  0.00  0.00    +0.071 A 
ATOM     24  C   UNL     1      34.781 -18.537 -23.337  0.00  0.00    +0.330 A 
ATOM     25  C   UNL     1      34.544 -15.685 -23.151  0.00  0.00    +0.099 A 
ATOM     26  C   UNL     1      34.897 -15.783 -20.775  0.00  0.00    +0.018 C 
ATOM     27  C   UNL     1      34.415 -16.344 -24.462  0.00  0.00    +0.265 A 
ATOM     28  C   UNL     1      34.426 -14.290 -23.077  0.00  0.00    +0.146 C 
ATOM     29  C   UNL     1      34.779 -14.393 -20.698  0.00  0.00    +0.004 C 
ATOM     30  C   UNL     1      34.543 -13.647 -21.848  0.00  0.00    +0.030 C 
ATOM     31  H   UNL     1      34.463 -18.179 -25.310  0.00  0.00    +0.173 HD
ENDBRANCH  17  21
ENDBRANCH   1  17
TORSDOF 6
ENDMDL
MODEL 7
REMARK VINA RESULT:     -11.2      5.511     10.488
REMARK  Name = 448890
REMARK  6 active torsions:
REMARK  status: ('A' for Active; 'I' for Inactive)
REMARK    1  A    between atoms: C_1  and  C_2
REMARK    2  A    between atoms: C_1  and  C_17
REMARK    3  A    between atoms: C_2  and  C_3
REMARK    4  A    between atoms: C_3  and  N_4
REMARK    5  A    between atoms: C_8  and  C_11
REMARK    6  A    between atoms: C_17  and  N_21
REMARK                            x       y       z     vdW  Elec       q    Type
REMARK                         _______ _______ _______ _____ _____    ______ ____
ROOT
ATOM      1  C   UNL     1      34.353 -20.160 -20.227  0.00  0.00    +0.022 C 
ENDROOT
BRANCH   1   2
ATOM      2  C   UNL     1      34.999 -19.508 -21.454  0.00  0.00    -0.021 C 
BRANCH   2   3
ATOM      3  C   UNL     1      36.032 -18.460 -21.040  0.00  0.00    -0.077 C 
BRANCH   3   4
ATOM      4  N   UNL     1      35.817 -17.218 -21.778  0.00  0.00    +0.390 N 
ATOM      5  C   UNL     1      35.060 -17.459 -23.011  0.00  0.00    -0.072 C 
ATOM      6  C   UNL     1      35.134 -16.223 -20.937  0.00  0.00    -0.051 C 
ATOM      7  C   UNL     1      34.995 -16.170 -23.844  0.00  0.00    +0.003 C 
ATOM      8  C   UNL     1      34.590 -14.961 -23.030  0.00  0.00    -0.031 C 
ATOM      9  C   UNL     1      34.660 -15.007 -21.686  0.00  0.00    -0.053 C 
ATOM     10  H   UNL     1      36.730 -16.845 -22.039  0.00  0.00    -0.079 HD
BRANCH   8  11
ATOM     11  C   UNL     1      34.131 -13.750 -23.751  0.00  0.00    -0.004 C 
ATOM     12  C   UNL     1      33.587 -13.860 -25.032  0.00  0.00    -0.000 C 
ATOM     13  C   UNL     1      34.239 -12.494 -23.149  0.00  0.00    -0.000 C 
ATOM     14  C   UNL     1      33.155 -12.720 -25.710  0.00  0.00    -0.000 C 
ATOM     15  C   UNL     1      33.807 -11.354 -23.827  0.00  0.00    -0.000 C 
ATOM     16  C   UNL     1      33.265 -11.466 -25.107  0.00  0.00    -0.000 C 
ENDBRANCH   8  11
ENDBRANCH   3   4
ENDBRANCH   2   3
ENDBRANCH   1   2
BRANCH   1  17
ATOM     17  C   UNL     1      35.305 -21.099 -19.493  0.00  0.00    +0.110 C 
BRANCH  17  21
ATOM     18  F   UNL     1      34.952 -23.830 -14.003  0.00  0.00    -0.204 F 
ATOM     19  O   UNL     1      32.592 -21.851 -19.485  0.00  0.00    -0.246 OA
ATOM     20  O   UNL     1      32.805 -23.779 -15.342  0.00  0.00    -0.267 OA
ATOM     21  N   UNL     1      34.651 -21.806 -18.394  0.00  0.00    -0.281 N 
ATOM     22  N   UNL     1      32.739 -22.801 -17.419  0.00  0.00    -0.274 N 
ATOM     23  C   UNL     1      35.413 -22.153 -17.236  0.00  0.00    +0.071 A 
ATOM     24  C   UNL     1      33.291 -22.127 -18.506  0.00  0.00    +0.330 A 
ATOM     25  C   UNL     1      34.803 -22.830 -16.173  0.00  0.00    +0.099 A 
ATOM     26  C   UNL     1      36.776 -21.833 -17.118  0.00  0.00    +0.018 C 
ATOM     27  C   UNL     1      33.376 -23.186 -16.252  0.00  0.00    +0.265 A 
ATOM     28  C   UNL     1      35.528 -23.180 -15.025  0.00  0.00    +0.146 C 
ATOM     29  C   UNL     1      37.501 -22.182 -15.975  0.00  0.00    +0.004 C 
ATOM     30  C   UNL     1      36.878 -22.855 -14.930  0.00  0.00    +0.030 C 
ATOM     31  H   UNL     1      31.784 -23.031 -17.489  0.00  0.00    +0.173 HD
ENDBRANCH  17  21
ENDBRANCH   1  17
TORSDOF 6
ENDMDL
MODEL 8
REMARK VINA RESULT:     -11.1      3.669     10.099
REMARK  Name = 448890
REMARK  6 active torsions:
REMARK  status: ('A' for Active; 'I' for Inactive)
REMARK    1  A    between atoms: C_1  and  C_2
REMARK    2  A    between atoms: C_1  and  C_17
REMARK    3  A    between atoms: C_2  and  C_3
REMARK    4  A    between atoms: C_3  and  N_4
REMARK    5  A    between atoms: C_8  and  C_11
REMARK    6  A    between atoms: C_17  and  N_21
REMARK                            x       y       z     vdW  Elec       q    Type
REMARK                         _______ _______ _______ _____ _____    ______ ____
ROOT
ATOM      1  C   UNL     1      33.339 -13.709 -20.664  0.00  0.00    +0.022 C 
ENDROOT
BRANCH   1   2
ATOM      2  C   UNL     1      32.325 -12.617 -21.020  0.00  0.00    -0.021 C 
BRANCH   2   3
ATOM      3  C   UNL     1      32.033 -11.724 -19.814  0.00  0.00    -0.077 C 
BRANCH   3   4
ATOM      4  N   UNL     1      31.656 -10.383 -20.257  0.00  0.00    +0.390 N 
ATOM      5  C   UNL     1      32.314  -9.354 -19.446  0.00  0.00    -0.072 C 
ATOM      6  C   UNL     1      31.968 -10.198 -21.682  0.00  0.00    -0.051 C 
ATOM      7  C   UNL     1      31.773  -7.967 -19.823  0.00  0.00    +0.003 C 
ATOM      8  C   UNL     1      31.742  -7.731 -21.316  0.00  0.00    -0.031 C 
ATOM      9  C   UNL     1      31.835  -8.777 -22.160  0.00  0.00    -0.053 C 
ATOM     10  H   UNL     1      30.648 -10.283 -20.132  0.00  0.00    -0.079 HD
BRANCH   8  11
ATOM     11  C   UNL     1      31.602  -6.339 -21.805  0.00  0.00    -0.004 C 
ATOM     12  C   UNL     1      31.011  -6.088 -23.046  0.00  0.00    -0.000 C 
ATOM     13  C   UNL     1      32.059  -5.273 -21.027  0.00  0.00    -0.000 C 
ATOM     14  C   UNL     1      30.879  -4.778 -23.506  0.00  0.00    -0.000 C 
ATOM     15  C   UNL     1      31.927  -3.963 -21.488  0.00  0.00    -0.000 C 
ATOM     16  C   UNL     1      31.337  -3.715 -22.727  0.00  0.00    -0.000 C 
ENDBRANCH   8  11
ENDBRANCH   3   4
ENDBRANCH   2   3
ENDBRANCH   1   2
BRANCH   1  17
ATOM     17  C   UNL     1      34.510 -13.763 -21.642  0.00  0.00    +0.110 C 
BRANCH  17  21
ATOM     18  F   UNL     1      34.996 -19.562 -23.605  0.00  0.00    -0.204 F 
ATOM     19  O   UNL     1      33.490 -13.491 -24.252  0.00  0.00    -0.246 OA
ATOM     20  O   UNL     1      34.037 -17.917 -25.272  0.00  0.00    -0.267 OA
ATOM     21  N   UNL     1      34.387 -14.863 -22.595  0.00  0.00    -0.281 N 
ATOM     22  N   UNL     1      33.778 -15.702 -24.722  0.00  0.00    -0.274 N 
ATOM     23  C   UNL     1      34.805 -16.174 -22.206  0.00  0.00    +0.071 A 
ATOM     24  C   UNL     1      33.863 -14.603 -23.869  0.00  0.00    +0.330 A 
ATOM     25  C   UNL     1      34.695 -17.240 -23.106  0.00  0.00    +0.099 A 
ATOM     26  C   UNL     1      35.331 -16.440 -20.930  0.00  0.00    +0.018 C 
ATOM     27  C   UNL     1      34.150 -17.009 -24.455  0.00  0.00    +0.265 A 
ATOM     28  C   UNL     1      35.097 -18.535 -22.749  0.00  0.00    +0.146 C 
ATOM     29  C   UNL     1      35.733 -17.729 -20.572  0.00  0.00    +0.004 C 
ATOM     30  C   UNL     1      35.616 -18.776 -21.480  0.00  0.00    +0.030 C 
ATOM     31  H   UNL     1      33.411 -15.529 -25.619  0.00  0.00    +0.173 HD
ENDBRANCH  17  21
ENDBRANCH   1  17
TORSDOF 6
ENDMDL
MODEL 9
REMARK VINA RESULT:     -11.1      4.093      6.838
REMARK  Name = 448890
REMARK  6 active torsions:
REMARK  status: ('A' for Active; 'I' for Inactive)
REMARK    1  A    between atoms: C_1  and  C_2
REMARK    2  A    between atoms: C_1  and  C_17
REMARK    3  A    between atoms: C_2  and  C_3
REMARK    4  A    between atoms: C_3  and  N_4
REMARK    5  A    between atoms: C_8  and  C_11
REMARK    6  A    between atoms: C_17  and  N_21
REMARK                            x       y       z     vdW  Elec       q    Type
REMARK                         _______ _______ _______ _____ _____    ______ ____
ROOT
ATOM      1  C   UNL     1      33.937 -19.808 -20.629  0.00  0.00    +0.022 C 
ENDROOT
BRANCH   1   2
ATOM      2  C   UNL     1      34.192 -20.771 -19.465  0.00  0.00    -0.021 C 
BRANCH   2   3
ATOM      3  C   UNL     1      35.669 -21.152 -19.380  0.00  0.00    -0.077 C 
BRANCH   3   4
ATOM      4  N   UNL     1      35.918 -21.948 -18.179  0.00  0.00    +0.390 N 
ATOM      5  C   UNL     1      36.817 -21.247 -17.258  0.00  0.00    -0.072 C 
ATOM      6  C   UNL     1      34.654 -22.291 -17.510  0.00  0.00    -0.051 C 
ATOM      7  C   UNL     1      37.192 -22.172 -16.090  0.00  0.00    +0.003 C 
ATOM      8  C   UNL     1      35.994 -22.858 -15.472  0.00  0.00    -0.031 C 
ATOM      9  C   UNL     1      34.828 -22.901 -16.145  0.00  0.00    -0.053 C 
ATOM     10  H   UNL     1      36.376 -22.814 -18.466  0.00  0.00    -0.079 HD
BRANCH   8  11
ATOM     11  C   UNL     1      36.149 -23.473 -14.132  0.00  0.00    -0.004 C 
ATOM     12  C   UNL     1      35.025 -23.731 -13.345  0.00  0.00    -0.000 C 
ATOM     13  C   UNL     1      37.420 -23.797 -13.653  0.00  0.00    -0.000 C 
ATOM     14  C   UNL     1      35.171 -24.310 -12.085  0.00  0.00    -0.000 C 
ATOM     15  C   UNL     1      37.566 -24.377 -12.392  0.00  0.00    -0.000 C 
ATOM     16  C   UNL     1      36.442 -24.633 -11.608  0.00  0.00    -0.000 C 
ENDBRANCH   8  11
ENDBRANCH   3   4
ENDBRANCH   2   3
ENDBRANCH   1   2
BRANCH   1  17
ATOM     17  C   UNL     1      35.200 -19.076 -21.072  0.00  0.00    +0.110 C 
BRANCH  17  21
ATOM     18  F   UNL     1      34.302 -13.691 -23.884  0.00  0.00    -0.204 F 
ATOM     19  O   UNL     1      34.915 -19.947 -23.734  0.00  0.00    -0.246 OA
ATOM     20  O   UNL     1      34.288 -15.727 -25.386  0.00  0.00    -0.267 OA
ATOM     21  N   UNL     1      34.960 -18.187 -22.206  0.00  0.00    -0.281 N 
ATOM     22  N   UNL     1      34.606 -17.829 -24.518  0.00  0.00    -0.274 N 
ATOM     23  C   UNL     1      34.857 -16.779 -21.980  0.00  0.00    +0.071 A 
ATOM     24  C   UNL     1      34.835 -18.740 -23.488  0.00  0.00    +0.330 A 
ATOM     25  C   UNL     1      34.627 -15.912 -23.055  0.00  0.00    +0.099 A 
ATOM     26  C   UNL     1      34.981 -16.220 -20.697  0.00  0.00    +0.018 C 
ATOM     27  C   UNL     1      34.490 -16.454 -24.418  0.00  0.00    +0.265 A 
ATOM     28  C   UNL     1      34.523 -14.528 -22.860  0.00  0.00    +0.146 C 
ATOM     29  C   UNL     1      34.878 -14.840 -20.500  0.00  0.00    +0.004 C 
ATOM     30  C   UNL     1      34.649 -13.995 -21.580  0.00  0.00    +0.030 C 
ATOM     31  H   UNL     1      34.518 -18.209 -25.422  0.00  0.00    +0.173 HD
ENDBRANCH  17  21
ENDBRANCH   1  17
TORSDOF 6
ENDMDL
