MODEL 1
REMARK VINA RESULT:     -11.5      0.000      0.000
REMARK  Name = 2079916
REMARK  5 active torsions:
REMARK  status: ('A' for Active; 'I' for Inactive)
REMARK    1  A    between atoms: C_4  and  C_10
REMARK    2  A    between atoms: C_5  and  S_15
REMARK    3  A    between atoms: S_15  and  C_16
REMARK    4  A    between atoms: C_16  and  C_18
REMARK    5  A    between atoms: C_21  and  O_24
REMARK                            x       y       z     vdW  Elec       q    Type
REMARK                         _______ _______ _______ _____ _____    ______ ____
ROOT
ATOM      1  O   UNL     1      34.344 -19.395 -22.019  0.00  0.00    -0.411 OA
ATOM      2  N   UNL     1      36.378 -18.715 -21.386  0.00  0.00    -0.106 NA
ATOM      3  N   UNL     1      36.049 -18.048 -22.552  0.00  0.00    -0.101 NA
ATOM      4  C   UNL     1      35.356 -19.483 -21.120  0.00  0.00    +0.251 A 
ATOM      5  C   UNL     1      34.854 -18.477 -22.885  0.00  0.00    +0.279 A 
ENDROOT
BRANCH   4  10
ATOM      6  O   UNL     1      32.507 -22.178 -18.194  0.00  0.00    -0.435 OA
ATOM      7  O   UNL     1      34.393 -23.006 -16.943  0.00  0.00    -0.435 OA
ATOM      8  C   UNL     1      33.688 -21.681 -18.651  0.00  0.00    +0.177 C 
ATOM      9  C   UNL     1      34.765 -22.154 -17.938  0.00  0.00    +0.176 C 
ATOM     10  C   UNL     1      35.141 -20.401 -20.028  0.00  0.00    +0.058 C 
ATOM     11  C   UNL     1      33.843 -20.803 -19.705  0.00  0.00    +0.045 C 
ATOM     12  C   UNL     1      36.057 -21.774 -18.237  0.00  0.00    +0.040 C 
ATOM     13  C   UNL     1      36.242 -20.884 -19.299  0.00  0.00    +0.008 C 
ATOM     14  C   UNL     1      32.961 -23.017 -17.112  0.00  0.00    +0.429 C 
ENDBRANCH   4  10
BRANCH   5  15
ATOM     15  S   UNL     1      33.993 -17.932 -24.294  0.00  0.00    -0.050 S 
BRANCH  15  16
ATOM     16  C   UNL     1      34.863 -16.380 -24.651  0.00  0.00    +0.093 C 
BRANCH  16  18
ATOM     17  F   UNL     1      34.816 -13.652 -20.623  0.00  0.00    -0.201 F 
ATOM     18  C   UNL     1      34.319 -15.228 -23.851  0.00  0.00    -0.008 C 
ATOM     19  C   UNL     1      34.831 -14.970 -22.586  0.00  0.00    +0.029 C 
ATOM     20  C   UNL     1      33.310 -14.439 -24.386  0.00  0.00    -0.000 C 
ATOM     21  C   UNL     1      33.311 -13.105 -22.373  0.00  0.00    +0.166 C 
ATOM     22  C   UNL     1      34.325 -13.904 -21.844  0.00  0.00    +0.174 C 
ATOM     23  C   UNL     1      32.804 -13.372 -23.645  0.00  0.00    +0.039 C 
BRANCH  21  24
ATOM     24  O   UNL     1      32.815 -12.064 -21.650  0.00  0.00    -0.469 OA
ATOM     25  C   UNL     1      31.777 -12.359 -20.715  0.00  0.00    +0.253 C 
ENDBRANCH  21  24
ENDBRANCH  16  18
ENDBRANCH  15  16
ENDBRANCH   5  15
TORSDOF 5
ENDMDL
MODEL 2
REMARK VINA RESULT:     -11.4      1.727      2.283
REMARK  Name = 2079916
REMARK  5 active torsions:
REMARK  status: ('A' for Active; 'I' for Inactive)
REMARK    1  A    between atoms: C_4  and  C_10
REMARK    2  A    between atoms: C_5  and  S_15
REMARK    3  A    between atoms: S_15  and  C_16
REMARK    4  A    between atoms: C_16  and  C_18
REMARK    5  A    between atoms: C_21  and  O_24
REMARK                            x       y       z     vdW  Elec       q    Type
REMARK                         _______ _______ _______ _____ _____    ______ ____
ROOT
ATOM      1  O   UNL     1      35.019 -17.937 -21.113  0.00  0.00    -0.411 OA
ATOM      2  N   UNL     1      34.643 -19.429 -22.737  0.00  0.00    -0.106 NA
ATOM      3  N   UNL     1      34.750 -18.180 -23.321  0.00  0.00    -0.101 NA
ATOM      4  C   UNL     1      34.807 -19.232 -21.456  0.00  0.00    +0.251 A 
ATOM      5  C   UNL     1      34.968 -17.340 -22.336  0.00  0.00    +0.279 A 
ENDROOT
BRANCH   4  10
ATOM      6  O   UNL     1      32.547 -22.151 -18.243  0.00  0.00    -0.435 OA
ATOM      7  O   UNL     1      34.630 -22.849 -17.252  0.00  0.00    -0.435 OA
ATOM      8  C   UNL     1      33.623 -21.566 -18.836  0.00  0.00    +0.177 C 
ATOM      9  C   UNL     1      34.812 -21.964 -18.270  0.00  0.00    +0.176 C 
ATOM     10  C   UNL     1      34.797 -20.173 -20.361  0.00  0.00    +0.058 C 
ATOM     11  C   UNL     1      33.581 -20.670 -19.886  0.00  0.00    +0.045 C 
ATOM     12  C   UNL     1      36.026 -21.488 -18.721  0.00  0.00    +0.040 C 
ATOM     13  C   UNL     1      36.012 -20.579 -19.783  0.00  0.00    +0.008 C 
ATOM     14  C   UNL     1      33.192 -22.963 -17.241  0.00  0.00    +0.429 C 
ENDBRANCH   4  10
BRANCH   5  15
ATOM     15  S   UNL     1      35.177 -15.629 -22.557  0.00  0.00    -0.050 S 
BRANCH  15  16
ATOM     16  C   UNL     1      34.576 -15.000 -20.965  0.00  0.00    +0.093 C 
BRANCH  16  18
ATOM     17  F   UNL     1      33.161 -11.079 -23.474  0.00  0.00    -0.201 F 
ATOM     18  C   UNL     1      33.693 -13.794 -21.128  0.00  0.00    -0.008 C 
ATOM     19  C   UNL     1      33.840 -12.984 -22.246  0.00  0.00    +0.029 C 
ATOM     20  C   UNL     1      32.743 -13.504 -20.158  0.00  0.00    -0.000 C 
ATOM     21  C   UNL     1      32.065 -11.564 -21.427  0.00  0.00    +0.166 C 
ATOM     22  C   UNL     1      33.022 -11.864 -22.396  0.00  0.00    +0.174 C 
ATOM     23  C   UNL     1      31.925 -12.385 -20.308  0.00  0.00    +0.039 C 
BRANCH  21  24
ATOM     24  O   UNL     1      31.267 -10.471 -21.571  0.00  0.00    -0.469 OA
ATOM     25  C   UNL     1      31.798  -9.218 -21.141  0.00  0.00    +0.253 C 
ENDBRANCH  21  24
ENDBRANCH  16  18
ENDBRANCH  15  16
ENDBRANCH   5  15
TORSDOF 5
ENDMDL
MODEL 3
REMARK VINA RESULT:     -11.3      4.050      9.606
REMARK  Name = 2079916
REMARK  5 active torsions:
REMARK  status: ('A' for Active; 'I' for Inactive)
REMARK    1  A    between atoms: C_4  and  C_10
REMARK    2  A    between atoms: C_5  and  S_15
REMARK    3  A    between atoms: S_15  and  C_16
REMARK    4  A    between atoms: C_16  and  C_18
REMARK    5  A    between atoms: C_21  and  O_24
REMARK                            x       y       z     vdW  Elec       q    Type
REMARK                         _______ _______ _______ _____ _____    ______ ____
ROOT
ATOM      1  O   UNL     1      35.070 -20.047 -20.726  0.00  0.00    -0.411 OA
ATOM      2  N   UNL     1      36.724 -18.571 -20.431  0.00  0.00    -0.106 NA
ATOM      3  N   UNL     1      36.827 -19.531 -19.441  0.00  0.00    -0.101 NA
ATOM      4  C   UNL     1      35.690 -18.917 -21.150  0.00  0.00    +0.251 A 
ATOM      5  C   UNL     1      35.841 -20.371 -19.652  0.00  0.00    +0.279 A 
ENDROOT
BRANCH   4  10
ATOM      6  O   UNL     1      34.540 -15.014 -23.870  0.00  0.00    -0.435 OA
ATOM      7  O   UNL     1      33.499 -16.372 -25.567  0.00  0.00    -0.435 OA
ATOM      8  C   UNL     1      34.590 -16.342 -23.572  0.00  0.00    +0.177 C 
ATOM      9  C   UNL     1      33.996 -17.117 -24.541  0.00  0.00    +0.176 C 
ATOM     10  C   UNL     1      35.111 -18.287 -22.312  0.00  0.00    +0.058 C 
ATOM     11  C   UNL     1      35.158 -16.897 -22.444  0.00  0.00    +0.045 C 
ATOM     12  C   UNL     1      33.936 -18.491 -24.436  0.00  0.00    +0.040 C 
ATOM     13  C   UNL     1      34.504 -19.080 -23.302  0.00  0.00    +0.008 C 
ATOM     14  C   UNL     1      33.848 -15.041 -25.135  0.00  0.00    +0.429 C 
ENDBRANCH   4  10
BRANCH   5  15
ATOM     15  S   UNL     1      35.538 -21.769 -18.664  0.00  0.00    -0.050 S 
BRANCH  15  16
ATOM     16  C   UNL     1      36.749 -21.521 -17.335  0.00  0.00    +0.093 C 
BRANCH  16  18
ATOM     17  F   UNL     1      38.233 -24.027 -13.438  0.00  0.00    -0.201 F 
ATOM     18  C   UNL     1      36.455 -22.377 -16.134  0.00  0.00    -0.008 C 
ATOM     19  C   UNL     1      37.500 -22.810 -15.329  0.00  0.00    +0.029 C 
ATOM     20  C   UNL     1      35.141 -22.724 -15.846  0.00  0.00    -0.000 C 
ATOM     21  C   UNL     1      35.911 -23.960 -13.919  0.00  0.00    +0.166 C 
ATOM     22  C   UNL     1      37.226 -23.606 -14.217  0.00  0.00    +0.174 C 
ATOM     23  C   UNL     1      34.868 -23.519 -14.734  0.00  0.00    +0.039 C 
BRANCH  21  24
ATOM     24  O   UNL     1      35.642 -24.738 -12.835  0.00  0.00    -0.469 OA
ATOM     25  C   UNL     1      35.300 -24.066 -11.622  0.00  0.00    +0.253 C 
ENDBRANCH  21  24
ENDBRANCH  16  18
ENDBRANCH  15  16
ENDBRANCH   5  15
TORSDOF 5
ENDMDL
MODEL 4
REMARK VINA RESULT:     -11.2      3.617      8.966
REMARK  Name = 2079916
REMARK  5 active torsions:
REMARK  status: ('A' for Active; 'I' for Inactive)
REMARK    1  A    between atoms: C_4  and  C_10
REMARK    2  A    between atoms: C_5  and  S_15
REMARK    3  A    between atoms: S_15  and  C_16
REMARK    4  A    between atoms: C_16  and  C_18
REMARK    5  A    between atoms: C_21  and  O_24
REMARK                            x       y       z     vdW  Elec       q    Type
REMARK                         _______ _______ _______ _____ _____    ______ ____
ROOT
ATOM      1  O   UNL     1      35.334 -20.137 -20.533  0.00  0.00    -0.411 OA
ATOM      2  N   UNL     1      36.933 -18.581 -20.382  0.00  0.00    -0.106 NA
ATOM      3  N   UNL     1      37.114 -19.480 -19.347  0.00  0.00    -0.101 NA
ATOM      4  C   UNL     1      35.889 -19.007 -21.040  0.00  0.00    +0.251 A 
ATOM      5  C   UNL     1      36.158 -20.370 -19.474  0.00  0.00    +0.279 A 
ENDROOT
BRANCH   4  10
ATOM      6  O   UNL     1      34.472 -15.310 -23.916  0.00  0.00    -0.435 OA
ATOM      7  O   UNL     1      33.429 -16.801 -25.497  0.00  0.00    -0.435 OA
ATOM      8  C   UNL     1      34.590 -16.616 -23.551  0.00  0.00    +0.177 C 
ATOM      9  C   UNL     1      33.995 -17.467 -24.453  0.00  0.00    +0.176 C 
ATOM     10  C   UNL     1      35.241 -18.466 -22.210  0.00  0.00    +0.058 C 
ATOM     11  C   UNL     1      35.223 -17.085 -22.417  0.00  0.00    +0.045 C 
ATOM     12  C   UNL     1      33.999 -18.835 -24.273  0.00  0.00    +0.040 C 
ATOM     13  C   UNL     1      34.633 -19.337 -23.132  0.00  0.00    +0.008 C 
ATOM     14  C   UNL     1      33.735 -15.435 -25.150  0.00  0.00    +0.429 C 
ENDBRANCH   4  10
BRANCH   5  15
ATOM     15  S   UNL     1      35.952 -21.722 -18.402  0.00  0.00    -0.050 S 
BRANCH  15  16
ATOM     16  C   UNL     1      34.199 -22.110 -18.667  0.00  0.00    +0.093 C 
BRANCH  16  18
ATOM     17  F   UNL     1      30.166 -22.773 -16.029  0.00  0.00    -0.201 F 
ATOM     18  C   UNL     1      33.516 -22.541 -17.399  0.00  0.00    -0.008 C 
ATOM     19  C   UNL     1      32.133 -22.456 -17.303  0.00  0.00    +0.029 C 
ATOM     20  C   UNL     1      34.276 -23.018 -16.340  0.00  0.00    -0.000 C 
ATOM     21  C   UNL     1      32.255 -23.335 -15.056  0.00  0.00    +0.166 C 
ATOM     22  C   UNL     1      31.500 -22.854 -16.125  0.00  0.00    +0.174 C 
ATOM     23  C   UNL     1      33.644 -23.417 -15.163  0.00  0.00    +0.039 C 
BRANCH  21  24
ATOM     24  O   UNL     1      31.640 -23.723 -13.906  0.00  0.00    -0.469 OA
ATOM     25  C   UNL     1      31.973 -25.013 -13.393  0.00  0.00    +0.253 C 
ENDBRANCH  21  24
ENDBRANCH  16  18
ENDBRANCH  15  16
ENDBRANCH   5  15
TORSDOF 5
ENDMDL
MODEL 5
REMARK VINA RESULT:     -11.2      2.553      8.865
REMARK  Name = 2079916
REMARK  5 active torsions:
REMARK  status: ('A' for Active; 'I' for Inactive)
REMARK    1  A    between atoms: C_4  and  C_10
REMARK    2  A    between atoms: C_5  and  S_15
REMARK    3  A    between atoms: S_15  and  C_16
REMARK    4  A    between atoms: C_16  and  C_18
REMARK    5  A    between atoms: C_21  and  O_24
REMARK                            x       y       z     vdW  Elec       q    Type
REMARK                         _______ _______ _______ _____ _____    ______ ____
ROOT
ATOM      1  O   UNL     1      34.413 -16.223 -23.534  0.00  0.00    -0.411 OA
ATOM      2  N   UNL     1      33.231 -16.408 -25.424  0.00  0.00    -0.106 NA
ATOM      3  N   UNL     1      33.665 -17.671 -25.066  0.00  0.00    -0.101 NA
ATOM      4  C   UNL     1      33.691 -15.605 -24.502  0.00  0.00    +0.251 A 
ATOM      5  C   UNL     1      34.352 -17.515 -23.959  0.00  0.00    +0.279 A 
ENDROOT
BRANCH   4  10
ATOM      6  O   UNL     1      32.837 -11.554 -21.893  0.00  0.00    -0.435 OA
ATOM      7  O   UNL     1      33.121 -10.129 -23.816  0.00  0.00    -0.435 OA
ATOM      8  C   UNL     1      33.125 -12.259 -23.021  0.00  0.00    +0.177 C 
ATOM      9  C   UNL     1      33.287 -11.446 -24.118  0.00  0.00    +0.176 C 
ATOM     10  C   UNL     1      33.550 -14.176 -24.358  0.00  0.00    +0.058 C 
ATOM     11  C   UNL     1      33.251 -13.631 -23.108  0.00  0.00    +0.045 C 
ATOM     12  C   UNL     1      33.584 -11.958 -25.365  0.00  0.00    +0.040 C 
ATOM     13  C   UNL     1      33.716 -13.345 -25.481  0.00  0.00    +0.008 C 
ATOM     14  C   UNL     1      32.836 -10.205 -22.404  0.00  0.00    +0.429 C 
ENDBRANCH   4  10
BRANCH   5  15
ATOM     15  S   UNL     1      35.113 -18.823 -23.104  0.00  0.00    -0.050 S 
BRANCH  15  16
ATOM     16  C   UNL     1      34.755 -18.367 -21.385  0.00  0.00    +0.093 C 
BRANCH  16  18
ATOM     17  F   UNL     1      36.933 -21.797 -18.709  0.00  0.00    -0.201 F 
ATOM     18  C   UNL     1      34.688 -19.567 -20.482  0.00  0.00    -0.008 C 
ATOM     19  C   UNL     1      35.863 -20.133 -20.005  0.00  0.00    +0.029 C 
ATOM     20  C   UNL     1      33.451 -20.097 -20.138  0.00  0.00    -0.000 C 
ATOM     21  C   UNL     1      34.563 -21.787 -18.818  0.00  0.00    +0.166 C 
ATOM     22  C   UNL     1      35.800 -21.248 -19.170  0.00  0.00    +0.174 C 
ATOM     23  C   UNL     1      33.388 -21.211 -19.302  0.00  0.00    +0.039 C 
BRANCH  21  24
ATOM     24  O   UNL     1      34.500 -22.876 -18.004  0.00  0.00    -0.469 OA
ATOM     25  C   UNL     1      33.311 -23.041 -17.232  0.00  0.00    +0.253 C 
ENDBRANCH  21  24
ENDBRANCH  16  18
ENDBRANCH  15  16
ENDBRANCH   5  15
TORSDOF 5
ENDMDL
MODEL 6
REMARK VINA RESULT:     -10.9      2.737      3.823
REMARK  Name = 2079916
REMARK  5 active torsions:
REMARK  status: ('A' for Active; 'I' for Inactive)
REMARK    1  A    between atoms: C_4  and  C_10
REMARK    2  A    between atoms: C_5  and  S_15
REMARK    3  A    between atoms: S_15  and  C_16
REMARK    4  A    between atoms: C_16  and  C_18
REMARK    5  A    between atoms: C_21  and  O_24
REMARK                            x       y       z     vdW  Elec       q    Type
REMARK                         _______ _______ _______ _____ _____    ______ ____
ROOT
ATOM      1  O   UNL     1      34.333 -16.000 -23.328  0.00  0.00    -0.411 OA
ATOM      2  N   UNL     1      34.188 -17.663 -24.816  0.00  0.00    -0.106 NA
ATOM      3  N   UNL     1      33.747 -16.504 -25.427  0.00  0.00    -0.101 NA
ATOM      4  C   UNL     1      34.516 -17.316 -23.601  0.00  0.00    +0.251 A 
ATOM      5  C   UNL     1      33.848 -15.559 -24.522  0.00  0.00    +0.279 A 
ENDROOT
BRANCH   4  10
ATOM      6  O   UNL     1      34.103 -20.702 -20.092  0.00  0.00    -0.435 OA
ATOM      7  O   UNL     1      36.398 -20.428 -19.411  0.00  0.00    -0.435 OA
ATOM      8  C   UNL     1      34.754 -19.766 -20.835  0.00  0.00    +0.177 C 
ATOM      9  C   UNL     1      36.064 -19.610 -20.446  0.00  0.00    +0.176 C 
ATOM     10  C   UNL     1      35.038 -18.111 -22.515  0.00  0.00    +0.058 C 
ATOM     11  C   UNL     1      34.210 -19.031 -21.868  0.00  0.00    +0.045 C 
ATOM     12  C   UNL     1      36.904 -18.709 -21.069  0.00  0.00    +0.040 C 
ATOM     13  C   UNL     1      36.377 -17.951 -22.118  0.00  0.00    +0.008 C 
ATOM     14  C   UNL     1      35.151 -21.118 -19.192  0.00  0.00    +0.429 C 
ENDBRANCH   4  10
BRANCH   5  15
ATOM     15  S   UNL     1      33.412 -13.901 -24.805  0.00  0.00    -0.050 S 
BRANCH  15  16
ATOM     16  C   UNL     1      34.201 -13.089 -23.387  0.00  0.00    +0.093 C 
BRANCH  16  18
ATOM     17  F   UNL     1      31.010 -11.010 -20.359  0.00  0.00    -0.201 F 
ATOM     18  C   UNL     1      33.426 -11.889 -22.918  0.00  0.00    -0.008 C 
ATOM     19  C   UNL     1      32.564 -12.010 -21.836  0.00  0.00    +0.029 C 
ATOM     20  C   UNL     1      33.580 -10.675 -23.574  0.00  0.00    -0.000 C 
ATOM     21  C   UNL     1      31.992  -9.673 -22.055  0.00  0.00    +0.166 C 
ATOM     22  C   UNL     1      31.843 -10.897 -21.403  0.00  0.00    +0.174 C 
ATOM     23  C   UNL     1      32.861  -9.562 -23.140  0.00  0.00    +0.039 C 
BRANCH  21  24
ATOM     24  O   UNL     1      31.289  -8.586 -21.635  0.00  0.00    -0.469 OA
ATOM     25  C   UNL     1      31.081  -7.540 -22.583  0.00  0.00    +0.253 C 
ENDBRANCH  21  24
ENDBRANCH  16  18
ENDBRANCH  15  16
ENDBRANCH   5  15
TORSDOF 5
ENDMDL
MODEL 7
REMARK VINA RESULT:     -10.8      2.668      8.819
REMARK  Name = 2079916
REMARK  5 active torsions:
REMARK  status: ('A' for Active; 'I' for Inactive)
REMARK    1  A    between atoms: C_4  and  C_10
REMARK    2  A    between atoms: C_5  and  S_15
REMARK    3  A    between atoms: S_15  and  C_16
REMARK    4  A    between atoms: C_16  and  C_18
REMARK    5  A    between atoms: C_21  and  O_24
REMARK                            x       y       z     vdW  Elec       q    Type
REMARK                         _______ _______ _______ _____ _____    ______ ____
ROOT
ATOM      1  O   UNL     1      34.686 -15.743 -22.129  0.00  0.00    -0.411 OA
ATOM      2  N   UNL     1      34.772 -15.277 -19.943  0.00  0.00    -0.106 NA
ATOM      3  N   UNL     1      35.275 -16.551 -20.128  0.00  0.00    -0.101 NA
ATOM      4  C   UNL     1      34.445 -14.852 -21.134  0.00  0.00    +0.251 A 
ATOM      5  C   UNL     1      35.205 -16.781 -21.418  0.00  0.00    +0.279 A 
ENDROOT
BRANCH   4  10
ATOM      6  O   UNL     1      31.362 -11.088 -20.614  0.00  0.00    -0.435 OA
ATOM      7  O   UNL     1      32.158 -10.021 -22.623  0.00  0.00    -0.435 OA
ATOM      8  C   UNL     1      32.346 -11.804 -21.224  0.00  0.00    +0.177 C 
ATOM      9  C   UNL     1      32.800 -11.195 -22.371  0.00  0.00    +0.176 C 
ATOM     10  C   UNL     1      33.873 -13.594 -21.549  0.00  0.00    +0.058 C 
ATOM     11  C   UNL     1      32.862 -13.006 -20.785  0.00  0.00    +0.045 C 
ATOM     12  C   UNL     1      33.797 -11.754 -23.143  0.00  0.00    +0.040 C 
ATOM     13  C   UNL     1      34.338 -12.972 -22.722  0.00  0.00    +0.008 C 
ATOM     14  C   UNL     1      31.249  -9.960 -21.505  0.00  0.00    +0.429 C 
ENDBRANCH   4  10
BRANCH   5  15
ATOM     15  S   UNL     1      35.723 -18.265 -22.162  0.00  0.00    -0.050 S 
BRANCH  15  16
ATOM     16  C   UNL     1      34.347 -19.366 -21.730  0.00  0.00    +0.093 C 
BRANCH  16  18
ATOM     17  F   UNL     1      32.892 -22.140 -18.007  0.00  0.00    -0.201 F 
ATOM     18  C   UNL     1      34.652 -20.207 -20.522  0.00  0.00    -0.008 C 
ATOM     19  C   UNL     1      33.611 -20.794 -19.815  0.00  0.00    +0.029 C 
ATOM     20  C   UNL     1      35.971 -20.384 -20.127  0.00  0.00    -0.000 C 
ATOM     21  C   UNL     1      35.216 -21.756 -18.287  0.00  0.00    +0.166 C 
ATOM     22  C   UNL     1      33.894 -21.572 -18.692  0.00  0.00    +0.174 C 
ATOM     23  C   UNL     1      36.255 -21.163 -19.005  0.00  0.00    +0.039 C 
BRANCH  21  24
ATOM     24  O   UNL     1      35.494 -22.514 -17.192  0.00  0.00    -0.469 OA
ATOM     25  C   UNL     1      36.603 -22.111 -16.388  0.00  0.00    +0.253 C 
ENDBRANCH  21  24
ENDBRANCH  16  18
ENDBRANCH  15  16
ENDBRANCH   5  15
TORSDOF 5
ENDMDL
MODEL 8
REMARK VINA RESULT:     -10.8      2.704      8.781
REMARK  Name = 2079916
REMARK  5 active torsions:
REMARK  status: ('A' for Active; 'I' for Inactive)
REMARK    1  A    between atoms: C_4  and  C_10
REMARK    2  A    between atoms: C_5  and  S_15
REMARK    3  A    between atoms: S_15  and  C_16
REMARK    4  A    between atoms: C_16  and  C_18
REMARK    5  A    between atoms: C_21  and  O_24
REMARK                            x       y       z     vdW  Elec       q    Type
REMARK                         _______ _______ _______ _____ _____    ______ ____
ROOT
ATOM      1  O   UNL     1      33.991 -15.264 -23.332  0.00  0.00    -0.411 OA
ATOM      2  N   UNL     1      33.765 -14.642 -25.468  0.00  0.00    -0.106 NA
ATOM      3  N   UNL     1      34.100 -15.983 -25.447  0.00  0.00    -0.101 NA
ATOM      4  C   UNL     1      33.714 -14.273 -24.216  0.00  0.00    +0.251 A 
ATOM      5  C   UNL     1      34.223 -16.303 -24.180  0.00  0.00    +0.279 A 
ENDROOT
BRANCH   4  10
ATOM      6  O   UNL     1      31.787 -11.402 -20.754  0.00  0.00    -0.435 OA
ATOM      7  O   UNL     1      32.488  -9.391 -21.882  0.00  0.00    -0.435 OA
ATOM      8  C   UNL     1      32.451 -11.664 -21.913  0.00  0.00    +0.177 C 
ATOM      9  C   UNL     1      32.850 -10.517 -22.557  0.00  0.00    +0.176 C 
ATOM     10  C   UNL     1      33.412 -12.987 -23.636  0.00  0.00    +0.058 C 
ATOM     11  C   UNL     1      32.717 -12.917 -22.427  0.00  0.00    +0.045 C 
ATOM     12  C   UNL     1      33.539 -10.557 -23.752  0.00  0.00    +0.040 C 
ATOM     13  C   UNL     1      33.821 -11.814 -24.295  0.00  0.00    +0.008 C 
ATOM     14  C   UNL     1      31.815  -9.960 -20.741  0.00  0.00    +0.429 C 
ENDBRANCH   4  10
BRANCH   5  15
ATOM     15  S   UNL     1      34.639 -17.897 -23.625  0.00  0.00    -0.050 S 
BRANCH  15  16
ATOM     16  C   UNL     1      35.518 -17.507 -22.086  0.00  0.00    +0.093 C 
BRANCH  16  18
ATOM     17  F   UNL     1      33.316 -21.132 -19.703  0.00  0.00    -0.201 F 
ATOM     18  C   UNL     1      35.565 -18.681 -21.147  0.00  0.00    -0.008 C 
ATOM     19  C   UNL     1      34.397 -19.374 -20.858  0.00  0.00    +0.029 C 
ATOM     20  C   UNL     1      36.776 -19.055 -20.579  0.00  0.00    -0.000 C 
ATOM     21  C   UNL     1      35.652 -20.845 -19.409  0.00  0.00    +0.166 C 
ATOM     22  C   UNL     1      34.441 -20.461 -19.985  0.00  0.00    +0.174 C 
ATOM     23  C   UNL     1      36.820 -20.142 -19.707  0.00  0.00    +0.039 C 
BRANCH  21  24
ATOM     24  O   UNL     1      35.697 -21.904 -18.556  0.00  0.00    -0.469 OA
ATOM     25  C   UNL     1      36.491 -21.758 -17.380  0.00  0.00    +0.253 C 
ENDBRANCH  21  24
ENDBRANCH  16  18
ENDBRANCH  15  16
ENDBRANCH   5  15
TORSDOF 5
ENDMDL
MODEL 9
REMARK VINA RESULT:     -10.7      4.670      7.060
REMARK  Name = 2079916
REMARK  5 active torsions:
REMARK  status: ('A' for Active; 'I' for Inactive)
REMARK    1  A    between atoms: C_4  and  C_10
REMARK    2  A    between atoms: C_5  and  S_15
REMARK    3  A    between atoms: S_15  and  C_16
REMARK    4  A    between atoms: C_16  and  C_18
REMARK    5  A    between atoms: C_21  and  O_24
REMARK                            x       y       z     vdW  Elec       q    Type
REMARK                         _______ _______ _______ _____ _____    ______ ____
ROOT
ATOM      1  O   UNL     1      34.668 -23.114 -16.227  0.00  0.00    -0.411 OA
ATOM      2  N   UNL     1      32.704 -23.403 -15.197  0.00  0.00    -0.106 NA
ATOM      3  N   UNL     1      32.451 -23.109 -16.524  0.00  0.00    -0.101 NA
ATOM      4  C   UNL     1      34.004 -23.394 -15.077  0.00  0.00    +0.251 A 
ATOM      5  C   UNL     1      33.625 -22.948 -17.086  0.00  0.00    +0.279 A 
ENDROOT
BRANCH   4  10
ATOM      6  O   UNL     1      38.311 -23.503 -12.755  0.00  0.00    -0.435 OA
ATOM      7  O   UNL     1      37.306 -24.279 -10.707  0.00  0.00    -0.435 OA
ATOM      8  C   UNL     1      36.963 -23.658 -12.867  0.00  0.00    +0.177 C 
ATOM      9  C   UNL     1      36.390 -24.101 -11.698  0.00  0.00    +0.176 C 
ATOM     10  C   UNL     1      34.834 -23.634 -13.921  0.00  0.00    +0.058 C 
ATOM     11  C   UNL     1      36.211 -23.414 -13.999  0.00  0.00    +0.045 C 
ATOM     12  C   UNL     1      35.032 -24.326 -11.594  0.00  0.00    +0.040 C 
ATOM     13  C   UNL     1      34.247 -24.087 -12.726  0.00  0.00    +0.008 C 
ATOM     14  C   UNL     1      38.521 -23.898 -11.385  0.00  0.00    +0.429 C 
ENDBRANCH   4  10
BRANCH   5  15
ATOM     15  S   UNL     1      33.845 -22.560 -18.767  0.00  0.00    -0.050 S 
BRANCH  15  16
ATOM     16  C   UNL     1      35.426 -21.672 -18.712  0.00  0.00    +0.093 C 
BRANCH  16  18
ATOM     17  F   UNL     1      37.934 -18.426 -21.328  0.00  0.00    -0.201 F 
ATOM     18  C   UNL     1      35.478 -20.546 -19.708  0.00  0.00    -0.008 C 
ATOM     19  C   UNL     1      36.705 -20.001 -20.062  0.00  0.00    +0.029 C 
ATOM     20  C   UNL     1      34.298 -20.064 -20.258  0.00  0.00    -0.000 C 
ATOM     21  C   UNL     1      35.572 -18.463 -21.542  0.00  0.00    +0.166 C 
ATOM     22  C   UNL     1      36.752 -18.954 -20.984  0.00  0.00    +0.174 C 
ATOM     23  C   UNL     1      34.345 -19.018 -21.180  0.00  0.00    +0.039 C 
BRANCH  21  24
ATOM     24  O   UNL     1      35.616 -17.442 -22.440  0.00  0.00    -0.469 OA
ATOM     25  C   UNL     1      34.693 -17.493 -23.528  0.00  0.00    +0.253 C 
ENDBRANCH  21  24
ENDBRANCH  16  18
ENDBRANCH  15  16
ENDBRANCH   5  15
TORSDOF 5
ENDMDL
