MODEL 1
REMARK VINA RESULT:     -11.6      0.000      0.000
REMARK  Name = 24901696
REMARK  4 active torsions:
REMARK  status: ('A' for Active; 'I' for Inactive)
REMARK    1  A    between atoms: C_5  and  C_16
REMARK    2  A    between atoms: C_7  and  C_10
REMARK    3  A    between atoms: C_16  and  C_17
REMARK    4  A    between atoms: C_22  and  O_23
REMARK                            x       y       z     vdW  Elec       q    Type
REMARK                         _______ _______ _______ _____ _____    ______ ____
ROOT
ATOM      1  N   UNL     1      34.384 -16.458 -23.462  0.00  0.00    -0.195 N 
ATOM      2  N   UNL     1      34.894 -17.081 -22.371  0.00  0.00    -0.163 NA
ATOM      3  N   UNL     1      33.745 -14.883 -24.846  0.00  0.00    -0.131 NA
ATOM      4  N   UNL     1      33.451 -16.104 -25.419  0.00  0.00    -0.127 NA
ATOM      5  C   UNL     1      34.303 -15.114 -23.679  0.00  0.00    +0.168 A 
ATOM      6  C   UNL     1      33.838 -17.043 -24.582  0.00  0.00    +0.186 A 
ATOM      7  C   UNL     1      34.835 -18.381 -22.431  0.00  0.00    +0.101 C 
ATOM      8  C   UNL     1      33.803 -18.451 -24.626  0.00  0.00    +0.042 C 
ATOM      9  C   UNL     1      34.284 -19.153 -23.591  0.00  0.00    +0.024 C 
ENDROOT
BRANCH   7  10
ATOM     10  C   UNL     1      35.357 -19.179 -21.290  0.00  0.00    +0.019 C 
ATOM     11  C   UNL     1      34.542 -20.124 -20.668  0.00  0.00    +0.002 C 
ATOM     12  C   UNL     1      36.665 -18.983 -20.844  0.00  0.00    +0.002 C 
ATOM     13  C   UNL     1      35.033 -20.873 -19.598  0.00  0.00    +0.000 C 
ATOM     14  C   UNL     1      37.155 -19.731 -19.774  0.00  0.00    +0.000 C 
ATOM     15  C   UNL     1      36.340 -20.677 -19.152  0.00  0.00    +0.000 C 
ENDBRANCH   7  10
BRANCH   5  16
ATOM     16  C   UNL     1      34.786 -14.112 -22.711  0.00  0.00    +0.094 C 
BRANCH  16  17
ATOM     17  C   UNL     1      33.693 -13.249 -22.096  0.00  0.00    -0.014 C 
ATOM     18  C   UNL     1      32.992 -13.702 -20.979  0.00  0.00    -0.001 C 
ATOM     19  C   UNL     1      33.392 -12.005 -22.651  0.00  0.00    -0.001 C 
ATOM     20  C   UNL     1      31.990 -12.911 -20.416  0.00  0.00    +0.036 C 
ATOM     21  C   UNL     1      32.390 -11.214 -22.089  0.00  0.00    +0.036 C 
ATOM     22  C   UNL     1      31.690 -11.667 -20.972  0.00  0.00    +0.134 C 
BRANCH  22  23
ATOM     23  O   UNL     1      30.712 -10.896 -20.422  0.00  0.00    -0.506 OA
ATOM     24  H   UNL     1      30.849  -9.976 -20.306  0.00  0.00    +0.292 HD
ENDBRANCH  22  23
ENDBRANCH  16  17
ENDBRANCH   5  16
TORSDOF 4
ENDMDL
MODEL 2
REMARK VINA RESULT:     -11.5      0.054      1.009
REMARK  Name = 24901696
REMARK  4 active torsions:
REMARK  status: ('A' for Active; 'I' for Inactive)
REMARK    1  A    between atoms: C_5  and  C_16
REMARK    2  A    between atoms: C_7  and  C_10
REMARK    3  A    between atoms: C_16  and  C_17
REMARK    4  A    between atoms: C_22  and  O_23
REMARK                            x       y       z     vdW  Elec       q    Type
REMARK                         _______ _______ _______ _____ _____    ______ ____
ROOT
ATOM      1  N   UNL     1      34.420 -16.474 -23.424  0.00  0.00    -0.195 N 
ATOM      2  N   UNL     1      34.918 -17.100 -22.329  0.00  0.00    -0.163 NA
ATOM      3  N   UNL     1      33.793 -14.894 -24.808  0.00  0.00    -0.131 NA
ATOM      4  N   UNL     1      33.511 -16.113 -25.390  0.00  0.00    -0.127 NA
ATOM      5  C   UNL     1      34.337 -15.129 -23.635  0.00  0.00    +0.168 A 
ATOM      6  C   UNL     1      33.891 -17.055 -24.553  0.00  0.00    +0.186 A 
ATOM      7  C   UNL     1      34.865 -18.400 -22.396  0.00  0.00    +0.101 C 
ATOM      8  C   UNL     1      33.862 -18.463 -24.605  0.00  0.00    +0.042 C 
ATOM      9  C   UNL     1      34.332 -19.168 -23.567  0.00  0.00    +0.024 C 
ENDROOT
BRANCH   7  10
ATOM     10  C   UNL     1      35.375 -19.202 -21.253  0.00  0.00    +0.019 C 
ATOM     11  C   UNL     1      34.540 -20.117 -20.614  0.00  0.00    +0.002 C 
ATOM     12  C   UNL     1      36.693 -19.040 -20.821  0.00  0.00    +0.002 C 
ATOM     13  C   UNL     1      35.019 -20.869 -19.541  0.00  0.00    +0.000 C 
ATOM     14  C   UNL     1      37.172 -19.792 -19.749  0.00  0.00    +0.000 C 
ATOM     15  C   UNL     1      36.335 -20.708 -19.109  0.00  0.00    +0.000 C 
ENDBRANCH   7  10
BRANCH   5  16
ATOM     16  C   UNL     1      34.803 -14.130 -22.655  0.00  0.00    +0.094 C 
BRANCH  16  17
ATOM     17  C   UNL     1      33.701 -13.264 -22.062  0.00  0.00    -0.014 C 
ATOM     18  C   UNL     1      33.379 -12.042 -22.653  0.00  0.00    -0.001 C 
ATOM     19  C   UNL     1      33.014 -13.691 -20.926  0.00  0.00    -0.001 C 
ATOM     20  C   UNL     1      32.369 -11.248 -22.109  0.00  0.00    +0.036 C 
ATOM     21  C   UNL     1      32.005 -12.897 -20.381  0.00  0.00    +0.036 C 
ATOM     22  C   UNL     1      31.683 -11.676 -20.972  0.00  0.00    +0.134 C 
BRANCH  22  23
ATOM     23  O   UNL     1      30.698 -10.900 -20.441  0.00  0.00    -0.506 OA
ATOM     24  H   UNL     1      29.974 -10.633 -20.972  0.00  0.00    +0.292 HD
ENDBRANCH  22  23
ENDBRANCH  16  17
ENDBRANCH   5  16
TORSDOF 4
ENDMDL
MODEL 3
REMARK VINA RESULT:     -10.8      6.035      9.198
REMARK  Name = 24901696
REMARK  4 active torsions:
REMARK  status: ('A' for Active; 'I' for Inactive)
REMARK    1  A    between atoms: C_5  and  C_16
REMARK    2  A    between atoms: C_7  and  C_10
REMARK    3  A    between atoms: C_16  and  C_17
REMARK    4  A    between atoms: C_22  and  O_23
REMARK                            x       y       z     vdW  Elec       q    Type
REMARK                         _______ _______ _______ _____ _____    ______ ____
ROOT
ATOM      1  N   UNL     1      33.643 -23.025 -16.692  0.00  0.00    -0.195 N 
ATOM      2  N   UNL     1      34.651 -23.564 -15.963  0.00  0.00    -0.163 NA
ATOM      3  N   UNL     1      32.548 -22.061 -18.328  0.00  0.00    -0.131 NA
ATOM      4  N   UNL     1      31.655 -22.321 -17.307  0.00  0.00    -0.127 NA
ATOM      5  C   UNL     1      33.729 -22.489 -17.944  0.00  0.00    +0.168 A 
ATOM      6  C   UNL     1      32.321 -22.899 -16.331  0.00  0.00    +0.186 A 
ATOM      7  C   UNL     1      34.281 -23.994 -14.790  0.00  0.00    +0.101 C 
ATOM      8  C   UNL     1      31.946 -23.389 -15.064  0.00  0.00    +0.042 C 
ATOM      9  C   UNL     1      32.876 -23.939 -14.271  0.00  0.00    +0.024 C 
ENDROOT
BRANCH   7  10
ATOM     10  C   UNL     1      35.298 -24.601 -13.892  0.00  0.00    +0.019 C 
ATOM     11  C   UNL     1      36.252 -25.477 -14.409  0.00  0.00    +0.002 C 
ATOM     12  C   UNL     1      35.298 -24.293 -12.531  0.00  0.00    +0.002 C 
ATOM     13  C   UNL     1      37.206 -26.047 -13.565  0.00  0.00    +0.000 C 
ATOM     14  C   UNL     1      36.252 -24.862 -11.688  0.00  0.00    +0.000 C 
ATOM     15  C   UNL     1      37.207 -25.739 -12.205  0.00  0.00    +0.000 C 
ENDBRANCH   7  10
BRANCH   5  16
ATOM     16  C   UNL     1      34.988 -22.426 -18.707  0.00  0.00    +0.094 C 
BRANCH  16  17
ATOM     17  C   UNL     1      35.219 -21.111 -19.439  0.00  0.00    -0.014 C 
ATOM     18  C   UNL     1      36.507 -20.586 -19.542  0.00  0.00    -0.001 C 
ATOM     19  C   UNL     1      34.141 -20.430 -20.006  0.00  0.00    -0.001 C 
ATOM     20  C   UNL     1      36.718 -19.381 -20.213  0.00  0.00    +0.036 C 
ATOM     21  C   UNL     1      34.352 -19.225 -20.676  0.00  0.00    +0.036 C 
ATOM     22  C   UNL     1      35.640 -18.701 -20.779  0.00  0.00    +0.134 C 
BRANCH  22  23
ATOM     23  O   UNL     1      35.846 -17.525 -21.433  0.00  0.00    -0.506 OA
ATOM     24  H   UNL     1      36.373 -17.504 -22.206  0.00  0.00    +0.292 HD
ENDBRANCH  22  23
ENDBRANCH  16  17
ENDBRANCH   5  16
TORSDOF 4
ENDMDL
MODEL 4
REMARK VINA RESULT:     -10.6      2.882      7.209
REMARK  Name = 24901696
REMARK  4 active torsions:
REMARK  status: ('A' for Active; 'I' for Inactive)
REMARK    1  A    between atoms: C_5  and  C_16
REMARK    2  A    between atoms: C_7  and  C_10
REMARK    3  A    between atoms: C_16  and  C_17
REMARK    4  A    between atoms: C_22  and  O_23
REMARK                            x       y       z     vdW  Elec       q    Type
REMARK                         _______ _______ _______ _____ _____    ______ ____
ROOT
ATOM      1  N   UNL     1      34.426 -16.043 -23.246  0.00  0.00    -0.195 N 
ATOM      2  N   UNL     1      34.102 -14.887 -22.614  0.00  0.00    -0.163 NA
ATOM      3  N   UNL     1      35.204 -18.057 -23.624  0.00  0.00    -0.131 NA
ATOM      4  N   UNL     1      34.658 -17.580 -24.798  0.00  0.00    -0.127 NA
ATOM      5  C   UNL     1      35.055 -17.126 -22.708  0.00  0.00    +0.168 A 
ATOM      6  C   UNL     1      34.193 -16.371 -24.562  0.00  0.00    +0.186 A 
ATOM      7  C   UNL     1      33.510 -14.016 -23.380  0.00  0.00    +0.101 C 
ATOM      8  C   UNL     1      33.535 -15.415 -25.362  0.00  0.00    +0.042 C 
ATOM      9  C   UNL     1      33.177 -14.242 -24.823  0.00  0.00    +0.024 C 
ENDROOT
BRANCH   7  10
ATOM     10  C   UNL     1      33.110 -12.705 -22.804  0.00  0.00    +0.019 C 
ATOM     11  C   UNL     1      32.324 -12.658 -21.653  0.00  0.00    +0.002 C 
ATOM     12  C   UNL     1      33.525 -11.520 -23.414  0.00  0.00    +0.002 C 
ATOM     13  C   UNL     1      31.949 -11.428 -21.114  0.00  0.00    +0.000 C 
ATOM     14  C   UNL     1      33.150 -10.290 -22.875  0.00  0.00    +0.000 C 
ATOM     15  C   UNL     1      32.363 -10.244 -21.723  0.00  0.00    +0.000 C 
ENDBRANCH   7  10
BRANCH   5  16
ATOM     16  C   UNL     1      35.484 -17.190 -21.299  0.00  0.00    +0.094 C 
BRANCH  16  17
ATOM     17  C   UNL     1      35.420 -18.579 -20.680  0.00  0.00    -0.014 C 
ATOM     18  C   UNL     1      36.590 -19.207 -20.253  0.00  0.00    -0.001 C 
ATOM     19  C   UNL     1      34.192 -19.225 -20.541  0.00  0.00    -0.001 C 
ATOM     20  C   UNL     1      36.531 -20.481 -19.687  0.00  0.00    +0.036 C 
ATOM     21  C   UNL     1      34.132 -20.498 -19.975  0.00  0.00    +0.036 C 
ATOM     22  C   UNL     1      35.302 -21.126 -19.548  0.00  0.00    +0.134 C 
BRANCH  22  23
ATOM     23  O   UNL     1      35.245 -22.369 -18.996  0.00  0.00    -0.506 OA
ATOM     24  H   UNL     1      34.686 -23.022 -19.367  0.00  0.00    +0.292 HD
ENDBRANCH  22  23
ENDBRANCH  16  17
ENDBRANCH   5  16
TORSDOF 4
ENDMDL
MODEL 5
REMARK VINA RESULT:     -10.5      2.883      7.296
REMARK  Name = 24901696
REMARK  4 active torsions:
REMARK  status: ('A' for Active; 'I' for Inactive)
REMARK    1  A    between atoms: C_5  and  C_16
REMARK    2  A    between atoms: C_7  and  C_10
REMARK    3  A    between atoms: C_16  and  C_17
REMARK    4  A    between atoms: C_22  and  O_23
REMARK                            x       y       z     vdW  Elec       q    Type
REMARK                         _______ _______ _______ _____ _____    ______ ____
ROOT
ATOM      1  N   UNL     1      34.328 -15.704 -23.279  0.00  0.00    -0.195 N 
ATOM      2  N   UNL     1      34.010 -14.555 -22.634  0.00  0.00    -0.163 NA
ATOM      3  N   UNL     1      35.079 -17.725 -23.675  0.00  0.00    -0.131 NA
ATOM      4  N   UNL     1      34.569 -17.217 -24.853  0.00  0.00    -0.127 NA
ATOM      5  C   UNL     1      34.925 -16.808 -22.746  0.00  0.00    +0.168 A 
ATOM      6  C   UNL     1      34.120 -16.005 -24.606  0.00  0.00    +0.186 A 
ATOM      7  C   UNL     1      33.451 -13.659 -23.397  0.00  0.00    +0.101 C 
ATOM      8  C   UNL     1      33.498 -15.024 -25.404  0.00  0.00    +0.042 C 
ATOM      9  C   UNL     1      33.148 -13.854 -24.852  0.00  0.00    +0.024 C 
ENDROOT
BRANCH   7  10
ATOM     10  C   UNL     1      33.061 -12.352 -22.807  0.00  0.00    +0.019 C 
ATOM     11  C   UNL     1      33.444 -11.164 -23.429  0.00  0.00    +0.002 C 
ATOM     12  C   UNL     1      32.310 -12.314 -21.632  0.00  0.00    +0.002 C 
ATOM     13  C   UNL     1      33.078  -9.937 -22.875  0.00  0.00    +0.000 C 
ATOM     14  C   UNL     1      31.944 -11.087 -21.078  0.00  0.00    +0.000 C 
ATOM     15  C   UNL     1      32.327  -9.898 -21.700  0.00  0.00    +0.000 C 
ENDBRANCH   7  10
BRANCH   5  16
ATOM     16  C   UNL     1      35.320 -16.905 -21.329  0.00  0.00    +0.094 C 
BRANCH  16  17
ATOM     17  C   UNL     1      35.320 -18.319 -20.767  0.00  0.00    -0.014 C 
ATOM     18  C   UNL     1      34.118 -19.013 -20.626  0.00  0.00    -0.001 C 
ATOM     19  C   UNL     1      36.521 -18.921 -20.392  0.00  0.00    -0.001 C 
ATOM     20  C   UNL     1      34.118 -20.310 -20.109  0.00  0.00    +0.036 C 
ATOM     21  C   UNL     1      36.521 -20.216 -19.875  0.00  0.00    +0.036 C 
ATOM     22  C   UNL     1      35.320 -20.910 -19.734  0.00  0.00    +0.134 C 
BRANCH  22  23
ATOM     23  O   UNL     1      35.319 -22.175 -19.230  0.00  0.00    -0.506 OA
ATOM     24  H   UNL     1      35.983 -22.439 -18.624  0.00  0.00    +0.292 HD
ENDBRANCH  22  23
ENDBRANCH  16  17
ENDBRANCH   5  16
TORSDOF 4
ENDMDL
MODEL 6
REMARK VINA RESULT:     -10.5      6.003      9.334
REMARK  Name = 24901696
REMARK  4 active torsions:
REMARK  status: ('A' for Active; 'I' for Inactive)
REMARK    1  A    between atoms: C_5  and  C_16
REMARK    2  A    between atoms: C_7  and  C_10
REMARK    3  A    between atoms: C_16  and  C_17
REMARK    4  A    between atoms: C_22  and  O_23
REMARK                            x       y       z     vdW  Elec       q    Type
REMARK                         _______ _______ _______ _____ _____    ______ ____
ROOT
ATOM      1  N   UNL     1      34.515 -22.740 -16.480  0.00  0.00    -0.195 N 
ATOM      2  N   UNL     1      33.192 -23.038 -16.473  0.00  0.00    -0.163 NA
ATOM      3  N   UNL     1      36.511 -22.160 -17.179  0.00  0.00    -0.131 NA
ATOM      4  N   UNL     1      36.586 -22.414 -15.824  0.00  0.00    -0.127 NA
ATOM      5  C   UNL     1      35.267 -22.358 -17.553  0.00  0.00    +0.168 A 
ATOM      6  C   UNL     1      35.384 -22.761 -15.414  0.00  0.00    +0.186 A 
ATOM      7  C   UNL     1      32.736 -23.382 -15.303  0.00  0.00    +0.101 C 
ATOM      8  C   UNL     1      34.859 -23.121 -14.157  0.00  0.00    +0.042 C 
ATOM      9  C   UNL     1      33.560 -23.433 -14.052  0.00  0.00    +0.024 C 
ENDROOT
BRANCH   7  10
ATOM     10  C   UNL     1      31.300 -23.739 -15.166  0.00  0.00    +0.019 C 
ATOM     11  C   UNL     1      30.332 -23.021 -15.869  0.00  0.00    +0.002 C 
ATOM     12  C   UNL     1      30.919 -24.794 -14.335  0.00  0.00    +0.002 C 
ATOM     13  C   UNL     1      28.984 -23.356 -15.741  0.00  0.00    +0.000 C 
ATOM     14  C   UNL     1      29.572 -25.128 -14.207  0.00  0.00    +0.000 C 
ATOM     15  C   UNL     1      28.604 -24.410 -14.910  0.00  0.00    +0.000 C 
ENDBRANCH   7  10
BRANCH   5  16
ATOM     16  C   UNL     1      34.713 -22.207 -18.911  0.00  0.00    +0.094 C 
BRANCH  16  17
ATOM     17  C   UNL     1      35.099 -20.911 -19.611  0.00  0.00    -0.014 C 
ATOM     18  C   UNL     1      34.117 -20.119 -20.203  0.00  0.00    -0.001 C 
ATOM     19  C   UNL     1      36.436 -20.518 -19.661  0.00  0.00    -0.001 C 
ATOM     20  C   UNL     1      34.472 -18.932 -20.846  0.00  0.00    +0.036 C 
ATOM     21  C   UNL     1      36.792 -19.332 -20.303  0.00  0.00    +0.036 C 
ATOM     22  C   UNL     1      35.809 -18.540 -20.896  0.00  0.00    +0.134 C 
BRANCH  22  23
ATOM     23  O   UNL     1      36.155 -17.382 -21.523  0.00  0.00    -0.506 OA
ATOM     24  H   UNL     1      36.991 -16.992 -21.361  0.00  0.00    +0.292 HD
ENDBRANCH  22  23
ENDBRANCH  16  17
ENDBRANCH   5  16
TORSDOF 4
ENDMDL
MODEL 7
REMARK VINA RESULT:     -10.4      5.917      9.217
REMARK  Name = 24901696
REMARK  4 active torsions:
REMARK  status: ('A' for Active; 'I' for Inactive)
REMARK    1  A    between atoms: C_5  and  C_16
REMARK    2  A    between atoms: C_7  and  C_10
REMARK    3  A    between atoms: C_16  and  C_17
REMARK    4  A    between atoms: C_22  and  O_23
REMARK                            x       y       z     vdW  Elec       q    Type
REMARK                         _______ _______ _______ _____ _____    ______ ____
ROOT
ATOM      1  N   UNL     1      34.586 -22.641 -16.649  0.00  0.00    -0.195 N 
ATOM      2  N   UNL     1      33.264 -22.921 -16.532  0.00  0.00    -0.163 NA
ATOM      3  N   UNL     1      36.514 -22.034 -17.498  0.00  0.00    -0.131 NA
ATOM      4  N   UNL     1      36.717 -22.390 -16.179  0.00  0.00    -0.127 NA
ATOM      5  C   UNL     1      35.235 -22.189 -17.760  0.00  0.00    +0.168 A 
ATOM      6  C   UNL     1      35.555 -22.752 -15.678  0.00  0.00    +0.186 A 
ATOM      7  C   UNL     1      32.919 -23.347 -15.350  0.00  0.00    +0.101 C 
ATOM      8  C   UNL     1      35.149 -23.199 -14.405  0.00  0.00    +0.042 C 
ATOM      9  C   UNL     1      33.861 -23.501 -14.195  0.00  0.00    +0.024 C 
ENDROOT
BRANCH   7  10
ATOM     10  C   UNL     1      31.496 -23.694 -15.097  0.00  0.00    +0.019 C 
ATOM     11  C   UNL     1      31.164 -24.571 -14.064  0.00  0.00    +0.002 C 
ATOM     12  C   UNL     1      30.491 -23.141 -15.893  0.00  0.00    +0.002 C 
ATOM     13  C   UNL     1      29.828 -24.897 -13.828  0.00  0.00    +0.000 C 
ATOM     14  C   UNL     1      29.156 -23.468 -15.656  0.00  0.00    +0.000 C 
ATOM     15  C   UNL     1      28.824 -24.345 -14.622  0.00  0.00    +0.000 C 
ENDBRANCH   7  10
BRANCH   5  16
ATOM     16  C   UNL     1      34.553 -21.929 -19.041  0.00  0.00    +0.094 C 
BRANCH  16  17
ATOM     17  C   UNL     1      35.085 -20.727 -19.809  0.00  0.00    -0.014 C 
ATOM     18  C   UNL     1      34.231 -19.988 -20.627  0.00  0.00    -0.001 C 
ATOM     19  C   UNL     1      36.428 -20.366 -19.695  0.00  0.00    -0.001 C 
ATOM     20  C   UNL     1      34.720 -18.887 -21.331  0.00  0.00    +0.036 C 
ATOM     21  C   UNL     1      36.916 -19.265 -20.399  0.00  0.00    +0.036 C 
ATOM     22  C   UNL     1      36.062 -18.527 -21.217  0.00  0.00    +0.134 C 
BRANCH  22  23
ATOM     23  O   UNL     1      36.538 -17.452 -21.904  0.00  0.00    -0.506 OA
ATOM     24  H   UNL     1      37.382 -17.491 -22.309  0.00  0.00    +0.292 HD
ENDBRANCH  22  23
ENDBRANCH  16  17
ENDBRANCH   5  16
TORSDOF 4
ENDMDL
MODEL 8
REMARK VINA RESULT:      -9.9      3.887      9.162
REMARK  Name = 24901696
REMARK  4 active torsions:
REMARK  status: ('A' for Active; 'I' for Inactive)
REMARK    1  A    between atoms: C_5  and  C_16
REMARK    2  A    between atoms: C_7  and  C_10
REMARK    3  A    between atoms: C_16  and  C_17
REMARK    4  A    between atoms: C_22  and  O_23
REMARK                            x       y       z     vdW  Elec       q    Type
REMARK                         _______ _______ _______ _____ _____    ______ ____
ROOT
ATOM      1  N   UNL     1      32.609 -11.425 -21.786  0.00  0.00    -0.195 N 
ATOM      2  N   UNL     1      32.825 -10.283 -22.485  0.00  0.00    -0.163 NA
ATOM      3  N   UNL     1      32.714 -13.517 -21.139  0.00  0.00    -0.131 NA
ATOM      4  N   UNL     1      31.841 -12.851 -20.302  0.00  0.00    -0.127 NA
ATOM      5  C   UNL     1      33.164 -12.649 -22.018  0.00  0.00    +0.168 A 
ATOM      6  C   UNL     1      31.785 -11.597 -20.698  0.00  0.00    +0.186 A 
ATOM      7  C   UNL     1      32.152  -9.260 -22.044  0.00  0.00    +0.101 C 
ATOM      8  C   UNL     1      31.082 -10.468 -20.232  0.00  0.00    +0.042 C 
ATOM      9  C   UNL     1      31.232  -9.295 -20.861  0.00  0.00    +0.024 C 
ENDROOT
BRANCH   7  10
ATOM     10  C   UNL     1      32.299  -7.950 -22.732  0.00  0.00    +0.019 C 
ATOM     11  C   UNL     1      31.189  -7.339 -23.314  0.00  0.00    +0.002 C 
ATOM     12  C   UNL     1      33.549  -7.331 -22.793  0.00  0.00    +0.002 C 
ATOM     13  C   UNL     1      31.328  -6.110 -23.960  0.00  0.00    +0.000 C 
ATOM     14  C   UNL     1      33.687  -6.103 -23.438  0.00  0.00    +0.000 C 
ATOM     15  C   UNL     1      32.576  -5.491 -24.021  0.00  0.00    +0.000 C 
ENDBRANCH   7  10
BRANCH   5  16
ATOM     16  C   UNL     1      34.121 -12.905 -23.109  0.00  0.00    +0.094 C 
BRANCH  16  17
ATOM     17  C   UNL     1      34.157 -14.348 -23.594  0.00  0.00    -0.014 C 
ATOM     18  C   UNL     1      33.375 -14.738 -24.681  0.00  0.00    -0.001 C 
ATOM     19  C   UNL     1      34.971 -15.280 -22.951  0.00  0.00    -0.001 C 
ATOM     20  C   UNL     1      33.407 -16.060 -25.125  0.00  0.00    +0.036 C 
ATOM     21  C   UNL     1      35.004 -16.602 -23.394  0.00  0.00    +0.036 C 
ATOM     22  C   UNL     1      34.221 -16.991 -24.481  0.00  0.00    +0.134 C 
BRANCH  22  23
ATOM     23  O   UNL     1      34.253 -18.282 -24.914  0.00  0.00    -0.506 OA
ATOM     24  H   UNL     1      34.925 -18.861 -24.615  0.00  0.00    +0.292 HD
ENDBRANCH  22  23
ENDBRANCH  16  17
ENDBRANCH   5  16
TORSDOF 4
ENDMDL
MODEL 9
REMARK VINA RESULT:      -9.7      6.131      9.166
REMARK  Name = 24901696
REMARK  4 active torsions:
REMARK  status: ('A' for Active; 'I' for Inactive)
REMARK    1  A    between atoms: C_5  and  C_16
REMARK    2  A    between atoms: C_7  and  C_10
REMARK    3  A    between atoms: C_16  and  C_17
REMARK    4  A    between atoms: C_22  and  O_23
REMARK                            x       y       z     vdW  Elec       q    Type
REMARK                         _______ _______ _______ _____ _____    ______ ____
ROOT
ATOM      1  N   UNL     1      33.001 -22.501 -17.180  0.00  0.00    -0.195 N 
ATOM      2  N   UNL     1      31.657 -22.330 -17.123  0.00  0.00    -0.163 NA
ATOM      3  N   UNL     1      35.075 -22.442 -17.888  0.00  0.00    -0.131 NA
ATOM      4  N   UNL     1      35.056 -23.083 -16.665  0.00  0.00    -0.127 NA
ATOM      5  C   UNL     1      33.840 -22.100 -18.178  0.00  0.00    +0.168 A 
ATOM      6  C   UNL     1      33.808 -23.113 -16.248  0.00  0.00    +0.186 A 
ATOM      7  C   UNL     1      31.108 -22.823 -16.050  0.00  0.00    +0.101 C 
ATOM      8  C   UNL     1      33.189 -23.621 -15.089  0.00  0.00    +0.042 C 
ATOM      9  C   UNL     1      31.862 -23.500 -14.945  0.00  0.00    +0.024 C 
ENDROOT
BRANCH   7  10
ATOM     10  C   UNL     1      29.637 -22.705 -15.874  0.00  0.00    +0.019 C 
ATOM     11  C   UNL     1      28.781 -23.007 -16.933  0.00  0.00    +0.002 C 
ATOM     12  C   UNL     1      29.112 -22.294 -14.648  0.00  0.00    +0.002 C 
ATOM     13  C   UNL     1      27.400 -22.896 -16.767  0.00  0.00    +0.000 C 
ATOM     14  C   UNL     1      27.732 -22.183 -14.483  0.00  0.00    +0.000 C 
ATOM     15  C   UNL     1      26.875 -22.485 -15.542  0.00  0.00    +0.000 C 
ENDBRANCH   7  10
BRANCH   5  16
ATOM     16  C   UNL     1      33.374 -21.392 -19.385  0.00  0.00    +0.094 C 
BRANCH  16  17
ATOM     17  C   UNL     1      34.416 -20.487 -20.028  0.00  0.00    -0.014 C 
ATOM     18  C   UNL     1      35.746 -20.550 -19.614  0.00  0.00    -0.001 C 
ATOM     19  C   UNL     1      34.039 -19.595 -21.031  0.00  0.00    -0.001 C 
ATOM     20  C   UNL     1      36.700 -19.720 -20.204  0.00  0.00    +0.036 C 
ATOM     21  C   UNL     1      34.992 -18.765 -21.621  0.00  0.00    +0.036 C 
ATOM     22  C   UNL     1      36.322 -18.827 -21.207  0.00  0.00    +0.134 C 
BRANCH  22  23
ATOM     23  O   UNL     1      37.253 -18.017 -21.782  0.00  0.00    -0.506 OA
ATOM     24  H   UNL     1      37.866 -18.370 -22.396  0.00  0.00    +0.292 HD
ENDBRANCH  22  23
ENDBRANCH  16  17
ENDBRANCH   5  16
TORSDOF 4
ENDMDL
