MODEL 1
REMARK VINA RESULT:     -12.2      0.000      0.000
REMARK  Name = 6914614
REMARK  7 active torsions:
REMARK  status: ('A' for Active; 'I' for Inactive)
REMARK    1  A    between atoms: O_1  and  C_4
REMARK    2  A    between atoms: O_1  and  C_18
REMARK    3  A    between atoms: C_9  and  C_13
REMARK    4  A    between atoms: C_18  and  C_19
REMARK    5  A    between atoms: C_19  and  N_20
REMARK    6  A    between atoms: C_19  and  C_24
REMARK    7  A    between atoms: C_24  and  C_26
REMARK                            x       y       z     vdW  Elec       q    Type
REMARK                         _______ _______ _______ _____ _____    ______ ____
ROOT
ATOM      1  O   UNL     1      35.981 -20.486 -19.393  0.00  0.00    -0.476 OA
ENDROOT
BRANCH   1   4
ATOM      2  N   UNL     1      34.990 -23.420 -15.687  0.00  0.00    -0.404 NA
ATOM      3  N   UNL     1      32.978 -22.330 -18.532  0.00  0.00    -0.258 NA
ATOM      4  C   UNL     1      35.154 -21.309 -18.693  0.00  0.00    +0.159 C 
ATOM      5  C   UNL     1      35.553 -21.945 -17.511  0.00  0.00    +0.063 C 
ATOM      6  C   UNL     1      34.656 -22.785 -16.828  0.00  0.00    +0.136 C 
ATOM      7  C   UNL     1      36.834 -21.774 -16.972  0.00  0.00    +0.008 C 
ATOM      8  C   UNL     1      33.870 -21.533 -19.155  0.00  0.00    +0.130 C 
ATOM      9  C   UNL     1      36.238 -23.228 -15.199  0.00  0.00    +0.131 C 
ATOM     10  C   UNL     1      37.188 -22.425 -15.797  0.00  0.00    +0.032 C 
ATOM     11  C   UNL     1      33.400 -22.928 -17.392  0.00  0.00    +0.184 C 
BRANCH   9  13
ATOM     12  N   UNL     1      37.085 -25.316 -11.605  0.00  0.00    -0.242 NA
ATOM     13  C   UNL     1      36.526 -23.939 -13.976  0.00  0.00    +0.033 C 
ATOM     14  C   UNL     1      37.769 -24.537 -13.790  0.00  0.00    +0.023 C 
ATOM     15  C   UNL     1      35.564 -24.030 -12.975  0.00  0.00    +0.023 C 
ATOM     16  C   UNL     1      37.997 -25.207 -12.598  0.00  0.00    +0.099 C 
ATOM     17  C   UNL     1      35.890 -24.723 -11.820  0.00  0.00    +0.099 C 
ENDBRANCH   9  13
ENDBRANCH   1   4
BRANCH   1  18
ATOM     18  C   UNL     1      35.439 -19.849 -20.550  0.00  0.00    +0.184 C 
BRANCH  18  19
ATOM     19  C   UNL     1      36.205 -18.569 -20.907  0.00  0.00    -0.017 C 
BRANCH  19  20
ATOM     20  N   UNL     1      37.643 -18.864 -20.890  0.00  0.00    +0.384 N 
ATOM     21  H   UNL     1      38.152 -18.099 -21.335  0.00  0.00    -0.089 HD
ATOM     22  H   UNL     1      37.819 -19.730 -21.398  0.00  0.00    -0.089 HD
ATOM     23  H   UNL     1      37.958 -18.965 -19.925  0.00  0.00    -0.089 HD
ENDBRANCH  19  20
BRANCH  19  24
ATOM     24  C   UNL     1      35.841 -17.984 -22.285  0.00  0.00    +0.009 C 
BRANCH  24  26
ATOM     25  N   UNL     1      34.509 -14.693 -21.431  0.00  0.00    -0.312 N 
ATOM     26  C   UNL     1      35.218 -16.618 -22.212  0.00  0.00    -0.008 C 
ATOM     27  C   UNL     1      34.625 -15.927 -23.285  0.00  0.00    +0.011 C 
ATOM     28  C   UNL     1      34.182 -14.708 -22.768  0.00  0.00    +0.048 C 
ATOM     29  C   UNL     1      35.143 -15.857 -21.086  0.00  0.00    +0.058 C 
ATOM     30  C   UNL     1      34.413 -16.201 -24.651  0.00  0.00    +0.001 C 
ATOM     31  C   UNL     1      33.535 -13.745 -23.551  0.00  0.00    +0.015 C 
ATOM     32  C   UNL     1      33.767 -15.248 -25.447  0.00  0.00    +0.000 C 
ATOM     33  C   UNL     1      33.335 -14.039 -24.903  0.00  0.00    +0.001 C 
ATOM     34  H   UNL     1      34.316 -13.953 -20.812  0.00  0.00    +0.152 HD
ENDBRANCH  24  26
ENDBRANCH  19  24
ENDBRANCH  18  19
ENDBRANCH   1  18
TORSDOF 7
ENDMDL
MODEL 2
REMARK VINA RESULT:     -12.2      2.835     11.031
REMARK  Name = 6914614
REMARK  7 active torsions:
REMARK  status: ('A' for Active; 'I' for Inactive)
REMARK    1  A    between atoms: O_1  and  C_4
REMARK    2  A    between atoms: O_1  and  C_18
REMARK    3  A    between atoms: C_9  and  C_13
REMARK    4  A    between atoms: C_18  and  C_19
REMARK    5  A    between atoms: C_19  and  N_20
REMARK    6  A    between atoms: C_19  and  C_24
REMARK    7  A    between atoms: C_24  and  C_26
REMARK                            x       y       z     vdW  Elec       q    Type
REMARK                         _______ _______ _______ _____ _____    ______ ____
ROOT
ATOM      1  O   UNL     1      35.732 -17.077 -22.784  0.00  0.00    -0.476 OA
ENDROOT
BRANCH   1   4
ATOM      2  N   UNL     1      32.916 -13.197 -23.364  0.00  0.00    -0.404 NA
ATOM      3  N   UNL     1      33.843 -15.893 -25.645  0.00  0.00    -0.258 NA
ATOM      4  C   UNL     1      34.915 -16.280 -23.523  0.00  0.00    +0.159 C 
ATOM      5  C   UNL     1      34.335 -15.114 -23.005  0.00  0.00    +0.063 C 
ATOM      6  C   UNL     1      33.499 -14.327 -23.814  0.00  0.00    +0.136 C 
ATOM      7  C   UNL     1      34.561 -14.695 -21.688  0.00  0.00    +0.008 C 
ATOM      8  C   UNL     1      34.639 -16.620 -24.835  0.00  0.00    +0.130 C 
ATOM      9  C   UNL     1      33.159 -12.827 -22.086  0.00  0.00    +0.131 C 
ATOM     10  C   UNL     1      33.965 -13.534 -21.215  0.00  0.00    +0.032 C 
ATOM     11  C   UNL     1      33.301 -14.774 -25.110  0.00  0.00    +0.184 C 
BRANCH   9  13
ATOM     12  N   UNL     1      31.233  -9.248 -20.871  0.00  0.00    -0.242 NA
ATOM     13  C   UNL     1      32.504 -11.608 -21.672  0.00  0.00    +0.033 C 
ATOM     14  C   UNL     1      31.687 -11.601 -20.546  0.00  0.00    +0.023 C 
ATOM     15  C   UNL     1      32.684 -10.435 -22.398  0.00  0.00    +0.023 C 
ATOM     16  C   UNL     1      31.081 -10.406 -20.190  0.00  0.00    +0.099 C 
ATOM     17  C   UNL     1      32.032  -9.293 -21.960  0.00  0.00    +0.099 C 
ENDBRANCH   9  13
ENDBRANCH   1   4
BRANCH   1  18
ATOM     18  C   UNL     1      35.342 -18.441 -22.627  0.00  0.00    +0.184 C 
BRANCH  18  19
ATOM     19  C   UNL     1      35.692 -18.976 -21.233  0.00  0.00    -0.017 C 
BRANCH  19  20
ATOM     20  N   UNL     1      35.654 -17.861 -20.280  0.00  0.00    +0.384 N 
ATOM     21  H   UNL     1      34.882 -17.237 -20.516  0.00  0.00    -0.089 HD
ATOM     22  H   UNL     1      36.533 -17.346 -20.324  0.00  0.00    -0.089 HD
ATOM     23  H   UNL     1      35.520 -18.224 -19.336  0.00  0.00    -0.089 HD
ENDBRANCH  19  20
BRANCH  19  24
ATOM     24  C   UNL     1      34.744 -20.082 -20.729  0.00  0.00    +0.009 C 
BRANCH  24  26
ATOM     25  N   UNL     1      36.647 -21.658 -18.041  0.00  0.00    -0.312 N 
ATOM     26  C   UNL     1      35.269 -20.826 -19.534  0.00  0.00    -0.008 C 
ATOM     27  C   UNL     1      34.494 -21.558 -18.615  0.00  0.00    +0.011 C 
ATOM     28  C   UNL     1      35.387 -22.078 -17.676  0.00  0.00    +0.048 C 
ATOM     29  C   UNL     1      36.580 -20.894 -19.175  0.00  0.00    +0.058 C 
ATOM     30  C   UNL     1      33.120 -21.840 -18.472  0.00  0.00    +0.001 C 
ATOM     31  C   UNL     1      34.975 -22.868 -16.597  0.00  0.00    +0.015 C 
ATOM     32  C   UNL     1      32.693 -22.629 -17.399  0.00  0.00    +0.000 C 
ATOM     33  C   UNL     1      33.608 -23.135 -16.476  0.00  0.00    +0.001 C 
ATOM     34  H   UNL     1      37.475 -21.877 -17.557  0.00  0.00    +0.152 HD
ENDBRANCH  24  26
ENDBRANCH  19  24
ENDBRANCH  18  19
ENDBRANCH   1  18
TORSDOF 7
ENDMDL
MODEL 3
REMARK VINA RESULT:     -12.0      2.304     10.001
REMARK  Name = 6914614
REMARK  7 active torsions:
REMARK  status: ('A' for Active; 'I' for Inactive)
REMARK    1  A    between atoms: O_1  and  C_4
REMARK    2  A    between atoms: O_1  and  C_18
REMARK    3  A    between atoms: C_9  and  C_13
REMARK    4  A    between atoms: C_18  and  C_19
REMARK    5  A    between atoms: C_19  and  N_20
REMARK    6  A    between atoms: C_19  and  C_24
REMARK    7  A    between atoms: C_24  and  C_26
REMARK                            x       y       z     vdW  Elec       q    Type
REMARK                         _______ _______ _______ _____ _____    ______ ____
ROOT
ATOM      1  O   UNL     1      36.235 -22.346 -17.978  0.00  0.00    -0.476 OA
ENDROOT
BRANCH   1   4
ATOM      2  N   UNL     1      33.910 -19.347 -20.966  0.00  0.00    -0.404 NA
ATOM      3  N   UNL     1      32.709 -21.991 -18.753  0.00  0.00    -0.258 NA
ATOM      4  C   UNL     1      35.107 -21.859 -18.561  0.00  0.00    +0.159 C 
ATOM      5  C   UNL     1      35.134 -20.814 -19.493  0.00  0.00    +0.063 C 
ATOM      6  C   UNL     1      33.938 -20.349 -20.064  0.00  0.00    +0.136 C 
ATOM      7  C   UNL     1      36.332 -20.202 -19.886  0.00  0.00    +0.008 C 
ATOM      8  C   UNL     1      33.881 -22.406 -18.229  0.00  0.00    +0.130 C 
ATOM      9  C   UNL     1      35.088 -18.782 -21.319  0.00  0.00    +0.131 C 
ATOM     10  C   UNL     1      36.314 -19.168 -20.813  0.00  0.00    +0.032 C 
ATOM     11  C   UNL     1      32.776 -20.980 -19.651  0.00  0.00    +0.184 C 
BRANCH   9  13
ATOM     12  N   UNL     1      34.779 -15.651 -24.163  0.00  0.00    -0.242 NA
ATOM     13  C   UNL     1      34.983 -17.717 -22.287  0.00  0.00    +0.033 C 
ATOM     14  C   UNL     1      35.312 -16.412 -21.931  0.00  0.00    +0.023 C 
ATOM     15  C   UNL     1      34.552 -17.987 -23.582  0.00  0.00    +0.023 C 
ATOM     16  C   UNL     1      35.196 -15.425 -22.896  0.00  0.00    +0.099 C 
ATOM     17  C   UNL     1      34.468 -16.929 -24.474  0.00  0.00    +0.099 C 
ENDBRANCH   9  13
ENDBRANCH   1   4
BRANCH   1  18
ATOM     18  C   UNL     1      36.459 -22.010 -16.609  0.00  0.00    +0.184 C 
BRANCH  18  19
ATOM     19  C   UNL     1      35.853 -23.053 -15.661  0.00  0.00    -0.017 C 
BRANCH  19  20
ATOM     20  N   UNL     1      36.947 -23.766 -14.989  0.00  0.00    +0.384 N 
ATOM     21  H   UNL     1      36.607 -24.666 -14.649  0.00  0.00    -0.089 HD
ATOM     22  H   UNL     1      37.282 -23.210 -14.203  0.00  0.00    -0.089 HD
ATOM     23  H   UNL     1      37.710 -23.917 -15.649  0.00  0.00    -0.089 HD
ENDBRANCH  19  20
BRANCH  19  24
ATOM     24  C   UNL     1      34.923 -22.458 -14.585  0.00  0.00    +0.009 C 
BRANCH  24  26
ATOM     25  N   UNL     1      32.990 -25.058 -12.903  0.00  0.00    -0.312 N 
ATOM     26  C   UNL     1      33.910 -23.435 -14.059  0.00  0.00    -0.008 C 
ATOM     27  C   UNL     1      32.568 -23.529 -14.472  0.00  0.00    +0.011 C 
ATOM     28  C   UNL     1      32.002 -24.565 -13.726  0.00  0.00    +0.048 C 
ATOM     29  C   UNL     1      34.157 -24.370 -13.102  0.00  0.00    +0.058 C 
ATOM     30  C   UNL     1      31.762 -22.846 -15.404  0.00  0.00    +0.001 C 
ATOM     31  C   UNL     1      30.664 -24.953 -13.865  0.00  0.00    +0.015 C 
ATOM     32  C   UNL     1      30.422 -23.223 -15.554  0.00  0.00    +0.000 C 
ATOM     33  C   UNL     1      29.884 -24.261 -14.796  0.00  0.00    +0.001 C 
ATOM     34  H   UNL     1      32.873 -25.796 -12.263  0.00  0.00    +0.152 HD
ENDBRANCH  24  26
ENDBRANCH  19  24
ENDBRANCH  18  19
ENDBRANCH   1  18
TORSDOF 7
ENDMDL
MODEL 4
REMARK VINA RESULT:     -12.0      1.141      1.615
REMARK  Name = 6914614
REMARK  7 active torsions:
REMARK  status: ('A' for Active; 'I' for Inactive)
REMARK    1  A    between atoms: O_1  and  C_4
REMARK    2  A    between atoms: O_1  and  C_18
REMARK    3  A    between atoms: C_9  and  C_13
REMARK    4  A    between atoms: C_18  and  C_19
REMARK    5  A    between atoms: C_19  and  N_20
REMARK    6  A    between atoms: C_19  and  C_24
REMARK    7  A    between atoms: C_24  and  C_26
REMARK                            x       y       z     vdW  Elec       q    Type
REMARK                         _______ _______ _______ _____ _____    ______ ____
ROOT
ATOM      1  O   UNL     1      35.583 -20.305 -19.845  0.00  0.00    -0.476 OA
ENDROOT
BRANCH   1   4
ATOM      2  N   UNL     1      35.144 -23.151 -15.969  0.00  0.00    -0.404 NA
ATOM      3  N   UNL     1      32.813 -22.320 -18.653  0.00  0.00    -0.258 NA
ATOM      4  C   UNL     1      34.885 -21.155 -19.046  0.00  0.00    +0.159 C 
ATOM      5  C   UNL     1      35.432 -21.715 -17.885  0.00  0.00    +0.063 C 
ATOM      6  C   UNL     1      34.664 -22.587 -17.095  0.00  0.00    +0.136 C 
ATOM      7  C   UNL     1      36.740 -21.432 -17.471  0.00  0.00    +0.008 C 
ATOM      8  C   UNL     1      33.585 -21.488 -19.381  0.00  0.00    +0.130 C 
ATOM      9  C   UNL     1      36.412 -22.853 -15.603  0.00  0.00    +0.131 C 
ATOM     10  C   UNL     1      37.243 -22.009 -16.312  0.00  0.00    +0.032 C 
ATOM     11  C   UNL     1      33.376 -22.840 -17.537  0.00  0.00    +0.184 C 
BRANCH   9  13
ATOM     12  N   UNL     1      37.725 -24.731 -12.034  0.00  0.00    -0.242 NA
ATOM     13  C   UNL     1      36.859 -23.492 -14.388  0.00  0.00    +0.033 C 
ATOM     14  C   UNL     1      37.940 -24.368 -14.415  0.00  0.00    +0.023 C 
ATOM     15  C   UNL     1      36.211 -23.237 -13.183  0.00  0.00    +0.023 C 
ATOM     16  C   UNL     1      38.331 -24.955 -13.222  0.00  0.00    +0.099 C 
ATOM     17  C   UNL     1      36.679 -23.876 -12.045  0.00  0.00    +0.099 C 
ENDBRANCH   9  13
ENDBRANCH   1   4
BRANCH   1  18
ATOM     18  C   UNL     1      34.946 -19.868 -21.046  0.00  0.00    +0.184 C 
BRANCH  18  19
ATOM     19  C   UNL     1      35.069 -18.351 -21.236  0.00  0.00    -0.017 C 
BRANCH  19  20
ATOM     20  N   UNL     1      35.856 -17.802 -20.125  0.00  0.00    +0.384 N 
ATOM     21  H   UNL     1      35.421 -18.060 -19.239  0.00  0.00    -0.089 HD
ATOM     22  H   UNL     1      35.891 -16.786 -20.203  0.00  0.00    -0.089 HD
ATOM     23  H   UNL     1      36.803 -18.179 -20.161  0.00  0.00    -0.089 HD
ENDBRANCH  19  20
BRANCH  19  24
ATOM     24  C   UNL     1      35.737 -17.937 -22.561  0.00  0.00    +0.009 C 
BRANCH  24  26
ATOM     25  N   UNL     1      33.623 -16.280 -25.035  0.00  0.00    -0.312 N 
ATOM     26  C   UNL     1      34.888 -17.027 -23.403  0.00  0.00    -0.008 C 
ATOM     27  C   UNL     1      34.570 -15.689 -23.104  0.00  0.00    +0.011 C 
ATOM     28  C   UNL     1      33.767 -15.233 -24.152  0.00  0.00    +0.048 C 
ATOM     29  C   UNL     1      34.305 -17.377 -24.582  0.00  0.00    +0.058 C 
ATOM     30  C   UNL     1      34.876 -14.803 -22.050  0.00  0.00    +0.001 C 
ATOM     31  C   UNL     1      33.252 -13.933 -24.199  0.00  0.00    +0.015 C 
ATOM     32  C   UNL     1      34.368 -13.500 -22.085  0.00  0.00    +0.000 C 
ATOM     33  C   UNL     1      33.569 -13.073 -23.144  0.00  0.00    +0.001 C 
ATOM     34  H   UNL     1      33.104 -16.244 -25.871  0.00  0.00    +0.152 HD
ENDBRANCH  24  26
ENDBRANCH  19  24
ENDBRANCH  18  19
ENDBRANCH   1  18
TORSDOF 7
ENDMDL
MODEL 5
REMARK VINA RESULT:     -11.7      3.617      7.165
REMARK  Name = 6914614
REMARK  7 active torsions:
REMARK  status: ('A' for Active; 'I' for Inactive)
REMARK    1  A    between atoms: O_1  and  C_4
REMARK    2  A    between atoms: O_1  and  C_18
REMARK    3  A    between atoms: C_9  and  C_13
REMARK    4  A    between atoms: C_18  and  C_19
REMARK    5  A    between atoms: C_19  and  N_20
REMARK    6  A    between atoms: C_19  and  C_24
REMARK    7  A    between atoms: C_24  and  C_26
REMARK                            x       y       z     vdW  Elec       q    Type
REMARK                         _______ _______ _______ _____ _____    ______ ____
ROOT
ATOM      1  O   UNL     1      35.090 -14.820 -23.435  0.00  0.00    -0.476 OA
ENDROOT
BRANCH   1   4
ATOM      2  N   UNL     1      34.548 -19.414 -22.048  0.00  0.00    -0.404 NA
ATOM      3  N   UNL     1      33.781 -17.714 -25.187  0.00  0.00    -0.258 NA
ATOM      4  C   UNL     1      34.715 -16.109 -23.652  0.00  0.00    +0.159 C 
ATOM      5  C   UNL     1      34.847 -17.104 -22.675  0.00  0.00    +0.063 C 
ATOM      6  C   UNL     1      34.442 -18.421 -22.953  0.00  0.00    +0.136 C 
ATOM      7  C   UNL     1      35.377 -16.833 -21.406  0.00  0.00    +0.008 C 
ATOM      8  C   UNL     1      34.182 -16.464 -24.878  0.00  0.00    +0.130 C 
ATOM      9  C   UNL     1      35.065 -19.111 -20.834  0.00  0.00    +0.131 C 
ATOM     10  C   UNL     1      35.490 -17.850 -20.468  0.00  0.00    +0.032 C 
ATOM     11  C   UNL     1      33.924 -18.648 -24.217  0.00  0.00    +0.184 C 
BRANCH   9  13
ATOM     12  N   UNL     1      35.309 -22.374 -18.135  0.00  0.00    -0.242 NA
ATOM     13  C   UNL     1      35.148 -20.222 -19.916  0.00  0.00    +0.033 C 
ATOM     14  C   UNL     1      34.004 -20.941 -19.582  0.00  0.00    +0.023 C 
ATOM     15  C   UNL     1      36.372 -20.579 -19.358  0.00  0.00    +0.023 C 
ATOM     16  C   UNL     1      34.137 -21.999 -18.696  0.00  0.00    +0.099 C 
ATOM     17  C   UNL     1      36.398 -21.653 -18.482  0.00  0.00    +0.099 C 
ENDBRANCH   9  13
ENDBRANCH   1   4
BRANCH   1  18
ATOM     18  C   UNL     1      34.214 -13.798 -23.910  0.00  0.00    +0.184 C 
BRANCH  18  19
ATOM     19  C   UNL     1      33.972 -12.718 -22.849  0.00  0.00    -0.017 C 
BRANCH  19  20
ATOM     20  N   UNL     1      34.566 -11.460 -23.317  0.00  0.00    +0.384 N 
ATOM     21  H   UNL     1      35.337 -11.664 -23.954  0.00  0.00    -0.089 HD
ATOM     22  H   UNL     1      34.917 -10.931 -22.519  0.00  0.00    -0.089 HD
ATOM     23  H   UNL     1      33.859 -10.910 -23.805  0.00  0.00    -0.089 HD
ENDBRANCH  19  20
BRANCH  19  24
ATOM     24  C   UNL     1      32.484 -12.469 -22.535  0.00  0.00    +0.009 C 
BRANCH  24  26
ATOM     25  N   UNL     1      31.984 -11.010 -19.225  0.00  0.00    -0.312 N 
ATOM     26  C   UNL     1      32.261 -11.618 -21.316  0.00  0.00    -0.008 C 
ATOM     27  C   UNL     1      32.084 -10.222 -21.310  0.00  0.00    +0.011 C 
ATOM     28  C   UNL     1      31.910  -9.856 -19.973  0.00  0.00    +0.048 C 
ATOM     29  C   UNL     1      32.199 -12.088 -20.041  0.00  0.00    +0.058 C 
ATOM     30  C   UNL     1      32.052  -9.217 -22.297  0.00  0.00    +0.001 C 
ATOM     31  C   UNL     1      31.706  -8.531 -19.573  0.00  0.00    +0.015 C 
ATOM     32  C   UNL     1      31.848  -7.887 -21.912  0.00  0.00    +0.000 C 
ATOM     33  C   UNL     1      31.677  -7.551 -20.570  0.00  0.00    +0.001 C 
ATOM     34  H   UNL     1      31.896 -11.052 -18.246  0.00  0.00    +0.152 HD
ENDBRANCH  24  26
ENDBRANCH  19  24
ENDBRANCH  18  19
ENDBRANCH   1  18
TORSDOF 7
ENDMDL
MODEL 6
REMARK VINA RESULT:     -11.7      3.578      7.097
REMARK  Name = 6914614
REMARK  7 active torsions:
REMARK  status: ('A' for Active; 'I' for Inactive)
REMARK    1  A    between atoms: O_1  and  C_4
REMARK    2  A    between atoms: O_1  and  C_18
REMARK    3  A    between atoms: C_9  and  C_13
REMARK    4  A    between atoms: C_18  and  C_19
REMARK    5  A    between atoms: C_19  and  N_20
REMARK    6  A    between atoms: C_19  and  C_24
REMARK    7  A    between atoms: C_24  and  C_26
REMARK                            x       y       z     vdW  Elec       q    Type
REMARK                         _______ _______ _______ _____ _____    ______ ____
ROOT
ATOM      1  O   UNL     1      35.377 -14.728 -23.244  0.00  0.00    -0.476 OA
ENDROOT
BRANCH   1   4
ATOM      2  N   UNL     1      34.461 -19.325 -22.084  0.00  0.00    -0.404 NA
ATOM      3  N   UNL     1      33.980 -17.456 -25.183  0.00  0.00    -0.258 NA
ATOM      4  C   UNL     1      34.931 -15.979 -23.534  0.00  0.00    +0.159 C 
ATOM      5  C   UNL     1      34.944 -17.019 -22.595  0.00  0.00    +0.063 C 
ATOM      6  C   UNL     1      34.470 -18.293 -22.950  0.00  0.00    +0.136 C 
ATOM      7  C   UNL     1      35.420 -16.833 -21.291  0.00  0.00    +0.008 C 
ATOM      8  C   UNL     1      34.444 -16.249 -24.800  0.00  0.00    +0.130 C 
ATOM      9  C   UNL     1      34.929 -19.106 -20.833  0.00  0.00    +0.131 C 
ATOM     10  C   UNL     1      35.416 -17.891 -20.392  0.00  0.00    +0.032 C 
ATOM     11  C   UNL     1      34.007 -18.435 -24.248  0.00  0.00    +0.184 C 
BRANCH   9  13
ATOM     12  N   UNL     1      34.813 -22.483 -18.269  0.00  0.00    -0.242 NA
ATOM     13  C   UNL     1      34.890 -20.255 -19.960  0.00  0.00    +0.033 C 
ATOM     14  C   UNL     1      36.070 -20.786 -19.449  0.00  0.00    +0.023 C 
ATOM     15  C   UNL     1      33.672 -20.839 -19.626  0.00  0.00    +0.023 C 
ATOM     16  C   UNL     1      35.979 -21.890 -18.615  0.00  0.00    +0.099 C 
ATOM     17  C   UNL     1      33.688 -21.941 -18.785  0.00  0.00    +0.099 C 
ENDBRANCH   9  13
ENDBRANCH   1   4
BRANCH   1  18
ATOM     18  C   UNL     1      34.415 -13.674 -23.257  0.00  0.00    +0.184 C 
BRANCH  18  19
ATOM     19  C   UNL     1      33.434 -13.784 -22.083  0.00  0.00    -0.017 C 
BRANCH  19  20
ATOM     20  N   UNL     1      34.139 -13.421 -20.848  0.00  0.00    +0.384 N 
ATOM     21  H   UNL     1      34.851 -12.720 -21.056  0.00  0.00    -0.089 HD
ATOM     22  H   UNL     1      34.582 -14.250 -20.453  0.00  0.00    -0.089 HD
ATOM     23  H   UNL     1      33.473 -13.039 -20.176  0.00  0.00    -0.089 HD
ENDBRANCH  19  20
BRANCH  19  24
ATOM     24  C   UNL     1      32.189 -12.885 -22.219  0.00  0.00    +0.009 C 
BRANCH  24  26
ATOM     25  N   UNL     1      33.248  -9.435 -22.773  0.00  0.00    -0.312 N 
ATOM     26  C   UNL     1      32.503 -11.416 -22.189  0.00  0.00    -0.008 C 
ATOM     27  C   UNL     1      32.171 -10.524 -21.152  0.00  0.00    +0.011 C 
ATOM     28  C   UNL     1      32.652  -9.273 -21.542  0.00  0.00    +0.048 C 
ATOM     29  C   UNL     1      33.159 -10.741 -23.173  0.00  0.00    +0.058 C 
ATOM     30  C   UNL     1      31.508 -10.640 -19.913  0.00  0.00    +0.001 C 
ATOM     31  C   UNL     1      32.503  -8.126 -20.754  0.00  0.00    +0.015 C 
ATOM     32  C   UNL     1      31.352  -9.502 -19.114  0.00  0.00    +0.000 C 
ATOM     33  C   UNL     1      31.843  -8.265 -19.529  0.00  0.00    +0.001 C 
ATOM     34  H   UNL     1      33.675  -8.715 -23.290  0.00  0.00    +0.152 HD
ENDBRANCH  24  26
ENDBRANCH  19  24
ENDBRANCH  18  19
ENDBRANCH   1  18
TORSDOF 7
ENDMDL
MODEL 7
REMARK VINA RESULT:     -11.6      3.187      9.676
REMARK  Name = 6914614
REMARK  7 active torsions:
REMARK  status: ('A' for Active; 'I' for Inactive)
REMARK    1  A    between atoms: O_1  and  C_4
REMARK    2  A    between atoms: O_1  and  C_18
REMARK    3  A    between atoms: C_9  and  C_13
REMARK    4  A    between atoms: C_18  and  C_19
REMARK    5  A    between atoms: C_19  and  N_20
REMARK    6  A    between atoms: C_19  and  C_24
REMARK    7  A    between atoms: C_24  and  C_26
REMARK                            x       y       z     vdW  Elec       q    Type
REMARK                         _______ _______ _______ _____ _____    ______ ____
ROOT
ATOM      1  O   UNL     1      34.517 -24.037 -15.418  0.00  0.00    -0.476 OA
ENDROOT
BRANCH   1   4
ATOM      2  N   UNL     1      36.444 -20.783 -18.422  0.00  0.00    -0.404 NA
ATOM      3  N   UNL     1      37.721 -22.338 -15.375  0.00  0.00    -0.258 NA
ATOM      4  C   UNL     1      35.517 -23.205 -15.815  0.00  0.00    +0.159 C 
ATOM      5  C   UNL     1      35.422 -22.410 -16.964  0.00  0.00    +0.063 C 
ATOM      6  C   UNL     1      36.486 -21.568 -17.326  0.00  0.00    +0.136 C 
ATOM      7  C   UNL     1      34.284 -22.422 -17.782  0.00  0.00    +0.008 C 
ATOM      8  C   UNL     1      36.677 -23.132 -15.064  0.00  0.00    +0.130 C 
ATOM      9  C   UNL     1      35.328 -20.824 -19.186  0.00  0.00    +0.131 C 
ATOM     10  C   UNL     1      34.232 -21.618 -18.913  0.00  0.00    +0.032 C 
ATOM     11  C   UNL     1      37.592 -21.584 -16.493  0.00  0.00    +0.184 C 
BRANCH   9  13
ATOM     12  N   UNL     1      35.399 -18.284 -22.582  0.00  0.00    -0.242 NA
ATOM     13  C   UNL     1      35.352 -19.959 -20.341  0.00  0.00    +0.033 C 
ATOM     14  C   UNL     1      34.244 -19.880 -21.180  0.00  0.00    +0.023 C 
ATOM     15  C   UNL     1      36.484 -19.200 -20.625  0.00  0.00    +0.023 C 
ATOM     16  C   UNL     1      34.317 -19.035 -22.276  0.00  0.00    +0.099 C 
ATOM     17  C   UNL     1      36.457 -18.386 -21.746  0.00  0.00    +0.099 C 
ENDBRANCH   9  13
ENDBRANCH   1   4
BRANCH   1  18
ATOM     18  C   UNL     1      34.727 -24.784 -14.220  0.00  0.00    +0.184 C 
BRANCH  18  19
ATOM     19  C   UNL     1      33.873 -24.254 -13.061  0.00  0.00    -0.017 C 
BRANCH  19  20
ATOM     20  N   UNL     1      34.747 -23.536 -12.125  0.00  0.00    +0.384 N 
ATOM     21  H   UNL     1      34.396 -22.588 -11.992  0.00  0.00    -0.089 HD
ATOM     22  H   UNL     1      35.693 -23.499 -12.504  0.00  0.00    -0.089 HD
ATOM     23  H   UNL     1      34.758 -24.023 -11.229  0.00  0.00    -0.089 HD
ENDBRANCH  19  20
BRANCH  19  24
ATOM     24  C   UNL     1      32.741 -23.305 -13.499  0.00  0.00    +0.009 C 
BRANCH  24  26
ATOM     25  N   UNL     1      29.753 -25.403 -13.501  0.00  0.00    -0.312 N 
ATOM     26  C   UNL     1      31.426 -23.999 -13.718  0.00  0.00    -0.008 C 
ATOM     27  C   UNL     1      30.467 -23.656 -14.689  0.00  0.00    +0.011 C 
ATOM     28  C   UNL     1      29.413 -24.559 -14.534  0.00  0.00    +0.048 C 
ATOM     29  C   UNL     1      30.981 -25.065 -12.999  0.00  0.00    +0.058 C 
ATOM     30  C   UNL     1      30.373 -22.670 -15.692  0.00  0.00    +0.001 C 
ATOM     31  C   UNL     1      28.265 -24.526 -15.334  0.00  0.00    +0.015 C 
ATOM     32  C   UNL     1      29.231 -22.625 -16.500  0.00  0.00    +0.000 C 
ATOM     33  C   UNL     1      28.194 -23.540 -16.323  0.00  0.00    +0.001 C 
ATOM     34  H   UNL     1      29.193 -26.142 -13.170  0.00  0.00    +0.152 HD
ENDBRANCH  24  26
ENDBRANCH  19  24
ENDBRANCH  18  19
ENDBRANCH   1  18
TORSDOF 7
ENDMDL
MODEL 8
REMARK VINA RESULT:     -11.6      4.482      8.436
REMARK  Name = 6914614
REMARK  7 active torsions:
REMARK  status: ('A' for Active; 'I' for Inactive)
REMARK    1  A    between atoms: O_1  and  C_4
REMARK    2  A    between atoms: O_1  and  C_18
REMARK    3  A    between atoms: C_9  and  C_13
REMARK    4  A    between atoms: C_18  and  C_19
REMARK    5  A    between atoms: C_19  and  N_20
REMARK    6  A    between atoms: C_19  and  C_24
REMARK    7  A    between atoms: C_24  and  C_26
REMARK                            x       y       z     vdW  Elec       q    Type
REMARK                         _______ _______ _______ _____ _____    ______ ____
ROOT
ATOM      1  O   UNL     1      34.214 -13.152 -23.409  0.00  0.00    -0.476 OA
ENDROOT
BRANCH   1   4
ATOM      2  N   UNL     1      34.765 -17.906 -22.763  0.00  0.00    -0.404 NA
ATOM      3  N   UNL     1      33.774 -15.946 -25.679  0.00  0.00    -0.258 NA
ATOM      4  C   UNL     1      34.187 -14.440 -23.845  0.00  0.00    +0.159 C 
ATOM      5  C   UNL     1      34.510 -15.521 -23.016  0.00  0.00    +0.063 C 
ATOM      6  C   UNL     1      34.465 -16.832 -23.520  0.00  0.00    +0.136 C 
ATOM      7  C   UNL     1      34.882 -15.344 -21.677  0.00  0.00    +0.008 C 
ATOM      8  C   UNL     1      33.830 -14.705 -25.155  0.00  0.00    +0.130 C 
ATOM      9  C   UNL     1      35.121 -17.692 -21.475  0.00  0.00    +0.131 C 
ATOM     10  C   UNL     1      35.195 -16.444 -20.890  0.00  0.00    +0.032 C 
ATOM     11  C   UNL     1      34.092 -16.966 -24.847  0.00  0.00    +0.184 C 
BRANCH   9  13
ATOM     12  N   UNL     1      36.025 -21.201 -19.269  0.00  0.00    -0.242 NA
ATOM     13  C   UNL     1      35.429 -18.887 -20.724  0.00  0.00    +0.033 C 
ATOM     14  C   UNL     1      34.417 -19.779 -20.382  0.00  0.00    +0.023 C 
ATOM     15  C   UNL     1      36.739 -19.153 -20.337  0.00  0.00    +0.023 C 
ATOM     16  C   UNL     1      34.764 -20.911 -19.662  0.00  0.00    +0.099 C 
ATOM     17  C   UNL     1      36.981 -20.312 -19.618  0.00  0.00    +0.099 C 
ENDBRANCH   9  13
ENDBRANCH   1   4
BRANCH   1  18
ATOM     18  C   UNL     1      33.820 -12.142 -24.337  0.00  0.00    +0.184 C 
BRANCH  18  19
ATOM     19  C   UNL     1      34.323 -10.755 -23.915  0.00  0.00    -0.017 C 
BRANCH  19  20
ATOM     20  N   UNL     1      35.430 -10.370 -24.798  0.00  0.00    +0.384 N 
ATOM     21  H   UNL     1      35.655  -9.385 -24.653  0.00  0.00    -0.089 HD
ATOM     22  H   UNL     1      35.158 -10.517 -25.769  0.00  0.00    -0.089 HD
ATOM     23  H   UNL     1      36.249 -10.939 -24.585  0.00  0.00    -0.089 HD
ENDBRANCH  19  20
BRANCH  19  24
ATOM     24  C   UNL     1      33.246  -9.654 -23.972  0.00  0.00    +0.009 C 
BRANCH  24  26
ATOM     25  N   UNL     1      33.105  -7.421 -21.086  0.00  0.00    -0.312 N 
ATOM     26  C   UNL     1      33.038  -8.949 -22.661  0.00  0.00    -0.008 C 
ATOM     27  C   UNL     1      32.347  -9.466 -21.550  0.00  0.00    +0.011 C 
ATOM     28  C   UNL     1      32.401  -8.481 -20.562  0.00  0.00    +0.048 C 
ATOM     29  C   UNL     1      33.496  -7.701 -22.368  0.00  0.00    +0.058 C 
ATOM     30  C   UNL     1      31.673 -10.673 -21.269  0.00  0.00    +0.001 C 
ATOM     31  C   UNL     1      31.813  -8.641 -19.302  0.00  0.00    +0.015 C 
ATOM     32  C   UNL     1      31.081 -10.847 -20.013  0.00  0.00    +0.000 C 
ATOM     33  C   UNL     1      31.151  -9.845 -19.045  0.00  0.00    +0.001 C 
ATOM     34  H   UNL     1      33.299  -6.582 -20.609  0.00  0.00    +0.152 HD
ENDBRANCH  24  26
ENDBRANCH  19  24
ENDBRANCH  18  19
ENDBRANCH   1  18
TORSDOF 7
ENDMDL
MODEL 9
REMARK VINA RESULT:     -11.5      4.521      8.546
REMARK  Name = 6914614
REMARK  7 active torsions:
REMARK  status: ('A' for Active; 'I' for Inactive)
REMARK    1  A    between atoms: O_1  and  C_4
REMARK    2  A    between atoms: O_1  and  C_18
REMARK    3  A    between atoms: C_9  and  C_13
REMARK    4  A    between atoms: C_18  and  C_19
REMARK    5  A    between atoms: C_19  and  N_20
REMARK    6  A    between atoms: C_19  and  C_24
REMARK    7  A    between atoms: C_24  and  C_26
REMARK                            x       y       z     vdW  Elec       q    Type
REMARK                         _______ _______ _______ _____ _____    ______ ____
ROOT
ATOM      1  O   UNL     1      34.310 -13.358 -23.253  0.00  0.00    -0.476 OA
ENDROOT
BRANCH   1   4
ATOM      2  N   UNL     1      34.787 -18.123 -22.628  0.00  0.00    -0.404 NA
ATOM      3  N   UNL     1      33.817 -16.135 -25.533  0.00  0.00    -0.258 NA
ATOM      4  C   UNL     1      34.261 -14.643 -23.695  0.00  0.00    +0.159 C 
ATOM      5  C   UNL     1      34.569 -15.733 -22.871  0.00  0.00    +0.063 C 
ATOM      6  C   UNL     1      34.501 -17.041 -23.380  0.00  0.00    +0.136 C 
ATOM      7  C   UNL     1      34.949 -15.567 -21.532  0.00  0.00    +0.008 C 
ATOM      8  C   UNL     1      33.895 -14.897 -25.004  0.00  0.00    +0.130 C 
ATOM      9  C   UNL     1      35.150 -17.920 -21.341  0.00  0.00    +0.131 C 
ATOM     10  C   UNL     1      35.246 -16.676 -20.751  0.00  0.00    +0.032 C 
ATOM     11  C   UNL     1      34.121 -17.163 -24.706  0.00  0.00    +0.184 C 
BRANCH   9  13
ATOM     12  N   UNL     1      36.005 -21.452 -19.152  0.00  0.00    -0.242 NA
ATOM     13  C   UNL     1      35.442 -19.122 -20.596  0.00  0.00    +0.033 C 
ATOM     14  C   UNL     1      34.417 -19.999 -20.255  0.00  0.00    +0.023 C 
ATOM     15  C   UNL     1      36.748 -19.411 -20.215  0.00  0.00    +0.023 C 
ATOM     16  C   UNL     1      34.748 -21.140 -19.540  0.00  0.00    +0.099 C 
ATOM     17  C   UNL     1      36.975 -20.577 -19.501  0.00  0.00    +0.099 C 
ENDBRANCH   9  13
ENDBRANCH   1   4
BRANCH   1  18
ATOM     18  C   UNL     1      33.838 -12.345 -24.141  0.00  0.00    +0.184 C 
BRANCH  18  19
ATOM     19  C   UNL     1      34.084 -10.938 -23.583  0.00  0.00    -0.017 C 
BRANCH  19  20
ATOM     20  N   UNL     1      35.319 -10.409 -24.175  0.00  0.00    +0.384 N 
ATOM     21  H   UNL     1      36.059 -10.406 -23.472  0.00  0.00    -0.089 HD
ATOM     22  H   UNL     1      35.158  -9.458 -24.503  0.00  0.00    -0.089 HD
ATOM     23  H   UNL     1      35.600 -10.998 -24.959  0.00  0.00    -0.089 HD
ENDBRANCH  19  20
BRANCH  19  24
ATOM     24  C   UNL     1      32.942  -9.943 -23.863  0.00  0.00    +0.009 C 
BRANCH  24  26
ATOM     25  N   UNL     1      31.614  -8.809 -20.657  0.00  0.00    -0.312 N 
ATOM     26  C   UNL     1      32.467  -9.213 -22.639  0.00  0.00    -0.008 C 
ATOM     27  C   UNL     1      32.522  -7.821 -22.439  0.00  0.00    +0.011 C 
ATOM     28  C   UNL     1      31.976  -7.586 -21.175  0.00  0.00    +0.048 C 
ATOM     29  C   UNL     1      31.912  -9.806 -21.547  0.00  0.00    +0.058 C 
ATOM     30  C   UNL     1      32.979  -6.722 -23.195  0.00  0.00    +0.001 C 
ATOM     31  C   UNL     1      31.864  -6.303 -20.627  0.00  0.00    +0.015 C 
ATOM     32  C   UNL     1      32.873  -5.434 -22.660  0.00  0.00    +0.000 C 
ATOM     33  C   UNL     1      32.324  -5.229 -21.395  0.00  0.00    +0.001 C 
ATOM     34  H   UNL     1      31.202  -8.946 -19.774  0.00  0.00    +0.152 HD
ENDBRANCH  24  26
ENDBRANCH  19  24
ENDBRANCH  18  19
ENDBRANCH   1  18
TORSDOF 7
ENDMDL
