MODEL 1
REMARK VINA RESULT:     -12.2      0.000      0.000
REMARK  Name = 10172943
REMARK  7 active torsions:
REMARK  status: ('A' for Active; 'I' for Inactive)
REMARK    1  A    between atoms: O_1  and  C_3
REMARK    2  A    between atoms: O_1  and  C_19
REMARK    3  A    between atoms: C_4  and  C_11
REMARK    4  A    between atoms: C_19  and  C_20
REMARK    5  A    between atoms: C_20  and  N_21
REMARK    6  A    between atoms: C_20  and  C_25
REMARK    7  A    between atoms: C_25  and  C_27
REMARK                            x       y       z     vdW  Elec       q    Type
REMARK                         _______ _______ _______ _____ _____    ______ ____
ROOT
ATOM      1  O   UNL     1      34.604 -14.409 -23.697  0.00  0.00    -0.476 OA
ENDROOT
BRANCH   1   3
ATOM      2  N   UNL     1      33.782 -17.755 -24.882  0.00  0.00    -0.239 NA
ATOM      3  C   UNL     1      34.493 -15.775 -23.718  0.00  0.00    +0.158 C 
ATOM      4  C   UNL     1      34.832 -17.917 -22.710  0.00  0.00    +0.022 C 
ATOM      5  C   UNL     1      34.957 -16.534 -22.659  0.00  0.00    +0.040 C 
ATOM      6  C   UNL     1      33.920 -16.414 -24.796  0.00  0.00    +0.136 C 
ATOM      7  C   UNL     1      34.242 -18.475 -23.833  0.00  0.00    +0.099 C 
BRANCH   4  11
ATOM      8  N   UNL     1      35.358 -21.698 -18.344  0.00  0.00    -0.280 N 
ATOM      9  N   UNL     1      36.565 -21.133 -18.549  0.00  0.00    -0.173 NA
ATOM     10  C   UNL     1      34.989 -20.337 -19.978  0.00  0.00    +0.032 A 
ATOM     11  C   UNL     1      35.303 -18.748 -21.627  0.00  0.00    +0.002 C 
ATOM     12  C   UNL     1      36.371 -20.276 -19.565  0.00  0.00    +0.102 A 
ATOM     13  C   UNL     1      34.381 -19.610 -20.994  0.00  0.00    +0.003 C 
ATOM     14  C   UNL     1      34.372 -21.255 -19.177  0.00  0.00    +0.053 A 
ATOM     15  C   UNL     1      36.684 -18.655 -21.250  0.00  0.00    +0.002 C 
ATOM     16  C   UNL     1      37.272 -19.409 -20.211  0.00  0.00    +0.021 C 
ATOM     17  C   UNL     1      32.993 -21.765 -19.095  0.00  0.00    +0.051 C 
ATOM     18  H   UNL     1      35.200 -22.376 -17.648  0.00  0.00    +0.189 HD
ENDBRANCH   4  11
ENDBRANCH   1   3
BRANCH   1  19
ATOM     19  C   UNL     1      34.330 -13.763 -22.461  0.00  0.00    +0.184 C 
BRANCH  19  20
ATOM     20  C   UNL     1      33.599 -12.429 -22.664  0.00  0.00    -0.017 C 
BRANCH  20  21
ATOM     21  N   UNL     1      33.440 -12.196 -24.105  0.00  0.00    +0.384 N 
ATOM     22  H   UNL     1      34.198 -12.656 -24.609  0.00  0.00    -0.089 HD
ATOM     23  H   UNL     1      33.466 -11.194 -24.292  0.00  0.00    -0.089 HD
ATOM     24  H   UNL     1      32.546 -12.576 -24.413  0.00  0.00    -0.089 HD
ENDBRANCH  20  21
BRANCH  20  25
ATOM     25  C   UNL     1      32.209 -12.371 -21.977  0.00  0.00    +0.009 C 
BRANCH  25  27
ATOM     26  N   UNL     1      31.948 -10.359 -18.941  0.00  0.00    -0.312 N 
ATOM     27  C   UNL     1      32.089 -11.337 -20.928  0.00  0.00    -0.008 C 
ATOM     28  C   UNL     1      31.967  -9.934 -21.131  0.00  0.00    +0.011 C 
ATOM     29  C   UNL     1      31.880  -9.344 -19.868  0.00  0.00    +0.048 C 
ATOM     30  C   UNL     1      32.073 -11.568 -19.571  0.00  0.00    +0.058 C 
ATOM     31  C   UNL     1      31.923  -9.107 -22.271  0.00  0.00    +0.001 C 
ATOM     32  C   UNL     1      31.752  -7.961 -19.688  0.00  0.00    +0.015 C 
ATOM     33  C   UNL     1      31.795  -7.723 -22.106  0.00  0.00    +0.000 C 
ATOM     34  C   UNL     1      31.711  -7.161 -20.833  0.00  0.00    +0.001 C 
ATOM     35  H   UNL     1      31.910 -10.233 -17.965  0.00  0.00    +0.152 HD
ENDBRANCH  25  27
ENDBRANCH  20  25
ENDBRANCH  19  20
ENDBRANCH   1  19
TORSDOF 7
ENDMDL
MODEL 2
REMARK VINA RESULT:     -12.0      3.834     10.929
REMARK  Name = 10172943
REMARK  7 active torsions:
REMARK  status: ('A' for Active; 'I' for Inactive)
REMARK    1  A    between atoms: O_1  and  C_3
REMARK    2  A    between atoms: O_1  and  C_19
REMARK    3  A    between atoms: C_4  and  C_11
REMARK    4  A    between atoms: C_19  and  C_20
REMARK    5  A    between atoms: C_20  and  N_21
REMARK    6  A    between atoms: C_20  and  C_25
REMARK    7  A    between atoms: C_25  and  C_27
REMARK                            x       y       z     vdW  Elec       q    Type
REMARK                         _______ _______ _______ _____ _____    ______ ____
ROOT
ATOM      1  O   UNL     1      34.913 -21.871 -19.330  0.00  0.00    -0.476 OA
ENDROOT
BRANCH   1   3
ATOM      2  N   UNL     1      37.390 -19.243 -19.818  0.00  0.00    -0.239 NA
ATOM      3  C   UNL     1      35.522 -20.757 -19.848  0.00  0.00    +0.158 C 
ATOM      4  C   UNL     1      35.573 -18.924 -21.382  0.00  0.00    +0.022 C 
ATOM      5  C   UNL     1      34.930 -20.047 -20.876  0.00  0.00    +0.040 C 
ATOM      6  C   UNL     1      36.735 -20.330 -19.353  0.00  0.00    +0.136 C 
ATOM      7  C   UNL     1      36.790 -18.565 -20.823  0.00  0.00    +0.099 C 
BRANCH   4  11
ATOM      8  N   UNL     1      33.597 -14.721 -24.855  0.00  0.00    -0.280 N 
ATOM      9  N   UNL     1      33.360 -15.902 -25.460  0.00  0.00    -0.173 NA
ATOM     10  C   UNL     1      34.383 -16.157 -23.448  0.00  0.00    +0.032 A 
ATOM     11  C   UNL     1      34.991 -18.153 -22.456  0.00  0.00    +0.002 C 
ATOM     12  C   UNL     1      33.839 -16.823 -24.607  0.00  0.00    +0.102 A 
ATOM     13  C   UNL     1      34.972 -16.746 -22.337  0.00  0.00    +0.003 C 
ATOM     14  C   UNL     1      34.211 -14.815 -23.641  0.00  0.00    +0.053 A 
ATOM     15  C   UNL     1      34.463 -18.857 -23.588  0.00  0.00    +0.002 C 
ATOM     16  C   UNL     1      33.869 -18.227 -24.704  0.00  0.00    +0.021 C 
ATOM     17  C   UNL     1      34.547 -13.625 -22.842  0.00  0.00    +0.051 C 
ATOM     18  H   UNL     1      33.346 -13.859 -25.259  0.00  0.00    +0.189 HD
ENDBRANCH   4  11
ENDBRANCH   1   3
BRANCH   1  19
ATOM     19  C   UNL     1      33.676 -21.671 -18.658  0.00  0.00    +0.184 C 
BRANCH  19  20
ATOM     20  C   UNL     1      33.394 -22.783 -17.639  0.00  0.00    -0.017 C 
BRANCH  20  21
ATOM     21  N   UNL     1      33.497 -24.080 -18.320  0.00  0.00    +0.384 N 
ATOM     22  H   UNL     1      32.619 -24.284 -18.796  0.00  0.00    -0.089 HD
ATOM     23  H   UNL     1      33.691 -24.809 -17.633  0.00  0.00    -0.089 HD
ATOM     24  H   UNL     1      34.255 -24.046 -19.002  0.00  0.00    -0.089 HD
ENDBRANCH  20  21
BRANCH  20  25
ATOM     25  C   UNL     1      34.352 -22.765 -16.418  0.00  0.00    +0.009 C 
BRANCH  25  27
ATOM     26  N   UNL     1      33.861 -24.861 -13.469  0.00  0.00    -0.312 N 
ATOM     27  C   UNL     1      33.879 -23.548 -15.259  0.00  0.00    -0.008 C 
ATOM     28  C   UNL     1      32.533 -23.677 -14.815  0.00  0.00    +0.011 C 
ATOM     29  C   UNL     1      32.549 -24.506 -13.692  0.00  0.00    +0.048 C 
ATOM     30  C   UNL     1      34.672 -24.288 -14.412  0.00  0.00    +0.058 C 
ATOM     31  C   UNL     1      31.299 -23.166 -15.263  0.00  0.00    +0.001 C 
ATOM     32  C   UNL     1      31.388 -24.851 -12.990  0.00  0.00    +0.015 C 
ATOM     33  C   UNL     1      30.129 -23.502 -14.572  0.00  0.00    +0.000 C 
ATOM     34  C   UNL     1      30.176 -24.332 -13.453  0.00  0.00    +0.001 C 
ATOM     35  H   UNL     1      34.170 -25.444 -12.739  0.00  0.00    +0.152 HD
ENDBRANCH  25  27
ENDBRANCH  20  25
ENDBRANCH  19  20
ENDBRANCH   1  19
TORSDOF 7
ENDMDL
MODEL 3
REMARK VINA RESULT:     -12.0      1.880      9.953
REMARK  Name = 10172943
REMARK  7 active torsions:
REMARK  status: ('A' for Active; 'I' for Inactive)
REMARK    1  A    between atoms: O_1  and  C_3
REMARK    2  A    between atoms: O_1  and  C_19
REMARK    3  A    between atoms: C_4  and  C_11
REMARK    4  A    between atoms: C_19  and  C_20
REMARK    5  A    between atoms: C_20  and  N_21
REMARK    6  A    between atoms: C_20  and  C_25
REMARK    7  A    between atoms: C_25  and  C_27
REMARK                            x       y       z     vdW  Elec       q    Type
REMARK                         _______ _______ _______ _____ _____    ______ ____
ROOT
ATOM      1  O   UNL     1      35.658 -17.085 -22.751  0.00  0.00    -0.476 OA
ENDROOT
BRANCH   1   3
ATOM      2  N   UNL     1      33.435 -16.004 -25.428  0.00  0.00    -0.239 NA
ATOM      3  C   UNL     1      34.856 -16.269 -23.507  0.00  0.00    +0.158 C 
ATOM      4  C   UNL     1      33.833 -14.150 -23.929  0.00  0.00    +0.022 C 
ATOM      5  C   UNL     1      34.654 -14.951 -23.143  0.00  0.00    +0.040 C 
ATOM      6  C   UNL     1      34.238 -16.752 -24.640  0.00  0.00    +0.136 C 
ATOM      7  C   UNL     1      33.253 -14.718 -25.052  0.00  0.00    +0.099 C 
BRANCH   4  11
ATOM      8  N   UNL     1      32.144  -9.183 -21.457  0.00  0.00    -0.280 N 
ATOM      9  N   UNL     1      32.871  -8.874 -22.549  0.00  0.00    -0.173 NA
ATOM     10  C   UNL     1      32.686 -11.118 -22.246  0.00  0.00    +0.032 A 
ATOM     11  C   UNL     1      33.593 -12.767 -23.586  0.00  0.00    +0.002 C 
ATOM     12  C   UNL     1      33.226 -10.062 -23.068  0.00  0.00    +0.102 A 
ATOM     13  C   UNL     1      32.823 -12.487 -22.436  0.00  0.00    +0.003 C 
ATOM     14  C   UNL     1      32.000 -10.519 -21.226  0.00  0.00    +0.053 A 
ATOM     15  C   UNL     1      34.150 -11.751 -24.431  0.00  0.00    +0.002 C 
ATOM     16  C   UNL     1      33.992 -10.365 -24.210  0.00  0.00    +0.021 C 
ATOM     17  C   UNL     1      31.238 -11.036 -20.077  0.00  0.00    +0.051 C 
ATOM     18  H   UNL     1      31.747  -8.497 -20.872  0.00  0.00    +0.189 HD
ENDBRANCH   4  11
ENDBRANCH   1   3
BRANCH   1  19
ATOM     19  C   UNL     1      35.230 -18.430 -22.586  0.00  0.00    +0.184 C 
BRANCH  19  20
ATOM     20  C   UNL     1      35.659 -19.002 -21.228  0.00  0.00    -0.017 C 
BRANCH  20  21
ATOM     21  N   UNL     1      35.679 -17.911 -20.245  0.00  0.00    +0.384 N 
ATOM     22  H   UNL     1      35.887 -17.032 -20.718  0.00  0.00    -0.089 HD
ATOM     23  H   UNL     1      36.395 -18.100 -19.543  0.00  0.00    -0.089 HD
ATOM     24  H   UNL     1      34.768 -17.847 -19.791  0.00  0.00    -0.089 HD
ENDBRANCH  20  21
BRANCH  20  25
ATOM     25  C   UNL     1      34.738 -20.141 -20.715  0.00  0.00    +0.009 C 
BRANCH  25  27
ATOM     26  N   UNL     1      36.638 -21.680 -18.003  0.00  0.00    -0.312 N 
ATOM     27  C   UNL     1      35.253 -20.856 -19.529  0.00  0.00    -0.008 C 
ATOM     28  C   UNL     1      34.486 -21.589 -18.582  0.00  0.00    +0.011 C 
ATOM     29  C   UNL     1      35.378 -22.096 -17.635  0.00  0.00    +0.048 C 
ATOM     30  C   UNL     1      36.573 -20.931 -19.147  0.00  0.00    +0.058 C 
ATOM     31  C   UNL     1      33.113 -21.871 -18.438  0.00  0.00    +0.001 C 
ATOM     32  C   UNL     1      34.965 -22.873 -16.547  0.00  0.00    +0.015 C 
ATOM     33  C   UNL     1      32.684 -22.647 -17.355  0.00  0.00    +0.000 C 
ATOM     34  C   UNL     1      33.598 -23.139 -16.425  0.00  0.00    +0.001 C 
ATOM     35  H   UNL     1      37.466 -21.892 -17.515  0.00  0.00    +0.152 HD
ENDBRANCH  25  27
ENDBRANCH  20  25
ENDBRANCH  19  20
ENDBRANCH   1  19
TORSDOF 7
ENDMDL
MODEL 4
REMARK VINA RESULT:     -11.9      4.343     10.986
REMARK  Name = 10172943
REMARK  7 active torsions:
REMARK  status: ('A' for Active; 'I' for Inactive)
REMARK    1  A    between atoms: O_1  and  C_3
REMARK    2  A    between atoms: O_1  and  C_19
REMARK    3  A    between atoms: C_4  and  C_11
REMARK    4  A    between atoms: C_19  and  C_20
REMARK    5  A    between atoms: C_20  and  N_21
REMARK    6  A    between atoms: C_20  and  C_25
REMARK    7  A    between atoms: C_25  and  C_27
REMARK                            x       y       z     vdW  Elec       q    Type
REMARK                         _______ _______ _______ _____ _____    ______ ____
ROOT
ATOM      1  O   UNL     1      36.150 -22.412 -18.030  0.00  0.00    -0.476 OA
ENDROOT
BRANCH   1   3
ATOM      2  N   UNL     1      32.761 -21.521 -19.030  0.00  0.00    -0.239 NA
ATOM      3  C   UNL     1      35.127 -21.770 -18.679  0.00  0.00    +0.158 C 
ATOM      4  C   UNL     1      34.334 -20.136 -20.234  0.00  0.00    +0.022 C 
ATOM      5  C   UNL     1      35.393 -20.768 -19.594  0.00  0.00    +0.040 C 
ATOM      6  C   UNL     1      33.816 -22.113 -18.427  0.00  0.00    +0.136 C 
ATOM      7  C   UNL     1      33.048 -20.545 -19.921  0.00  0.00    +0.099 C 
BRANCH   4  11
ATOM      8  N   UNL     1      35.181 -15.073 -22.934  0.00  0.00    -0.280 N 
ATOM      9  N   UNL     1      35.224 -16.049 -23.863  0.00  0.00    -0.173 NA
ATOM     10  C   UNL     1      34.853 -16.865 -21.776  0.00  0.00    +0.032 A 
ATOM     11  C   UNL     1      34.567 -19.083 -21.196  0.00  0.00    +0.002 C 
ATOM     12  C   UNL     1      35.022 -17.184 -23.173  0.00  0.00    +0.102 A 
ATOM     13  C   UNL     1      34.623 -17.751 -20.731  0.00  0.00    +0.003 C 
ATOM     14  C   UNL     1      34.961 -15.508 -21.660  0.00  0.00    +0.053 A 
ATOM     15  C   UNL     1      34.730 -19.447 -22.574  0.00  0.00    +0.002 C 
ATOM     16  C   UNL     1      34.962 -18.520 -23.614  0.00  0.00    +0.021 C 
ATOM     17  C   UNL     1      34.886 -14.579 -20.520  0.00  0.00    +0.051 C 
ATOM     18  H   UNL     1      35.300 -14.122 -23.157  0.00  0.00    +0.189 HD
ENDBRANCH   4  11
ENDBRANCH   1   3
BRANCH   1  19
ATOM     19  C   UNL     1      36.407 -22.015 -16.690  0.00  0.00    +0.184 C 
BRANCH  19  20
ATOM     20  C   UNL     1      35.910 -23.059 -15.681  0.00  0.00    -0.017 C 
BRANCH  20  21
ATOM     21  N   UNL     1      37.072 -23.659 -15.015  0.00  0.00    +0.384 N 
ATOM     22  H   UNL     1      36.831 -24.594 -14.688  0.00  0.00    -0.089 HD
ATOM     23  H   UNL     1      37.344 -23.080 -14.220  0.00  0.00    -0.089 HD
ATOM     24  H   UNL     1      37.848 -23.718 -15.674  0.00  0.00    -0.089 HD
ENDBRANCH  20  21
BRANCH  20  25
ATOM     25  C   UNL     1      34.946 -22.479 -14.612  0.00  0.00    +0.009 C 
BRANCH  25  27
ATOM     26  N   UNL     1      32.968 -25.074 -12.973  0.00  0.00    -0.312 N 
ATOM     27  C   UNL     1      33.936 -23.436 -14.116  0.00  0.00    -0.008 C 
ATOM     28  C   UNL     1      32.584 -23.540 -14.547  0.00  0.00    +0.011 C 
ATOM     29  C   UNL     1      31.998 -24.576 -13.815  0.00  0.00    +0.048 C 
ATOM     30  C   UNL     1      34.142 -24.393 -13.149  0.00  0.00    +0.058 C 
ATOM     31  C   UNL     1      31.799 -22.851 -15.492  0.00  0.00    +0.001 C 
ATOM     32  C   UNL     1      30.662 -24.957 -13.981  0.00  0.00    +0.015 C 
ATOM     33  C   UNL     1      30.460 -23.221 -15.669  0.00  0.00    +0.000 C 
ATOM     34  C   UNL     1      29.903 -24.258 -14.923  0.00  0.00    +0.001 C 
ATOM     35  H   UNL     1      32.835 -25.815 -12.339  0.00  0.00    +0.152 HD
ENDBRANCH  25  27
ENDBRANCH  20  25
ENDBRANCH  19  20
ENDBRANCH   1  19
TORSDOF 7
ENDMDL
MODEL 5
REMARK VINA RESULT:     -11.9      4.065     11.195
REMARK  Name = 10172943
REMARK  7 active torsions:
REMARK  status: ('A' for Active; 'I' for Inactive)
REMARK    1  A    between atoms: O_1  and  C_3
REMARK    2  A    between atoms: O_1  and  C_19
REMARK    3  A    between atoms: C_4  and  C_11
REMARK    4  A    between atoms: C_19  and  C_20
REMARK    5  A    between atoms: C_20  and  N_21
REMARK    6  A    between atoms: C_20  and  C_25
REMARK    7  A    between atoms: C_25  and  C_27
REMARK                            x       y       z     vdW  Elec       q    Type
REMARK                         _______ _______ _______ _____ _____    ______ ____
ROOT
ATOM      1  O   UNL     1      34.747 -21.904 -19.377  0.00  0.00    -0.476 OA
ENDROOT
BRANCH   1   3
ATOM      2  N   UNL     1      37.294 -19.334 -19.807  0.00  0.00    -0.239 NA
ATOM      3  C   UNL     1      35.389 -20.800 -19.875  0.00  0.00    +0.158 C 
ATOM      4  C   UNL     1      35.503 -18.949 -21.384  0.00  0.00    +0.022 C 
ATOM      5  C   UNL     1      34.826 -20.062 -20.900  0.00  0.00    +0.040 C 
ATOM      6  C   UNL     1      36.607 -20.410 -19.362  0.00  0.00    +0.136 C 
ATOM      7  C   UNL     1      36.722 -18.629 -20.809  0.00  0.00    +0.099 C 
BRANCH   4  11
ATOM      8  N   UNL     1      33.650 -14.655 -24.814  0.00  0.00    -0.280 N 
ATOM      9  N   UNL     1      33.409 -15.821 -25.445  0.00  0.00    -0.173 NA
ATOM     10  C   UNL     1      34.390 -16.127 -23.419  0.00  0.00    +0.032 A 
ATOM     11  C   UNL     1      34.952 -18.150 -22.454  0.00  0.00    +0.002 C 
ATOM     12  C   UNL     1      33.859 -16.765 -24.601  0.00  0.00    +0.102 A 
ATOM     13  C   UNL     1      34.950 -16.745 -22.309  0.00  0.00    +0.003 C 
ATOM     14  C   UNL     1      34.240 -14.780 -23.590  0.00  0.00    +0.053 A 
ATOM     15  C   UNL     1      34.436 -18.826 -23.610  0.00  0.00    +0.002 C 
ATOM     16  C   UNL     1      33.871 -18.166 -24.724  0.00  0.00    +0.021 C 
ATOM     17  C   UNL     1      34.577 -13.610 -22.762  0.00  0.00    +0.051 C 
ATOM     18  H   UNL     1      33.419 -13.781 -25.205  0.00  0.00    +0.189 HD
ENDBRANCH   4  11
ENDBRANCH   1   3
BRANCH   1  19
ATOM     19  C   UNL     1      34.939 -22.191 -17.999  0.00  0.00    +0.184 C 
BRANCH  19  20
ATOM     20  C   UNL     1      33.605 -22.325 -17.252  0.00  0.00    -0.017 C 
BRANCH  20  21
ATOM     21  N   UNL     1      32.510 -22.116 -18.207  0.00  0.00    +0.384 N 
ATOM     22  H   UNL     1      31.751 -21.613 -17.748  0.00  0.00    -0.089 HD
ATOM     23  H   UNL     1      32.170 -23.020 -18.537  0.00  0.00    -0.089 HD
ATOM     24  H   UNL     1      32.850 -21.571 -18.999  0.00  0.00    -0.089 HD
ENDBRANCH  20  21
BRANCH  20  25
ATOM     25  C   UNL     1      33.421 -23.698 -16.551  0.00  0.00    +0.009 C 
BRANCH  25  27
ATOM     26  N   UNL     1      33.092 -23.250 -12.942  0.00  0.00    -0.312 N 
ATOM     27  C   UNL     1      33.537 -23.652 -15.079  0.00  0.00    -0.008 C 
ATOM     28  C   UNL     1      34.604 -24.176 -14.296  0.00  0.00    +0.011 C 
ATOM     29  C   UNL     1      34.299 -23.910 -12.959  0.00  0.00    +0.048 C 
ATOM     30  C   UNL     1      32.623 -23.088 -14.218  0.00  0.00    +0.058 C 
ATOM     31  C   UNL     1      35.801 -24.853 -14.597  0.00  0.00    +0.001 C 
ATOM     32  C   UNL     1      35.137 -24.290 -11.904  0.00  0.00    +0.015 C 
ATOM     33  C   UNL     1      36.649 -25.239 -13.552  0.00  0.00    +0.000 C 
ATOM     34  C   UNL     1      36.320 -24.961 -12.227  0.00  0.00    +0.001 C 
ATOM     35  H   UNL     1      32.632 -22.937 -12.130  0.00  0.00    +0.152 HD
ENDBRANCH  25  27
ENDBRANCH  20  25
ENDBRANCH  19  20
ENDBRANCH   1  19
TORSDOF 7
ENDMDL
MODEL 6
REMARK VINA RESULT:     -11.9      4.299     11.570
REMARK  Name = 10172943
REMARK  7 active torsions:
REMARK  status: ('A' for Active; 'I' for Inactive)
REMARK    1  A    between atoms: O_1  and  C_3
REMARK    2  A    between atoms: O_1  and  C_19
REMARK    3  A    between atoms: C_4  and  C_11
REMARK    4  A    between atoms: C_19  and  C_20
REMARK    5  A    between atoms: C_20  and  N_21
REMARK    6  A    between atoms: C_20  and  C_25
REMARK    7  A    between atoms: C_25  and  C_27
REMARK                            x       y       z     vdW  Elec       q    Type
REMARK                         _______ _______ _______ _____ _____    ______ ____
ROOT
ATOM      1  O   UNL     1      32.977 -22.273 -18.291  0.00  0.00    -0.476 OA
ENDROOT
BRANCH   1   3
ATOM      2  N   UNL     1      36.475 -21.397 -18.820  0.00  0.00    -0.239 NA
ATOM      3  C   UNL     1      34.082 -21.637 -18.794  0.00  0.00    +0.158 C 
ATOM      4  C   UNL     1      35.086 -20.014 -20.236  0.00  0.00    +0.022 C 
ATOM      5  C   UNL     1      33.947 -20.640 -19.743  0.00  0.00    +0.040 C 
ATOM      6  C   UNL     1      35.345 -21.982 -18.364  0.00  0.00    +0.136 C 
ATOM      7  C   UNL     1      36.316 -20.425 -19.746  0.00  0.00    +0.099 C 
BRANCH   4  11
ATOM      8  N   UNL     1      34.779 -14.963 -23.068  0.00  0.00    -0.280 N 
ATOM      9  N   UNL     1      34.727 -15.952 -23.982  0.00  0.00    -0.173 NA
ATOM     10  C   UNL     1      34.904 -16.749 -21.861  0.00  0.00    +0.032 A 
ATOM     11  C   UNL     1      34.991 -18.969 -21.228  0.00  0.00    +0.002 C 
ATOM     12  C   UNL     1      34.802 -17.085 -23.262  0.00  0.00    +0.102 A 
ATOM     13  C   UNL     1      35.001 -17.627 -20.790  0.00  0.00    +0.003 C 
ATOM     14  C   UNL     1      34.886 -15.385 -21.775  0.00  0.00    +0.053 A 
ATOM     15  C   UNL     1      34.892 -19.349 -22.608  0.00  0.00    +0.002 C 
ATOM     16  C   UNL     1      34.794 -18.430 -23.675  0.00  0.00    +0.021 C 
ATOM     17  C   UNL     1      34.958 -14.440 -20.648  0.00  0.00    +0.051 C 
ATOM     18  H   UNL     1      34.744 -14.010 -23.314  0.00  0.00    +0.189 HD
ENDBRANCH   4  11
ENDBRANCH   1   3
BRANCH   1  19
ATOM     19  C   UNL     1      33.212 -23.365 -17.411  0.00  0.00    +0.184 C 
BRANCH  19  20
ATOM     20  C   UNL     1      32.912 -22.996 -15.952  0.00  0.00    -0.017 C 
BRANCH  20  21
ATOM     21  N   UNL     1      31.460 -23.044 -15.745  0.00  0.00    +0.384 N 
ATOM     22  H   UNL     1      31.052 -22.142 -15.990  0.00  0.00    -0.089 HD
ATOM     23  H   UNL     1      31.263 -23.252 -14.766  0.00  0.00    -0.089 HD
ATOM     24  H   UNL     1      31.057 -23.772 -16.334  0.00  0.00    -0.089 HD
ENDBRANCH  20  21
BRANCH  20  25
ATOM     25  C   UNL     1      33.610 -23.923 -14.921  0.00  0.00    +0.009 C 
BRANCH  25  27
ATOM     26  N   UNL     1      37.013 -22.641 -14.593  0.00  0.00    -0.312 N 
ATOM     27  C   UNL     1      35.058 -23.678 -14.761  0.00  0.00    -0.008 C 
ATOM     28  C   UNL     1      36.068 -24.661 -14.573  0.00  0.00    +0.011 C 
ATOM     29  C   UNL     1      37.286 -23.984 -14.470  0.00  0.00    +0.048 C 
ATOM     30  C   UNL     1      35.670 -22.445 -14.770  0.00  0.00    +0.058 C 
ATOM     31  C   UNL     1      36.065 -26.067 -14.479  0.00  0.00    +0.001 C 
ATOM     32  C   UNL     1      38.504 -24.646 -14.278  0.00  0.00    +0.015 C 
ATOM     33  C   UNL     1      37.275 -26.742 -14.286  0.00  0.00    +0.000 C 
ATOM     34  C   UNL     1      38.475 -26.040 -14.187  0.00  0.00    +0.001 C 
ATOM     35  H   UNL     1      37.687 -21.924 -14.559  0.00  0.00    +0.152 HD
ENDBRANCH  25  27
ENDBRANCH  20  25
ENDBRANCH  19  20
ENDBRANCH   1  19
TORSDOF 7
ENDMDL
MODEL 7
REMARK VINA RESULT:     -11.9      1.644      9.910
REMARK  Name = 10172943
REMARK  7 active torsions:
REMARK  status: ('A' for Active; 'I' for Inactive)
REMARK    1  A    between atoms: O_1  and  C_3
REMARK    2  A    between atoms: O_1  and  C_19
REMARK    3  A    between atoms: C_4  and  C_11
REMARK    4  A    between atoms: C_19  and  C_20
REMARK    5  A    between atoms: C_20  and  N_21
REMARK    6  A    between atoms: C_20  and  C_25
REMARK    7  A    between atoms: C_25  and  C_27
REMARK                            x       y       z     vdW  Elec       q    Type
REMARK                         _______ _______ _______ _____ _____    ______ ____
ROOT
ATOM      1  O   UNL     1      35.666 -16.895 -23.057  0.00  0.00    -0.476 OA
ENDROOT
BRANCH   1   3
ATOM      2  N   UNL     1      33.528 -15.037 -25.350  0.00  0.00    -0.239 NA
ATOM      3  C   UNL     1      34.801 -15.937 -23.519  0.00  0.00    +0.158 C 
ATOM      4  C   UNL     1      33.458 -13.990 -23.171  0.00  0.00    +0.022 C 
ATOM      5  C   UNL     1      34.336 -14.946 -22.675  0.00  0.00    +0.040 C 
ATOM      6  C   UNL     1      34.380 -15.950 -24.831  0.00  0.00    +0.136 C 
ATOM      7  C   UNL     1      33.088 -14.077 -24.504  0.00  0.00    +0.099 C 
BRANCH   4  11
ATOM      8  N   UNL     1      31.814  -8.928 -20.868  0.00  0.00    -0.280 N 
ATOM      9  N   UNL     1      31.517  -9.900 -19.983  0.00  0.00    -0.173 NA
ATOM     10  C   UNL     1      32.481 -10.720 -21.869  0.00  0.00    +0.032 A 
ATOM     11  C   UNL     1      32.947 -12.937 -22.325  0.00  0.00    +0.002 C 
ATOM     12  C   UNL     1      31.922 -11.036 -20.576  0.00  0.00    +0.102 A 
ATOM     13  C   UNL     1      33.011 -11.607 -22.796  0.00  0.00    +0.003 C 
ATOM     14  C   UNL     1      32.396  -9.365 -22.021  0.00  0.00    +0.053 A 
ATOM     15  C   UNL     1      32.399 -13.297 -21.049  0.00  0.00    +0.002 C 
ATOM     16  C   UNL     1      31.867 -12.368 -20.127  0.00  0.00    +0.021 C 
ATOM     17  C   UNL     1      32.785  -8.440 -23.099  0.00  0.00    +0.051 C 
ATOM     18  H   UNL     1      31.625  -7.977 -20.695  0.00  0.00    +0.189 HD
ENDBRANCH   4  11
ENDBRANCH   1   3
BRANCH   1  19
ATOM     19  C   UNL     1      35.117 -18.177 -22.785  0.00  0.00    +0.184 C 
BRANCH  19  20
ATOM     20  C   UNL     1      35.489 -18.671 -21.380  0.00  0.00    -0.017 C 
BRANCH  20  21
ATOM     21  N   UNL     1      35.411 -17.539 -20.449  0.00  0.00    +0.384 N 
ATOM     22  H   UNL     1      34.498 -17.093 -20.534  0.00  0.00    -0.089 HD
ATOM     23  H   UNL     1      36.142 -16.864 -20.673  0.00  0.00    -0.089 HD
ATOM     24  H   UNL     1      35.539 -17.875 -19.495  0.00  0.00    -0.089 HD
ENDBRANCH  20  21
BRANCH  20  25
ATOM     25  C   UNL     1      34.585 -19.824 -20.867  0.00  0.00    +0.009 C 
BRANCH  25  27
ATOM     26  N   UNL     1      36.624 -21.500 -18.344  0.00  0.00    -0.312 N 
ATOM     27  C   UNL     1      35.162 -20.601 -19.751  0.00  0.00    -0.008 C 
ATOM     28  C   UNL     1      34.446 -21.394 -18.811  0.00  0.00    +0.011 C 
ATOM     29  C   UNL     1      35.386 -21.947 -17.940  0.00  0.00    +0.048 C 
ATOM     30  C   UNL     1      36.500 -20.687 -19.439  0.00  0.00    +0.058 C 
ATOM     31  C   UNL     1      33.083 -21.694 -18.617  0.00  0.00    +0.001 C 
ATOM     32  C   UNL     1      35.031 -22.788 -16.879  0.00  0.00    +0.015 C 
ATOM     33  C   UNL     1      32.712 -22.534 -17.560  0.00  0.00    +0.000 C 
ATOM     34  C   UNL     1      33.673 -23.071 -16.706  0.00  0.00    +0.001 C 
ATOM     35  H   UNL     1      37.476 -21.733 -17.910  0.00  0.00    +0.152 HD
ENDBRANCH  25  27
ENDBRANCH  20  25
ENDBRANCH  19  20
ENDBRANCH   1  19
TORSDOF 7
ENDMDL
MODEL 8
REMARK VINA RESULT:     -11.8      1.429      2.115
REMARK  Name = 10172943
REMARK  7 active torsions:
REMARK  status: ('A' for Active; 'I' for Inactive)
REMARK    1  A    between atoms: O_1  and  C_3
REMARK    2  A    between atoms: O_1  and  C_19
REMARK    3  A    between atoms: C_4  and  C_11
REMARK    4  A    between atoms: C_19  and  C_20
REMARK    5  A    between atoms: C_20  and  N_21
REMARK    6  A    between atoms: C_20  and  C_25
REMARK    7  A    between atoms: C_25  and  C_27
REMARK                            x       y       z     vdW  Elec       q    Type
REMARK                         _______ _______ _______ _____ _____    ______ ____
ROOT
ATOM      1  O   UNL     1      34.014 -13.303 -23.389  0.00  0.00    -0.476 OA
ENDROOT
BRANCH   1   3
ATOM      2  N   UNL     1      33.927 -16.385 -25.330  0.00  0.00    -0.239 NA
ATOM      3  C   UNL     1      34.144 -14.632 -23.699  0.00  0.00    +0.158 C 
ATOM      4  C   UNL     1      34.727 -16.872 -23.101  0.00  0.00    +0.022 C 
ATOM      5  C   UNL     1      34.604 -15.532 -22.756  0.00  0.00    +0.040 C 
ATOM      6  C   UNL     1      33.821 -15.090 -24.958  0.00  0.00    +0.136 C 
ATOM      7  C   UNL     1      34.378 -17.246 -24.389  0.00  0.00    +0.099 C 
BRANCH   4  11
ATOM      8  N   UNL     1      35.244 -21.093 -19.158  0.00  0.00    -0.280 N 
ATOM      9  N   UNL     1      36.480 -20.631 -19.432  0.00  0.00    -0.173 NA
ATOM     10  C   UNL     1      34.874 -19.550 -20.622  0.00  0.00    +0.032 A 
ATOM     11  C   UNL     1      35.204 -17.846 -22.147  0.00  0.00    +0.002 C 
ATOM     12  C   UNL     1      36.287 -19.663 -20.344  0.00  0.00    +0.102 A 
ATOM     13  C   UNL     1      34.257 -18.673 -21.504  0.00  0.00    +0.003 C 
ATOM     14  C   UNL     1      34.239 -20.479 -19.846  0.00  0.00    +0.053 A 
ATOM     15  C   UNL     1      36.615 -17.924 -21.903  0.00  0.00    +0.002 C 
ATOM     16  C   UNL     1      37.212 -18.829 -20.998  0.00  0.00    +0.021 C 
ATOM     17  C   UNL     1      32.827 -20.859 -19.672  0.00  0.00    +0.051 C 
ATOM     18  H   UNL     1      35.079 -21.818 -18.512  0.00  0.00    +0.189 HD
ENDBRANCH   4  11
ENDBRANCH   1   3
BRANCH   1  19
ATOM     19  C   UNL     1      33.940 -12.394 -24.479  0.00  0.00    +0.184 C 
BRANCH  19  20
ATOM     20  C   UNL     1      34.282 -10.961 -24.051  0.00  0.00    -0.017 C 
BRANCH  20  21
ATOM     21  N   UNL     1      35.356 -10.457 -24.917  0.00  0.00    +0.384 N 
ATOM     22  H   UNL     1      35.718 -11.221 -25.488  0.00  0.00    -0.089 HD
ATOM     23  H   UNL     1      36.107 -10.077 -24.340  0.00  0.00    -0.089 HD
ATOM     24  H   UNL     1      34.988  -9.724 -25.522  0.00  0.00    -0.089 HD
ENDBRANCH  20  21
BRANCH  20  25
ATOM     25  C   UNL     1      33.074  -9.989 -24.111  0.00  0.00    +0.009 C 
BRANCH  25  27
ATOM     26  N   UNL     1      32.770  -7.543 -21.418  0.00  0.00    -0.312 N 
ATOM     27  C   UNL     1      32.848  -9.217 -22.872  0.00  0.00    -0.008 C 
ATOM     28  C   UNL     1      32.320  -9.715 -21.648  0.00  0.00    +0.011 C 
ATOM     29  C   UNL     1      32.282  -8.645 -20.752  0.00  0.00    +0.048 C 
ATOM     30  C   UNL     1      33.116  -7.878 -22.699  0.00  0.00    +0.058 C 
ATOM     31  C   UNL     1      31.869 -10.978 -21.215  0.00  0.00    +0.001 C 
ATOM     32  C   UNL     1      31.813  -8.774 -19.440  0.00  0.00    +0.015 C 
ATOM     33  C   UNL     1      31.397 -11.122 -19.906  0.00  0.00    +0.000 C 
ATOM     34  C   UNL     1      31.370 -10.036 -19.033  0.00  0.00    +0.001 C 
ATOM     35  H   UNL     1      32.860  -6.643 -21.027  0.00  0.00    +0.152 HD
ENDBRANCH  25  27
ENDBRANCH  20  25
ENDBRANCH  19  20
ENDBRANCH   1  19
TORSDOF 7
ENDMDL
MODEL 9
REMARK VINA RESULT:     -11.8      1.817      9.848
REMARK  Name = 10172943
REMARK  7 active torsions:
REMARK  status: ('A' for Active; 'I' for Inactive)
REMARK    1  A    between atoms: O_1  and  C_3
REMARK    2  A    between atoms: O_1  and  C_19
REMARK    3  A    between atoms: C_4  and  C_11
REMARK    4  A    between atoms: C_19  and  C_20
REMARK    5  A    between atoms: C_20  and  N_21
REMARK    6  A    between atoms: C_20  and  C_25
REMARK    7  A    between atoms: C_25  and  C_27
REMARK                            x       y       z     vdW  Elec       q    Type
REMARK                         _______ _______ _______ _____ _____    ______ ____
ROOT
ATOM      1  O   UNL     1      33.827 -15.347 -23.591  0.00  0.00    -0.476 OA
ENDROOT
BRANCH   1   3
ATOM      2  N   UNL     1      33.582 -12.730 -26.116  0.00  0.00    -0.239 NA
ATOM      3  C   UNL     1      33.697 -14.098 -24.141  0.00  0.00    +0.158 C 
ATOM      4  C   UNL     1      33.420 -11.733 -23.919  0.00  0.00    +0.022 C 
ATOM      5  C   UNL     1      33.552 -12.986 -23.332  0.00  0.00    +0.040 C 
ATOM      6  C   UNL     1      33.707 -13.932 -25.509  0.00  0.00    +0.136 C 
ATOM      7  C   UNL     1      33.442 -11.658 -25.303  0.00  0.00    +0.099 C 
BRANCH   4  11
ATOM      8  N   UNL     1      32.017  -7.841 -19.855  0.00  0.00    -0.280 N 
ATOM      9  N   UNL     1      32.783  -7.220 -20.774  0.00  0.00    -0.173 NA
ATOM     10  C   UNL     1      32.444  -9.410 -21.275  0.00  0.00    +0.032 A 
ATOM     11  C   UNL     1      33.266 -10.545 -23.112  0.00  0.00    +0.002 C 
ATOM     12  C   UNL     1      33.069  -8.173 -21.678  0.00  0.00    +0.102 A 
ATOM     13  C   UNL     1      32.494 -10.632 -21.933  0.00  0.00    +0.003 C 
ATOM     14  C   UNL     1      31.781  -9.161 -20.106  0.00  0.00    +0.053 A 
ATOM     15  C   UNL     1      33.904  -9.338 -23.551  0.00  0.00    +0.002 C 
ATOM     16  C   UNL     1      33.834  -8.109 -22.858  0.00  0.00    +0.021 C 
ATOM     17  C   UNL     1      30.965  -9.993 -19.206  0.00  0.00    +0.051 C 
ATOM     18  H   UNL     1      31.656  -7.378 -19.065  0.00  0.00    +0.189 HD
ENDBRANCH   4  11
ENDBRANCH   1   3
BRANCH   1  19
ATOM     19  C   UNL     1      35.140 -15.884 -23.524  0.00  0.00    +0.184 C 
BRANCH  19  20
ATOM     20  C   UNL     1      35.418 -16.546 -22.168  0.00  0.00    -0.017 C 
BRANCH  20  21
ATOM     21  N   UNL     1      34.985 -15.632 -21.103  0.00  0.00    +0.384 N 
ATOM     22  H   UNL     1      35.070 -14.669 -21.428  0.00  0.00    -0.089 HD
ATOM     23  H   UNL     1      35.573 -15.767 -20.280  0.00  0.00    -0.089 HD
ATOM     24  H   UNL     1      34.014 -15.827 -20.863  0.00  0.00    -0.089 HD
ENDBRANCH  20  21
BRANCH  20  25
ATOM     25  C   UNL     1      34.711 -17.916 -21.989  0.00  0.00    +0.009 C 
BRANCH  25  27
ATOM     26  N   UNL     1      36.969 -19.840 -19.860  0.00  0.00    -0.312 N 
ATOM     27  C   UNL     1      35.390 -18.836 -21.054  0.00  0.00    -0.008 C 
ATOM     28  C   UNL     1      34.781 -19.871 -20.291  0.00  0.00    +0.011 C 
ATOM     29  C   UNL     1      35.793 -20.486 -19.551  0.00  0.00    +0.048 C 
ATOM     30  C   UNL     1      36.736 -18.842 -20.768  0.00  0.00    +0.058 C 
ATOM     31  C   UNL     1      33.461 -20.346 -20.158  0.00  0.00    +0.001 C 
ATOM     32  C   UNL     1      35.551 -21.555 -18.681  0.00  0.00    +0.015 C 
ATOM     33  C   UNL     1      33.203 -21.414 -19.291  0.00  0.00    +0.000 C 
ATOM     34  C   UNL     1      34.234 -22.008 -18.565  0.00  0.00    +0.001 C 
ATOM     35  H   UNL     1      37.851 -20.064 -19.483  0.00  0.00    +0.152 HD
ENDBRANCH  25  27
ENDBRANCH  20  25
ENDBRANCH  19  20
ENDBRANCH   1  19
TORSDOF 7
ENDMDL
