MODEL 1
REMARK VINA RESULT:     -12.0      0.000      0.000
REMARK  Name = 72734520
REMARK  6 active torsions:
REMARK  status: ('A' for Active; 'I' for Inactive)
REMARK    1  A    between atoms: N_1  and  C_19
REMARK    2  A    between atoms: C_8  and  O_28
REMARK    3  A    between atoms: C_14  and  N_20
REMARK    4  A    between atoms: O_28  and  C_29
REMARK    5  A    between atoms: C_32  and  N_36
REMARK    6  A    between atoms: C_37  and  C_39
REMARK                            x       y       z     vdW  Elec       q    Type
REMARK                         _______ _______ _______ _____ _____    ______ ____
ROOT
ATOM      1  N   UNL     1      35.027 -20.663 -21.101  0.00  0.00    -0.238 N 
ATOM      2  N   UNL     1      34.730 -19.303 -22.973  0.00  0.00    -0.316 NA
ATOM      3  N   UNL     1      35.120 -18.352 -20.767  0.00  0.00    -0.294 NA
ATOM      4  N   UNL     1      34.462 -17.626 -24.686  0.00  0.00    -0.289 N 
ATOM      5  C   UNL     1      34.956 -19.366 -21.645  0.00  0.00    +0.207 C 
ATOM      6  C   UNL     1      34.827 -16.889 -22.612  0.00  0.00    +0.181 C 
ATOM      7  C   UNL     1      34.676 -18.027 -23.394  0.00  0.00    +0.188 C 
ATOM      8  C   UNL     1      35.056 -17.091 -21.251  0.00  0.00    +0.281 C 
ATOM      9  C   UNL     1      34.696 -15.772 -23.477  0.00  0.00    +0.008 C 
ATOM     10  C   UNL     1      34.471 -16.256 -24.747  0.00  0.00    +0.060 C 
ATOM     11  H   UNL     1      34.903 -21.379 -21.765  0.00  0.00    +0.166 HD
ATOM     12  H   UNL     1      34.322 -18.228 -25.452  0.00  0.00    +0.154 HD
ENDROOT
BRANCH   1  19
ATOM     13  F   UNL     1      33.442 -22.889 -17.163  0.00  0.00    -0.203 F 
ATOM     14  C   UNL     1      35.673 -22.074 -17.197  0.00  0.00    +0.076 C 
ATOM     15  C   UNL     1      34.434 -22.261 -17.810  0.00  0.00    +0.155 C 
ATOM     16  C   UNL     1      36.696 -21.417 -17.880  0.00  0.00    +0.018 C 
ATOM     17  C   UNL     1      34.220 -21.793 -19.107  0.00  0.00    +0.046 C 
ATOM     18  C   UNL     1      36.482 -20.949 -19.176  0.00  0.00    +0.017 C 
ATOM     19  C   UNL     1      35.244 -21.137 -19.790  0.00  0.00    +0.061 C 
BRANCH  14  20
ATOM     20  N   UNL     1      35.890 -22.541 -15.896  0.00  0.00    -0.310 N 
ATOM     21  N   UNL     1      36.394 -23.251 -13.176  0.00  0.00    +0.388 N 
ATOM     22  C   UNL     1      37.254 -22.471 -15.358  0.00  0.00    +0.068 C 
ATOM     23  C   UNL     1      34.813 -22.464 -14.905  0.00  0.00    +0.068 C 
ATOM     24  C   UNL     1      37.426 -23.457 -14.199  0.00  0.00    -0.056 C 
ATOM     25  C   UNL     1      35.063 -23.449 -13.761  0.00  0.00    -0.056 C 
ATOM     26  C   UNL     1      36.601 -24.161 -12.049  0.00  0.00    -0.101 C 
ATOM     27  H   UNL     1      36.462 -22.295 -12.828  0.00  0.00    -0.080 HD
ENDBRANCH  14  20
ENDBRANCH   1  19
BRANCH   8  28
ATOM     28  O   UNL     1      35.223 -16.050 -20.372  0.00  0.00    -0.429 OA
BRANCH  28  29
ATOM     29  C   UNL     1      34.304 -15.023 -20.427  0.00  0.00    +0.149 C 
ATOM     30  C   UNL     1      34.525 -13.934 -21.271  0.00  0.00    +0.052 C 
ATOM     31  C   UNL     1      33.153 -15.072 -19.640  0.00  0.00    +0.038 C 
ATOM     32  C   UNL     1      33.595 -12.896 -21.329  0.00  0.00    +0.054 C 
ATOM     33  C   UNL     1      32.445 -12.945 -20.542  0.00  0.00    +0.015 C 
ATOM     34  C   UNL     1      32.223 -14.034 -19.698  0.00  0.00    +0.004 C 
BRANCH  32  36
ATOM     35  O   UNL     1      33.372 -12.677 -24.315  0.00  0.00    -0.270 OA
ATOM     36  N   UNL     1      33.816 -11.808 -22.174  0.00  0.00    -0.280 N 
ATOM     37  C   UNL     1      33.696 -11.760 -23.570  0.00  0.00    +0.250 C 
ATOM     38  H   UNL     1      34.089 -10.970 -21.736  0.00  0.00    +0.155 HD
BRANCH  37  39
ATOM     39  C   UNL     1      34.020 -10.406 -24.104  0.00  0.00    +0.058 C 
ATOM     40  C   UNL     1      35.131 -10.206 -24.819  0.00  0.00    +0.005 C 
ENDBRANCH  37  39
ENDBRANCH  32  36
ENDBRANCH  28  29
ENDBRANCH   8  28
TORSDOF 6
ENDMDL
MODEL 2
REMARK VINA RESULT:     -11.9      4.101     10.381
REMARK  Name = 72734520
REMARK  6 active torsions:
REMARK  status: ('A' for Active; 'I' for Inactive)
REMARK    1  A    between atoms: N_1  and  C_19
REMARK    2  A    between atoms: C_8  and  O_28
REMARK    3  A    between atoms: C_14  and  N_20
REMARK    4  A    between atoms: O_28  and  C_29
REMARK    5  A    between atoms: C_32  and  N_36
REMARK    6  A    between atoms: C_37  and  C_39
REMARK                            x       y       z     vdW  Elec       q    Type
REMARK                         _______ _______ _______ _____ _____    ______ ____
ROOT
ATOM      1  N   UNL     1      36.819 -21.122 -17.944  0.00  0.00    -0.238 N 
ATOM      2  N   UNL     1      36.972 -22.581 -16.128  0.00  0.00    -0.316 NA
ATOM      3  N   UNL     1      34.892 -22.310 -17.363  0.00  0.00    -0.294 NA
ATOM      4  N   UNL     1      36.790 -24.157 -14.313  0.00  0.00    -0.289 N 
ATOM      5  C   UNL     1      36.193 -22.058 -17.097  0.00  0.00    +0.207 C 
ATOM      6  C   UNL     1      34.951 -23.814 -15.529  0.00  0.00    +0.181 C 
ATOM      7  C   UNL     1      36.284 -23.457 -15.376  0.00  0.00    +0.188 C 
ATOM      8  C   UNL     1      34.255 -23.201 -16.571  0.00  0.00    +0.281 C 
ATOM      9  C   UNL     1      34.658 -24.763 -14.517  0.00  0.00    +0.008 C 
ATOM     10  C   UNL     1      35.809 -24.955 -13.782  0.00  0.00    +0.060 C 
ATOM     11  H   UNL     1      37.765 -20.960 -17.725  0.00  0.00    +0.166 HD
ATOM     12  H   UNL     1      37.715 -24.097 -13.981  0.00  0.00    +0.154 HD
ENDROOT
BRANCH   1  19
ATOM     13  F   UNL     1      33.328 -19.954 -21.013  0.00  0.00    -0.203 F 
ATOM     14  C   UNL     1      35.442 -18.893 -21.227  0.00  0.00    +0.076 C 
ATOM     15  C   UNL     1      34.589 -19.792 -20.588  0.00  0.00    +0.155 C 
ATOM     16  C   UNL     1      36.753 -18.735 -20.777  0.00  0.00    +0.018 C 
ATOM     17  C   UNL     1      35.046 -20.532 -19.497  0.00  0.00    +0.046 C 
ATOM     18  C   UNL     1      37.210 -19.475 -19.686  0.00  0.00    +0.017 C 
ATOM     19  C   UNL     1      36.357 -20.373 -19.047  0.00  0.00    +0.061 C 
BRANCH  14  20
ATOM     20  N   UNL     1      34.987 -18.150 -22.322  0.00  0.00    -0.310 N 
ATOM     21  N   UNL     1      34.302 -16.640 -24.648  0.00  0.00    +0.388 N 
ATOM     22  C   UNL     1      35.505 -16.787 -22.494  0.00  0.00    +0.068 C 
ATOM     23  C   UNL     1      34.592 -18.838 -23.555  0.00  0.00    +0.068 C 
ATOM     24  C   UNL     1      34.563 -15.961 -23.372  0.00  0.00    -0.056 C 
ATOM     25  C   UNL     1      33.680 -17.946 -24.400  0.00  0.00    -0.056 C 
ATOM     26  C   UNL     1      33.445 -15.816 -25.501  0.00  0.00    -0.101 C 
ATOM     27  H   UNL     1      35.188 -16.783 -25.131  0.00  0.00    -0.080 HD
ENDBRANCH  14  20
ENDBRANCH   1  19
BRANCH   8  28
ATOM     28  O   UNL     1      32.934 -23.469 -16.829  0.00  0.00    -0.429 OA
BRANCH  28  29
ATOM     29  C   UNL     1      32.030 -23.228 -15.814  0.00  0.00    +0.149 C 
ATOM     30  C   UNL     1      30.733 -22.815 -16.120  0.00  0.00    +0.052 C 
ATOM     31  C   UNL     1      32.412 -23.399 -14.484  0.00  0.00    +0.038 C 
ATOM     32  C   UNL     1      29.818 -22.573 -15.095  0.00  0.00    +0.054 C 
ATOM     33  C   UNL     1      30.200 -22.744 -13.765  0.00  0.00    +0.015 C 
ATOM     34  C   UNL     1      31.497 -23.158 -13.459  0.00  0.00    +0.004 C 
BRANCH  32  36
ATOM     35  O   UNL     1      27.750 -23.825 -16.876  0.00  0.00    -0.270 OA
ATOM     36  N   UNL     1      28.521 -22.161 -15.402  0.00  0.00    -0.280 N 
ATOM     37  C   UNL     1      27.592 -22.787 -16.244  0.00  0.00    +0.250 C 
ATOM     38  H   UNL     1      28.221 -21.327 -14.972  0.00  0.00    +0.155 HD
BRANCH  37  39
ATOM     39  C   UNL     1      26.309 -22.028 -16.309  0.00  0.00    +0.058 C 
ATOM     40  C   UNL     1      26.011 -21.290 -17.381  0.00  0.00    +0.005 C 
ENDBRANCH  37  39
ENDBRANCH  32  36
ENDBRANCH  28  29
ENDBRANCH   8  28
TORSDOF 6
ENDMDL
MODEL 3
REMARK VINA RESULT:     -11.7      2.424      3.873
REMARK  Name = 72734520
REMARK  6 active torsions:
REMARK  status: ('A' for Active; 'I' for Inactive)
REMARK    1  A    between atoms: N_1  and  C_19
REMARK    2  A    between atoms: C_8  and  O_28
REMARK    3  A    between atoms: C_14  and  N_20
REMARK    4  A    between atoms: O_28  and  C_29
REMARK    5  A    between atoms: C_32  and  N_36
REMARK    6  A    between atoms: C_37  and  C_39
REMARK                            x       y       z     vdW  Elec       q    Type
REMARK                         _______ _______ _______ _____ _____    ______ ____
ROOT
ATOM      1  N   UNL     1      34.469 -17.728 -23.807  0.00  0.00    -0.238 N 
ATOM      2  N   UNL     1      34.023 -16.015 -25.329  0.00  0.00    -0.316 NA
ATOM      3  N   UNL     1      34.540 -15.536 -22.999  0.00  0.00    -0.294 NA
ATOM      4  N   UNL     1      33.610 -14.027 -26.629  0.00  0.00    -0.289 N 
ATOM      5  C   UNL     1      34.337 -16.348 -24.060  0.00  0.00    +0.207 C 
ATOM      6  C   UNL     1      34.098 -13.729 -24.472  0.00  0.00    +0.181 C 
ATOM      7  C   UNL     1      33.917 -14.682 -25.466  0.00  0.00    +0.188 C 
ATOM      8  C   UNL     1      34.421 -14.204 -23.201  0.00  0.00    +0.281 C 
ATOM      9  C   UNL     1      33.888 -12.461 -25.072  0.00  0.00    +0.008 C 
ATOM     10  C   UNL     1      33.589 -12.675 -26.400  0.00  0.00    +0.060 C 
ATOM     11  H   UNL     1      34.315 -18.292 -24.599  0.00  0.00    +0.166 HD
ATOM     12  H   UNL     1      33.431 -14.459 -27.495  0.00  0.00    +0.154 HD
ENDROOT
BRANCH   1  19
ATOM     13  F   UNL     1      33.120 -20.555 -20.180  0.00  0.00    -0.203 F 
ATOM     14  C   UNL     1      35.399 -19.904 -20.336  0.00  0.00    +0.076 C 
ATOM     15  C   UNL     1      34.090 -19.884 -20.817  0.00  0.00    +0.155 C 
ATOM     16  C   UNL     1      36.399 -19.199 -21.008  0.00  0.00    +0.018 C 
ATOM     17  C   UNL     1      33.781 -19.162 -21.971  0.00  0.00    +0.046 C 
ATOM     18  C   UNL     1      36.090 -18.477 -22.160  0.00  0.00    +0.017 C 
ATOM     19  C   UNL     1      34.782 -18.459 -22.642  0.00  0.00    +0.061 C 
BRANCH  14  20
ATOM     20  N   UNL     1      35.711 -20.626 -19.179  0.00  0.00    -0.310 N 
ATOM     21  N   UNL     1      36.449 -22.284 -16.973  0.00  0.00    +0.388 N 
ATOM     22  C   UNL     1      35.033 -21.911 -18.965  0.00  0.00    +0.068 C 
ATOM     23  C   UNL     1      37.046 -20.506 -18.585  0.00  0.00    +0.068 C 
ATOM     24  C   UNL     1      35.073 -22.299 -17.485  0.00  0.00    -0.056 C 
ATOM     25  C   UNL     1      37.021 -20.940 -17.117  0.00  0.00    -0.056 C 
ATOM     26  C   UNL     1      36.480 -22.709 -15.574  0.00  0.00    -0.101 C 
ATOM     27  H   UNL     1      37.009 -22.939 -17.517  0.00  0.00    -0.080 HD
ENDBRANCH  14  20
ENDBRANCH   1  19
BRANCH   8  28
ATOM     28  O   UNL     1      34.625 -13.366 -22.134  0.00  0.00    -0.429 OA
BRANCH  28  29
ATOM     29  C   UNL     1      33.510 -12.794 -21.556  0.00  0.00    +0.149 C 
ATOM     30  C   UNL     1      33.113 -11.510 -21.932  0.00  0.00    +0.052 C 
ATOM     31  C   UNL     1      32.780 -13.498 -20.599  0.00  0.00    +0.038 C 
ATOM     32  C   UNL     1      31.985 -10.931 -21.349  0.00  0.00    +0.054 C 
ATOM     33  C   UNL     1      31.255 -11.635 -20.392  0.00  0.00    +0.015 C 
ATOM     34  C   UNL     1      31.652 -12.919 -20.018  0.00  0.00    +0.004 C 
BRANCH  32  36
ATOM     35  O   UNL     1      32.625  -8.262 -20.131  0.00  0.00    -0.270 OA
ATOM     36  N   UNL     1      31.587  -9.647 -21.726  0.00  0.00    -0.280 N 
ATOM     37  C   UNL     1      31.918  -8.428 -21.118  0.00  0.00    +0.250 C 
ATOM     38  H   UNL     1      31.003  -9.592 -22.516  0.00  0.00    +0.155 HD
BRANCH  37  39
ATOM     39  C   UNL     1      31.290  -7.274 -21.824  0.00  0.00    +0.058 C 
ATOM     40  C   UNL     1      31.009  -7.347 -23.128  0.00  0.00    +0.005 C 
ENDBRANCH  37  39
ENDBRANCH  32  36
ENDBRANCH  28  29
ENDBRANCH   8  28
TORSDOF 6
ENDMDL
MODEL 4
REMARK VINA RESULT:     -11.1      1.562      1.932
REMARK  Name = 72734520
REMARK  6 active torsions:
REMARK  status: ('A' for Active; 'I' for Inactive)
REMARK    1  A    between atoms: N_1  and  C_19
REMARK    2  A    between atoms: C_8  and  O_28
REMARK    3  A    between atoms: C_14  and  N_20
REMARK    4  A    between atoms: O_28  and  C_29
REMARK    5  A    between atoms: C_32  and  N_36
REMARK    6  A    between atoms: C_37  and  C_39
REMARK                            x       y       z     vdW  Elec       q    Type
REMARK                         _______ _______ _______ _____ _____    ______ ____
ROOT
ATOM      1  N   UNL     1      34.680 -19.671 -22.152  0.00  0.00    -0.238 N 
ATOM      2  N   UNL     1      34.350 -18.182 -23.919  0.00  0.00    -0.316 NA
ATOM      3  N   UNL     1      34.800 -17.389 -21.662  0.00  0.00    -0.294 NA
ATOM      4  N   UNL     1      34.056 -16.389 -25.504  0.00  0.00    -0.289 N 
ATOM      5  C   UNL     1      34.606 -18.338 -22.604  0.00  0.00    +0.207 C 
ATOM      6  C   UNL     1      34.476 -15.799 -23.394  0.00  0.00    +0.181 C 
ATOM      7  C   UNL     1      34.298 -16.879 -24.249  0.00  0.00    +0.188 C 
ATOM      8  C   UNL     1      34.735 -16.097 -22.056  0.00  0.00    +0.281 C 
ATOM      9  C   UNL     1      34.334 -14.625 -24.176  0.00  0.00    +0.008 C 
ATOM     10  C   UNL     1      34.076 -15.018 -25.472  0.00  0.00    +0.060 C 
ATOM     11  H   UNL     1      34.535 -20.338 -22.861  0.00  0.00    +0.166 HD
ATOM     12  H   UNL     1      33.894 -16.935 -26.307  0.00  0.00    +0.154 HD
ENDROOT
BRANCH   1  19
ATOM     13  F   UNL     1      33.073 -21.743 -18.140  0.00  0.00    -0.203 F 
ATOM     14  C   UNL     1      35.404 -21.353 -18.371  0.00  0.00    +0.076 C 
ATOM     15  C   UNL     1      34.102 -21.280 -18.864  0.00  0.00    +0.155 C 
ATOM     16  C   UNL     1      36.466 -20.866 -19.134  0.00  0.00    +0.018 C 
ATOM     17  C   UNL     1      33.861 -20.722 -20.121  0.00  0.00    +0.046 C 
ATOM     18  C   UNL     1      36.226 -20.308 -20.389  0.00  0.00    +0.017 C 
ATOM     19  C   UNL     1      34.923 -20.236 -20.883  0.00  0.00    +0.061 C 
BRANCH  14  20
ATOM     20  N   UNL     1      35.649 -21.911 -17.112  0.00  0.00    -0.310 N 
ATOM     21  N   UNL     1      36.179 -23.279 -14.661  0.00  0.00    +0.388 N 
ATOM     22  C   UNL     1      34.693 -22.902 -16.600  0.00  0.00    +0.068 C 
ATOM     23  C   UNL     1      37.027 -22.053 -16.634  0.00  0.00    +0.068 C 
ATOM     24  C   UNL     1      34.797 -23.011 -15.077  0.00  0.00    -0.056 C 
ATOM     25  C   UNL     1      37.056 -22.191 -15.110  0.00  0.00    -0.056 C 
ATOM     26  C   UNL     1      36.257 -23.435 -13.209  0.00  0.00    -0.101 C 
ATOM     27  H   UNL     1      36.489 -24.149 -15.092  0.00  0.00    -0.080 HD
ENDBRANCH  14  20
ENDBRANCH   1  19
BRANCH   8  28
ATOM     28  O   UNL     1      34.931 -15.121 -21.112  0.00  0.00    -0.429 OA
BRANCH  28  29
ATOM     29  C   UNL     1      33.902 -14.224 -20.906  0.00  0.00    +0.149 C 
ATOM     30  C   UNL     1      33.819 -13.070 -21.685  0.00  0.00    +0.052 C 
ATOM     31  C   UNL     1      32.946 -14.472 -19.922  0.00  0.00    +0.038 C 
ATOM     32  C   UNL     1      32.778 -12.164 -21.479  0.00  0.00    +0.054 C 
ATOM     33  C   UNL     1      31.822 -12.411 -20.495  0.00  0.00    +0.015 C 
ATOM     34  C   UNL     1      31.905 -13.566 -19.717  0.00  0.00    +0.004 C 
BRANCH  32  36
ATOM     35  O   UNL     1      32.195  -9.325 -20.694  0.00  0.00    -0.270 OA
ATOM     36  N   UNL     1      32.694 -11.009 -22.259  0.00  0.00    -0.280 N 
ATOM     37  C   UNL     1      32.418  -9.701 -21.838  0.00  0.00    +0.250 C 
ATOM     38  H   UNL     1      32.849 -11.129 -23.224  0.00  0.00    +0.155 HD
BRANCH  37  39
ATOM     39  C   UNL     1      32.417  -8.744 -22.982  0.00  0.00    +0.058 C 
ATOM     40  C   UNL     1      33.419  -7.874 -23.140  0.00  0.00    +0.005 C 
ENDBRANCH  37  39
ENDBRANCH  32  36
ENDBRANCH  28  29
ENDBRANCH   8  28
TORSDOF 6
ENDMDL
MODEL 5
REMARK VINA RESULT:     -10.5      3.485     10.877
REMARK  Name = 72734520
REMARK  6 active torsions:
REMARK  status: ('A' for Active; 'I' for Inactive)
REMARK    1  A    between atoms: N_1  and  C_19
REMARK    2  A    between atoms: C_8  and  O_28
REMARK    3  A    between atoms: C_14  and  N_20
REMARK    4  A    between atoms: O_28  and  C_29
REMARK    5  A    between atoms: C_32  and  N_36
REMARK    6  A    between atoms: C_37  and  C_39
REMARK                            x       y       z     vdW  Elec       q    Type
REMARK                         _______ _______ _______ _____ _____    ______ ____
ROOT
ATOM      1  N   UNL     1      33.149 -14.634 -24.772  0.00  0.00    -0.238 N 
ATOM      2  N   UNL     1      33.532 -16.906 -25.140  0.00  0.00    -0.316 NA
ATOM      3  N   UNL     1      34.235 -15.821 -23.077  0.00  0.00    -0.294 NA
ATOM      4  N   UNL     1      34.080 -19.254 -25.201  0.00  0.00    -0.289 N 
ATOM      5  C   UNL     1      33.667 -15.857 -24.304  0.00  0.00    +0.207 C 
ATOM      6  C   UNL     1      34.669 -18.137 -23.362  0.00  0.00    +0.181 C 
ATOM      7  C   UNL     1      34.058 -18.021 -24.604  0.00  0.00    +0.188 C 
ATOM      8  C   UNL     1      34.745 -16.976 -22.593  0.00  0.00    +0.281 C 
ATOM      9  C   UNL     1      35.068 -19.490 -23.221  0.00  0.00    +0.008 C 
ATOM     10  C   UNL     1      34.693 -20.155 -24.369  0.00  0.00    +0.060 C 
ATOM     11  H   UNL     1      32.743 -14.692 -25.667  0.00  0.00    +0.166 HD
ATOM     12  H   UNL     1      33.713 -19.461 -26.091  0.00  0.00    +0.154 HD
ENDROOT
BRANCH   1  19
ATOM     13  F   UNL     1      32.246 -11.745 -21.055  0.00  0.00    -0.203 F 
ATOM     14  C   UNL     1      32.991 -10.785 -23.096  0.00  0.00    +0.076 C 
ATOM     15  C   UNL     1      32.638 -11.895 -22.328  0.00  0.00    +0.155 C 
ATOM     16  C   UNL     1      33.395 -10.954 -24.420  0.00  0.00    +0.018 C 
ATOM     17  C   UNL     1      32.691 -13.173 -22.885  0.00  0.00    +0.046 C 
ATOM     18  C   UNL     1      33.448 -12.231 -24.977  0.00  0.00    +0.017 C 
ATOM     19  C   UNL     1      33.096 -13.341 -24.209  0.00  0.00    +0.061 C 
BRANCH  14  20
ATOM     20  N   UNL     1      32.937  -9.501 -22.541  0.00  0.00    -0.310 N 
ATOM     21  N   UNL     1      32.777  -6.793 -21.648  0.00  0.00    +0.388 N 
ATOM     22  C   UNL     1      33.954  -8.528 -22.957  0.00  0.00    +0.068 C 
ATOM     23  C   UNL     1      31.646  -8.937 -22.137  0.00  0.00    +0.068 C 
ATOM     24  C   UNL     1      34.082  -7.408 -21.921  0.00  0.00    -0.056 C 
ATOM     25  C   UNL     1      31.848  -7.803 -21.128  0.00  0.00    -0.056 C 
ATOM     26  C   UNL     1      32.920  -5.690 -20.698  0.00  0.00    -0.101 C 
ATOM     27  H   UNL     1      32.402  -6.418 -22.518  0.00  0.00    -0.080 HD
ENDBRANCH  14  20
ENDBRANCH   1  19
BRANCH   8  28
ATOM     28  O   UNL     1      35.323 -16.957 -21.348  0.00  0.00    -0.429 OA
BRANCH  28  29
ATOM     29  C   UNL     1      35.687 -18.170 -20.801  0.00  0.00    +0.149 C 
ATOM     30  C   UNL     1      34.714 -19.006 -20.251  0.00  0.00    +0.052 C 
ATOM     31  C   UNL     1      37.025 -18.562 -20.798  0.00  0.00    +0.038 C 
ATOM     32  C   UNL     1      35.080 -20.233 -19.699  0.00  0.00    +0.054 C 
ATOM     33  C   UNL     1      36.419 -20.625 -19.696  0.00  0.00    +0.015 C 
ATOM     34  C   UNL     1      37.391 -19.790 -20.247  0.00  0.00    +0.004 C 
BRANCH  32  36
ATOM     35  O   UNL     1      35.310 -22.367 -17.600  0.00  0.00    -0.270 OA
ATOM     36  N   UNL     1      34.107 -21.069 -19.150  0.00  0.00    -0.280 N 
ATOM     37  C   UNL     1      34.270 -22.054 -18.166  0.00  0.00    +0.250 C 
ATOM     38  H   UNL     1      33.193 -20.952 -19.497  0.00  0.00    +0.155 HD
BRANCH  37  39
ATOM     39  C   UNL     1      32.980 -22.733 -17.849  0.00  0.00    +0.058 C 
ATOM     40  C   UNL     1      32.696 -23.099 -16.595  0.00  0.00    +0.005 C 
ENDBRANCH  37  39
ENDBRANCH  32  36
ENDBRANCH  28  29
ENDBRANCH   8  28
TORSDOF 6
ENDMDL
MODEL 6
REMARK VINA RESULT:     -10.2      4.075     10.684
REMARK  Name = 72734520
REMARK  6 active torsions:
REMARK  status: ('A' for Active; 'I' for Inactive)
REMARK    1  A    between atoms: N_1  and  C_19
REMARK    2  A    between atoms: C_8  and  O_28
REMARK    3  A    between atoms: C_14  and  N_20
REMARK    4  A    between atoms: O_28  and  C_29
REMARK    5  A    between atoms: C_32  and  N_36
REMARK    6  A    between atoms: C_37  and  C_39
REMARK                            x       y       z     vdW  Elec       q    Type
REMARK                         _______ _______ _______ _____ _____    ______ ____
ROOT
ATOM      1  N   UNL     1      36.834 -22.476 -17.016  0.00  0.00    -0.238 N 
ATOM      2  N   UNL     1      36.929 -23.697 -15.030  0.00  0.00    -0.316 NA
ATOM      3  N   UNL     1      34.981 -22.353 -15.597  0.00  0.00    -0.294 NA
ATOM      4  N   UNL     1      36.707 -24.829 -12.912  0.00  0.00    -0.289 N 
ATOM      5  C   UNL     1      36.213 -22.865 -15.813  0.00  0.00    +0.207 C 
ATOM      6  C   UNL     1      34.988 -23.560 -13.554  0.00  0.00    +0.181 C 
ATOM      7  C   UNL     1      36.254 -24.006 -13.909  0.00  0.00    +0.188 C 
ATOM      8  C   UNL     1      34.353 -22.702 -14.451  0.00  0.00    +0.281 C 
ATOM      9  C   UNL     1      34.682 -24.141 -12.297  0.00  0.00    +0.008 C 
ATOM     10  C   UNL     1      35.759 -24.917 -11.926  0.00  0.00    +0.060 C 
ATOM     11  H   UNL     1      37.729 -22.864 -17.144  0.00  0.00    +0.166 HD
ATOM     12  H   UNL     1      37.579 -25.286 -12.904  0.00  0.00    +0.154 HD
ENDROOT
BRANCH   1  19
ATOM     13  F   UNL     1      37.755 -18.966 -20.148  0.00  0.00    -0.203 F 
ATOM     14  C   UNL     1      35.609 -19.984 -20.169  0.00  0.00    +0.076 C 
ATOM     15  C   UNL     1      36.898 -19.869 -19.649  0.00  0.00    +0.155 C 
ATOM     16  C   UNL     1      34.726 -20.926 -19.639  0.00  0.00    +0.018 C 
ATOM     17  C   UNL     1      37.305 -20.697 -18.603  0.00  0.00    +0.046 C 
ATOM     18  C   UNL     1      35.133 -21.753 -18.593  0.00  0.00    +0.017 C 
ATOM     19  C   UNL     1      36.422 -21.639 -18.075  0.00  0.00    +0.061 C 
BRANCH  14  20
ATOM     20  N   UNL     1      35.198 -19.154 -21.217  0.00  0.00    -0.310 N 
ATOM     21  N   UNL     1      34.123 -17.454 -23.245  0.00  0.00    +0.388 N 
ATOM     22  C   UNL     1      34.170 -19.661 -22.135  0.00  0.00    +0.068 C 
ATOM     23  C   UNL     1      35.237 -17.698 -21.052  0.00  0.00    +0.068 C 
ATOM     24  C   UNL     1      34.214 -18.903 -23.463  0.00  0.00    -0.056 C 
ATOM     25  C   UNL     1      35.246 -17.002 -22.415  0.00  0.00    -0.056 C 
ATOM     26  C   UNL     1      34.112 -16.743 -24.524  0.00  0.00    -0.101 C 
ATOM     27  H   UNL     1      33.251 -17.248 -22.759  0.00  0.00    -0.080 HD
ENDBRANCH  14  20
ENDBRANCH   1  19
BRANCH   8  28
ATOM     28  O   UNL     1      33.100 -22.192 -14.218  0.00  0.00    -0.429 OA
BRANCH  28  29
ATOM     29  C   UNL     1      32.046 -23.082 -14.210  0.00  0.00    +0.149 C 
ATOM     30  C   UNL     1      30.756 -22.637 -14.500  0.00  0.00    +0.052 C 
ATOM     31  C   UNL     1      32.270 -24.427 -13.914  0.00  0.00    +0.038 C 
ATOM     32  C   UNL     1      29.690 -23.536 -14.494  0.00  0.00    +0.054 C 
ATOM     33  C   UNL     1      29.913 -24.881 -14.198  0.00  0.00    +0.015 C 
ATOM     34  C   UNL     1      31.203 -25.326 -13.909  0.00  0.00    +0.004 C 
BRANCH  32  36
ATOM     35  O   UNL     1      28.611 -22.163 -16.936  0.00  0.00    -0.270 OA
ATOM     36  N   UNL     1      28.400 -23.091 -14.785  0.00  0.00    -0.280 N 
ATOM     37  C   UNL     1      27.948 -22.453 -15.948  0.00  0.00    +0.250 C 
ATOM     38  H   UNL     1      27.723 -23.245 -14.086  0.00  0.00    +0.155 HD
BRANCH  37  39
ATOM     39  C   UNL     1      26.493 -22.134 -15.871  0.00  0.00    +0.058 C 
ATOM     40  C   UNL     1      25.913 -21.375 -16.806  0.00  0.00    +0.005 C 
ENDBRANCH  37  39
ENDBRANCH  32  36
ENDBRANCH  28  29
ENDBRANCH   8  28
TORSDOF 6
ENDMDL
MODEL 7
REMARK VINA RESULT:     -10.2      6.564     11.864
REMARK  Name = 72734520
REMARK  6 active torsions:
REMARK  status: ('A' for Active; 'I' for Inactive)
REMARK    1  A    between atoms: N_1  and  C_19
REMARK    2  A    between atoms: C_8  and  O_28
REMARK    3  A    between atoms: C_14  and  N_20
REMARK    4  A    between atoms: O_28  and  C_29
REMARK    5  A    between atoms: C_32  and  N_36
REMARK    6  A    between atoms: C_37  and  C_39
REMARK                            x       y       z     vdW  Elec       q    Type
REMARK                         _______ _______ _______ _____ _____    ______ ____
ROOT
ATOM      1  N   UNL     1      31.038  -8.330 -21.692  0.00  0.00    -0.238 N 
ATOM      2  N   UNL     1      30.523  -6.054 -21.631  0.00  0.00    -0.316 NA
ATOM      3  N   UNL     1      32.601  -6.857 -22.615  0.00  0.00    -0.294 NA
ATOM      4  N   UNL     1      30.302  -3.655 -21.728  0.00  0.00    -0.289 N 
ATOM      5  C   UNL     1      31.407  -7.005 -21.997  0.00  0.00    +0.207 C 
ATOM      6  C   UNL     1      32.165  -4.524 -22.597  0.00  0.00    +0.181 C 
ATOM      7  C   UNL     1      30.967  -4.830 -21.963  0.00  0.00    +0.188 C 
ATOM      8  C   UNL     1      32.991  -5.599 -22.922  0.00  0.00    +0.281 C 
ATOM      9  C   UNL     1      32.208  -3.114 -22.742  0.00  0.00    +0.008 C 
ATOM     10  C   UNL     1      31.049  -2.605 -22.197  0.00  0.00    +0.060 C 
ATOM     11  H   UNL     1      30.166  -8.405 -21.243  0.00  0.00    +0.166 HD
ATOM     12  H   UNL     1      29.424  -3.577 -21.290  0.00  0.00    +0.154 HD
ENDROOT
BRANCH   1  19
ATOM     13  F   UNL     1      31.598 -12.964 -20.601  0.00  0.00    -0.203 F 
ATOM     14  C   UNL     1      32.932 -12.026 -22.329  0.00  0.00    +0.076 C 
ATOM     15  C   UNL     1      31.947 -11.906 -21.348  0.00  0.00    +0.155 C 
ATOM     16  C   UNL     1      33.288 -10.917 -23.097  0.00  0.00    +0.018 C 
ATOM     17  C   UNL     1      31.318 -10.679 -21.137  0.00  0.00    +0.046 C 
ATOM     18  C   UNL     1      32.659  -9.690 -22.886  0.00  0.00    +0.017 C 
ATOM     19  C   UNL     1      31.674  -9.571 -21.906  0.00  0.00    +0.061 C 
BRANCH  14  20
ATOM     20  N   UNL     1      33.565 -13.255 -22.542  0.00  0.00    -0.310 N 
ATOM     21  N   UNL     1      35.046 -15.632 -23.100  0.00  0.00    +0.388 N 
ATOM     22  C   UNL     1      33.705 -13.727 -23.925  0.00  0.00    +0.068 C 
ATOM     23  C   UNL     1      34.598 -13.713 -21.607  0.00  0.00    +0.068 C 
ATOM     24  C   UNL     1      33.919 -15.242 -23.956  0.00  0.00    -0.056 C 
ATOM     25  C   UNL     1      34.784 -15.229 -21.714  0.00  0.00    -0.056 C 
ATOM     26  C   UNL     1      35.276 -17.075 -23.180  0.00  0.00    -0.101 C 
ATOM     27  H   UNL     1      35.887 -15.158 -23.427  0.00  0.00    -0.080 HD
ENDBRANCH  14  20
ENDBRANCH   1  19
BRANCH   8  28
ATOM     28  O   UNL     1      34.199  -5.432 -23.551  0.00  0.00    -0.429 OA
BRANCH  28  29
ATOM     29  C   UNL     1      34.176  -4.988 -24.858  0.00  0.00    +0.149 C 
ATOM     30  C   UNL     1      35.364  -4.613 -25.487  0.00  0.00    +0.052 C 
ATOM     31  C   UNL     1      32.967  -4.915 -25.549  0.00  0.00    +0.038 C 
ATOM     32  C   UNL     1      35.342  -4.166 -26.808  0.00  0.00    +0.054 C 
ATOM     33  C   UNL     1      34.133  -4.093 -27.499  0.00  0.00    +0.015 C 
ATOM     34  C   UNL     1      32.946  -4.468 -26.871  0.00  0.00    +0.004 C 
BRANCH  32  36
ATOM     35  O   UNL     1      37.434  -5.839 -28.164  0.00  0.00    -0.270 OA
ATOM     36  N   UNL     1      36.530  -3.792 -27.438  0.00  0.00    -0.280 N 
ATOM     37  C   UNL     1      37.475  -4.619 -28.059  0.00  0.00    +0.250 C 
ATOM     38  H   UNL     1      36.727  -2.827 -27.447  0.00  0.00    +0.155 HD
BRANCH  37  39
ATOM     39  C   UNL     1      38.613  -3.832 -28.617  0.00  0.00    +0.058 C 
ATOM     40  C   UNL     1      39.872  -4.245 -28.448  0.00  0.00    +0.005 C 
ENDBRANCH  37  39
ENDBRANCH  32  36
ENDBRANCH  28  29
ENDBRANCH   8  28
TORSDOF 6
ENDMDL
MODEL 8
REMARK VINA RESULT:     -10.2      6.966     15.067
REMARK  Name = 72734520
REMARK  6 active torsions:
REMARK  status: ('A' for Active; 'I' for Inactive)
REMARK    1  A    between atoms: N_1  and  C_19
REMARK    2  A    between atoms: C_8  and  O_28
REMARK    3  A    between atoms: C_14  and  N_20
REMARK    4  A    between atoms: O_28  and  C_29
REMARK    5  A    between atoms: C_32  and  N_36
REMARK    6  A    between atoms: C_37  and  C_39
REMARK                            x       y       z     vdW  Elec       q    Type
REMARK                         _______ _______ _______ _____ _____    ______ ____
ROOT
ATOM      1  N   UNL     1      32.162  -6.382 -23.329  0.00  0.00    -0.238 N 
ATOM      2  N   UNL     1      31.301  -7.987 -21.868  0.00  0.00    -0.316 NA
ATOM      3  N   UNL     1      33.237  -8.456 -23.268  0.00  0.00    -0.294 NA
ATOM      4  N   UNL     1      30.669  -9.855 -20.480  0.00  0.00    -0.289 N 
ATOM      5  C   UNL     1      32.237  -7.682 -22.790  0.00  0.00    +0.207 C 
ATOM      6  C   UNL     1      32.432 -10.152 -21.815  0.00  0.00    +0.181 C 
ATOM      7  C   UNL     1      31.457  -9.244 -21.420  0.00  0.00    +0.188 C 
ATOM      8  C   UNL     1      33.341  -9.712 -22.777  0.00  0.00    +0.281 C 
ATOM      9  C   UNL     1      32.210 -11.344 -21.081  0.00  0.00    +0.008 C 
ATOM     10  C   UNL     1      31.118 -11.133 -20.267  0.00  0.00    +0.060 C 
ATOM     11  H   UNL     1      31.424  -5.844 -22.961  0.00  0.00    +0.166 HD
ATOM     12  H   UNL     1      29.899  -9.440 -20.028  0.00  0.00    +0.154 HD
ENDROOT
BRANCH   1  19
ATOM     13  F   UNL     1      32.481  -3.382 -27.053  0.00  0.00    -0.203 F 
ATOM     14  C   UNL     1      34.470  -4.354 -26.193  0.00  0.00    +0.076 C 
ATOM     15  C   UNL     1      33.086  -4.186 -26.167  0.00  0.00    +0.155 C 
ATOM     16  C   UNL     1      35.087  -5.196 -25.267  0.00  0.00    +0.018 C 
ATOM     17  C   UNL     1      32.319  -4.860 -25.216  0.00  0.00    +0.046 C 
ATOM     18  C   UNL     1      34.321  -5.869 -24.316  0.00  0.00    +0.017 C 
ATOM     19  C   UNL     1      32.937  -5.701 -24.290  0.00  0.00    +0.061 C 
BRANCH  14  20
ATOM     20  N   UNL     1      35.242  -3.681 -27.146  0.00  0.00    -0.310 N 
ATOM     21  N   UNL     1      36.593  -2.233 -29.204  0.00  0.00    +0.388 N 
ATOM     22  C   UNL     1      35.180  -4.148 -28.537  0.00  0.00    +0.068 C 
ATOM     23  C   UNL     1      35.539  -2.256 -26.968  0.00  0.00    +0.068 C 
ATOM     24  C   UNL     1      36.415  -3.687 -29.314  0.00  0.00    -0.056 C 
ATOM     25  C   UNL     1      36.763  -1.855 -27.797  0.00  0.00    -0.056 C 
ATOM     26  C   UNL     1      37.744  -1.797 -29.995  0.00  0.00    -0.101 C 
ATOM     27  H   UNL     1      35.762  -1.771 -29.571  0.00  0.00    -0.080 HD
ENDBRANCH  14  20
ENDBRANCH   1  19
BRANCH   8  28
ATOM     28  O   UNL     1      34.352 -10.511 -23.251  0.00  0.00    -0.429 OA
BRANCH  28  29
ATOM     29  C   UNL     1      33.988 -11.647 -23.944  0.00  0.00    +0.149 C 
ATOM     30  C   UNL     1      34.178 -12.904 -23.370  0.00  0.00    +0.052 C 
ATOM     31  C   UNL     1      33.428 -11.539 -25.217  0.00  0.00    +0.038 C 
ATOM     32  C   UNL     1      33.809 -14.053 -24.069  0.00  0.00    +0.054 C 
ATOM     33  C   UNL     1      33.249 -13.945 -25.342  0.00  0.00    +0.015 C 
ATOM     34  C   UNL     1      33.058 -12.689 -25.916  0.00  0.00    +0.004 C 
BRANCH  32  36
ATOM     35  O   UNL     1      34.919 -16.582 -25.248  0.00  0.00    -0.270 OA
ATOM     36  N   UNL     1      33.999 -15.311 -23.495  0.00  0.00    -0.280 N 
ATOM     37  C   UNL     1      34.525 -16.463 -24.094  0.00  0.00    +0.250 C 
ATOM     38  H   UNL     1      33.731 -15.398 -22.551  0.00  0.00    +0.155 HD
BRANCH  37  39
ATOM     39  C   UNL     1      34.565 -17.610 -23.141  0.00  0.00    +0.058 C 
ATOM     40  C   UNL     1      34.768 -18.854 -23.583  0.00  0.00    +0.005 C 
ENDBRANCH  37  39
ENDBRANCH  32  36
ENDBRANCH  28  29
ENDBRANCH   8  28
TORSDOF 6
ENDMDL
MODEL 9
REMARK VINA RESULT:     -10.1      5.266     13.698
REMARK  Name = 72734520
REMARK  6 active torsions:
REMARK  status: ('A' for Active; 'I' for Inactive)
REMARK    1  A    between atoms: N_1  and  C_19
REMARK    2  A    between atoms: C_8  and  O_28
REMARK    3  A    between atoms: C_14  and  N_20
REMARK    4  A    between atoms: O_28  and  C_29
REMARK    5  A    between atoms: C_32  and  N_36
REMARK    6  A    between atoms: C_37  and  C_39
REMARK                            x       y       z     vdW  Elec       q    Type
REMARK                         _______ _______ _______ _____ _____    ______ ____
ROOT
ATOM      1  N   UNL     1      31.625  -9.014 -21.376  0.00  0.00    -0.238 N 
ATOM      2  N   UNL     1      31.669 -11.063 -20.261  0.00  0.00    -0.316 NA
ATOM      3  N   UNL     1      32.904 -10.721 -22.330  0.00  0.00    -0.294 NA
ATOM      4  N   UNL     1      31.924 -13.289 -19.370  0.00  0.00    -0.289 N 
ATOM      5  C   UNL     1      32.093 -10.341 -21.318  0.00  0.00    +0.207 C 
ATOM      6  C   UNL     1      33.008 -12.841 -21.269  0.00  0.00    +0.181 C 
ATOM      7  C   UNL     1      32.166 -12.312 -20.298  0.00  0.00    +0.188 C 
ATOM      8  C   UNL     1      33.373 -11.990 -22.311  0.00  0.00    +0.281 C 
ATOM      9  C   UNL     1      33.272 -14.184 -20.898  0.00  0.00    +0.008 C 
ATOM     10  C   UNL     1      32.592 -14.433 -19.725  0.00  0.00    +0.060 C 
ATOM     11  H   UNL     1      31.037  -8.768 -20.627  0.00  0.00    +0.166 HD
ATOM     12  H   UNL     1      31.359 -13.187 -18.571  0.00  0.00    +0.154 HD
ENDROOT
BRANCH   1  19
ATOM     13  F   UNL     1      34.494  -5.720 -23.350  0.00  0.00    -0.203 F 
ATOM     14  C   UNL     1      32.254  -5.896 -24.121  0.00  0.00    +0.076 C 
ATOM     15  C   UNL     1      33.292  -6.310 -23.286  0.00  0.00    +0.155 C 
ATOM     16  C   UNL     1      31.007  -6.517 -24.043  0.00  0.00    +0.018 C 
ATOM     17  C   UNL     1      33.083  -7.346 -22.375  0.00  0.00    +0.046 C 
ATOM     18  C   UNL     1      30.798  -7.552 -23.132  0.00  0.00    +0.017 C 
ATOM     19  C   UNL     1      31.836  -7.967 -22.298  0.00  0.00    +0.061 C 
BRANCH  14  20
ATOM     20  N   UNL     1      32.460  -4.856 -25.034  0.00  0.00    -0.310 N 
ATOM     21  N   UNL     1      32.987  -2.600 -26.704  0.00  0.00    +0.388 N 
ATOM     22  C   UNL     1      31.734  -3.598 -24.821  0.00  0.00    +0.068 C 
ATOM     23  C   UNL     1      33.749  -4.737 -25.722  0.00  0.00    +0.068 C 
ATOM     24  C   UNL     1      31.653  -2.798 -26.123  0.00  0.00    -0.056 C 
ATOM     25  C   UNL     1      33.603  -3.899 -26.995  0.00  0.00    -0.056 C 
ATOM     26  C   UNL     1      32.902  -1.788 -27.918  0.00  0.00    -0.101 C 
ATOM     27  H   UNL     1      33.568  -2.103 -26.030  0.00  0.00    -0.080 HD
ENDBRANCH  14  20
ENDBRANCH   1  19
BRANCH   8  28
ATOM     28  O   UNL     1      34.199 -12.390 -23.330  0.00  0.00    -0.429 OA
BRANCH  28  29
ATOM     29  C   UNL     1      34.135 -13.715 -23.713  0.00  0.00    +0.149 C 
ATOM     30  C   UNL     1      34.983 -14.652 -23.122  0.00  0.00    +0.052 C 
ATOM     31  C   UNL     1      33.224 -14.116 -24.689  0.00  0.00    +0.038 C 
ATOM     32  C   UNL     1      34.917 -15.991 -23.507  0.00  0.00    +0.054 C 
ATOM     33  C   UNL     1      34.006 -16.393 -24.483  0.00  0.00    +0.015 C 
ATOM     34  C   UNL     1      33.158 -15.456 -25.073  0.00  0.00    +0.004 C 
BRANCH  32  36
ATOM     35  O   UNL     1      35.128 -16.891 -20.650  0.00  0.00    -0.270 OA
ATOM     36  N   UNL     1      35.765 -16.929 -22.915  0.00  0.00    -0.280 N 
ATOM     37  C   UNL     1      35.820 -17.314 -21.568  0.00  0.00    +0.250 C 
ATOM     38  H   UNL     1      36.401 -17.377 -23.518  0.00  0.00    +0.155 HD
BRANCH  37  39
ATOM     39  C   UNL     1      36.867 -18.350 -21.335  0.00  0.00    +0.058 C 
ATOM     40  C   UNL     1      36.666 -19.331 -20.450  0.00  0.00    +0.005 C 
ENDBRANCH  37  39
ENDBRANCH  32  36
ENDBRANCH  28  29
ENDBRANCH   8  28
TORSDOF 6
ENDMDL
