MODEL 1
REMARK VINA RESULT:     -12.3      0.000      0.000
REMARK  Name = 6852168
REMARK  5 active torsions:
REMARK  status: ('A' for Active; 'I' for Inactive)
REMARK    1  A    between atoms: N_1  and  C_5
REMARK    2  A    between atoms: N_1  and  S_19
REMARK    3  A    between atoms: N_4  and  C_9
REMARK    4  A    between atoms: C_9  and  C_14
REMARK    5  A    between atoms: S_19  and  C_23
REMARK                            x       y       z     vdW  Elec       q    Type
REMARK                         _______ _______ _______ _____ _____    ______ ____
ROOT
ATOM      1  N   UNL     1      34.699 -17.058 -22.098  0.00  0.00    -0.172 NA
ATOM      2  H   UNL     1      34.708 -16.933 -21.086  0.00  0.00    +0.149 HD
ENDROOT
BRANCH   1   5
ATOM      3  O   UNL     1      34.931 -14.320 -20.809  0.00  0.00    -0.273 OA
ATOM      4  N   UNL     1      33.626 -14.147 -22.760  0.00  0.00    -0.272 N 
ATOM      5  C   UNL     1      35.251 -15.823 -22.683  0.00  0.00    +0.153 C 
ATOM      6  C   UNL     1      34.783 -15.634 -24.122  0.00  0.00    +0.048 C 
ATOM      7  C   UNL     1      33.473 -14.880 -23.994  0.00  0.00    +0.096 C 
ATOM      8  C   UNL     1      34.624 -14.670 -21.940  0.00  0.00    +0.242 C 
BRANCH   4   9
ATOM      9  C   UNL     1      32.710 -13.090 -22.390  0.00  0.00    +0.152 C 
ATOM     10  C   UNL     1      32.469 -13.032 -20.899  0.00  0.00    +0.031 C 
BRANCH   9  14
ATOM     11  O   UNL     1      31.489  -8.206 -22.009  0.00  0.00    -0.350 OA
ATOM     12  O   UNL     1      34.316 -11.907 -23.672  0.00  0.00    -0.273 OA
ATOM     13  N   UNL     1      32.882 -10.628 -22.369  0.00  0.00    -0.273 N 
ATOM     14  C   UNL     1      33.381 -11.828 -22.871  0.00  0.00    +0.244 C 
ATOM     15  C   UNL     1      31.861 -10.503 -21.323  0.00  0.00    +0.126 C 
ATOM     16  C   UNL     1      33.471  -9.356 -22.788  0.00  0.00    +0.126 C 
ATOM     17  C   UNL     1      30.837  -9.443 -21.710  0.00  0.00    +0.164 C 
ATOM     18  C   UNL     1      32.380  -8.349 -23.118  0.00  0.00    +0.164 C 
ENDBRANCH   9  14
ENDBRANCH   4   9
ENDBRANCH   1   5
BRANCH   1  19
ATOM     19  S   UNL     1      35.442 -18.558 -22.412  0.00  0.00    +0.061 S 
ATOM     20  O   UNL     1      36.869 -18.443 -22.180  0.00  0.00    -0.153 OA
ATOM     21  O   UNL     1      34.948 -19.075 -23.674  0.00  0.00    -0.153 OA
BRANCH  19  23
ATOM     22 CL   UNL     1      33.343 -23.626 -15.964  0.00  0.00    -0.082 Cl
ATOM     23  C   UNL     1      34.761 -19.574 -21.137  0.00  0.00    +0.122 C 
ATOM     24  C   UNL     1      35.615 -20.212 -20.253  0.00  0.00    +0.020 C 
ATOM     25  C   UNL     1      33.390 -19.713 -21.046  0.00  0.00    +0.020 C 
ATOM     26  C   UNL     1      35.089 -21.022 -19.234  0.00  0.00    +0.001 C 
ATOM     27  C   UNL     1      33.686 -21.176 -19.125  0.00  0.00    +0.001 C 
ATOM     28  C   UNL     1      32.850 -20.513 -20.040  0.00  0.00    +0.001 C 
ATOM     29  C   UNL     1      35.925 -21.683 -18.319  0.00  0.00    +0.001 C 
ATOM     30  C   UNL     1      33.161 -21.986 -18.107  0.00  0.00    +0.011 C 
ATOM     31  C   UNL     1      35.385 -22.485 -17.312  0.00  0.00    +0.011 C 
ATOM     32  C   UNL     1      34.006 -22.636 -17.207  0.00  0.00    +0.058 C 
ENDBRANCH  19  23
ENDBRANCH   1  19
TORSDOF 5
ENDMDL
MODEL 2
REMARK VINA RESULT:     -11.5      7.348     12.272
REMARK  Name = 6852168
REMARK  5 active torsions:
REMARK  status: ('A' for Active; 'I' for Inactive)
REMARK    1  A    between atoms: N_1  and  C_5
REMARK    2  A    between atoms: N_1  and  S_19
REMARK    3  A    between atoms: N_4  and  C_9
REMARK    4  A    between atoms: C_9  and  C_14
REMARK    5  A    between atoms: S_19  and  C_23
REMARK                            x       y       z     vdW  Elec       q    Type
REMARK                         _______ _______ _______ _____ _____    ______ ____
ROOT
ATOM      1  N   UNL     1      35.238 -22.976 -16.711  0.00  0.00    -0.172 NA
ATOM      2  H   UNL     1      35.681 -22.094 -16.969  0.00  0.00    +0.149 HD
ENDROOT
BRANCH   1   5
ATOM      3  O   UNL     1      37.525 -22.422 -14.794  0.00  0.00    -0.273 OA
ATOM      4  N   UNL     1      36.741 -24.613 -14.447  0.00  0.00    -0.272 N 
ATOM      5  C   UNL     1      35.220 -23.027 -15.238  0.00  0.00    +0.153 C 
ATOM      6  C   UNL     1      34.462 -24.250 -14.735  0.00  0.00    +0.048 C 
ATOM      7  C   UNL     1      35.514 -25.342 -14.669  0.00  0.00    +0.096 C 
ATOM      8  C   UNL     1      36.641 -23.267 -14.793  0.00  0.00    +0.242 C 
BRANCH   4   9
ATOM      9  C   UNL     1      37.961 -25.288 -14.060  0.00  0.00    +0.152 C 
ATOM     10  C   UNL     1      39.031 -25.199 -15.124  0.00  0.00    +0.031 C 
BRANCH   9  14
ATOM     11  O   UNL     1      35.563 -24.132  -9.769  0.00  0.00    -0.350 OA
ATOM     12  O   UNL     1      39.473 -23.972 -12.794  0.00  0.00    -0.273 OA
ATOM     13  N   UNL     1      37.535 -24.654 -11.713  0.00  0.00    -0.273 N 
ATOM     14  C   UNL     1      38.398 -24.579 -12.803  0.00  0.00    +0.244 C 
ATOM     15  C   UNL     1      36.317 -25.469 -11.649  0.00  0.00    +0.126 C 
ATOM     16  C   UNL     1      37.881 -23.991 -10.456  0.00  0.00    +0.126 C 
ATOM     17  C   UNL     1      35.176 -24.663 -11.039  0.00  0.00    +0.164 C 
ATOM     18  C   UNL     1      36.676 -23.244  -9.902  0.00  0.00    +0.164 C 
ENDBRANCH   9  14
ENDBRANCH   4   9
ENDBRANCH   1   5
BRANCH   1  19
ATOM     19  S   UNL     1      33.780 -23.067 -17.586  0.00  0.00    +0.061 S 
ATOM     20  O   UNL     1      32.673 -22.748 -16.706  0.00  0.00    -0.153 OA
ATOM     21  O   UNL     1      33.767 -24.296 -18.357  0.00  0.00    -0.153 OA
BRANCH  19  23
ATOM     22 CL   UNL     1      35.865 -16.791 -22.871  0.00  0.00    -0.082 Cl
ATOM     23  C   UNL     1      33.964 -21.738 -18.736  0.00  0.00    +0.122 C 
ATOM     24  C   UNL     1      35.231 -21.254 -19.011  0.00  0.00    +0.020 C 
ATOM     25  C   UNL     1      32.840 -21.207 -19.337  0.00  0.00    +0.020 C 
ATOM     26  C   UNL     1      35.394 -20.198 -19.923  0.00  0.00    +0.001 C 
ATOM     27  C   UNL     1      34.254 -19.642 -20.550  0.00  0.00    +0.001 C 
ATOM     28  C   UNL     1      32.983 -20.159 -20.246  0.00  0.00    +0.001 C 
ATOM     29  C   UNL     1      36.665 -19.682 -20.227  0.00  0.00    +0.001 C 
ATOM     30  C   UNL     1      34.417 -18.586 -21.461  0.00  0.00    +0.011 C 
ATOM     31  C   UNL     1      36.808 -18.632 -21.135  0.00  0.00    +0.011 C 
ATOM     32  C   UNL     1      35.686 -18.085 -21.750  0.00  0.00    +0.058 C 
ENDBRANCH  19  23
ENDBRANCH   1  19
TORSDOF 5
ENDMDL
MODEL 3
REMARK VINA RESULT:     -11.5      1.332      1.953
REMARK  Name = 6852168
REMARK  5 active torsions:
REMARK  status: ('A' for Active; 'I' for Inactive)
REMARK    1  A    between atoms: N_1  and  C_5
REMARK    2  A    between atoms: N_1  and  S_19
REMARK    3  A    between atoms: N_4  and  C_9
REMARK    4  A    between atoms: C_9  and  C_14
REMARK    5  A    between atoms: S_19  and  C_23
REMARK                            x       y       z     vdW  Elec       q    Type
REMARK                         _______ _______ _______ _____ _____    ______ ____
ROOT
ATOM      1  N   UNL     1      36.226 -16.765 -21.346  0.00  0.00    -0.172 NA
ATOM      2  H   UNL     1      36.597 -16.102 -22.026  0.00  0.00    +0.149 HD
ENDROOT
BRANCH   1   5
ATOM      3  O   UNL     1      34.154 -16.129 -23.471  0.00  0.00    -0.273 OA
ATOM      4  N   UNL     1      34.339 -14.301 -22.001  0.00  0.00    -0.272 N 
ATOM      5  C   UNL     1      34.804 -16.427 -21.155  0.00  0.00    +0.153 C 
ATOM      6  C   UNL     1      34.617 -15.451 -19.999  0.00  0.00    +0.048 C 
ATOM      7  C   UNL     1      34.763 -14.082 -20.637  0.00  0.00    +0.096 C 
ATOM      8  C   UNL     1      34.375 -15.644 -22.370  0.00  0.00    +0.242 C 
BRANCH   4   9
ATOM      9  C   UNL     1      34.071 -13.196 -22.895  0.00  0.00    +0.152 C 
ATOM     10  C   UNL     1      33.614 -13.657 -24.260  0.00  0.00    +0.031 C 
BRANCH   9  14
ATOM     11  O   UNL     1      33.067  -8.255 -22.610  0.00  0.00    -0.350 OA
ATOM     12  O   UNL     1      32.256 -12.977 -21.385  0.00  0.00    -0.273 OA
ATOM     13  N   UNL     1      32.874 -11.066 -22.548  0.00  0.00    -0.273 N 
ATOM     14  C   UNL     1      32.983 -12.411 -22.206  0.00  0.00    +0.244 C 
ATOM     15  C   UNL     1      33.633 -10.394 -23.608  0.00  0.00    +0.126 C 
ATOM     16  C   UNL     1      31.848 -10.231 -21.923  0.00  0.00    +0.126 C 
ATOM     17  C   UNL     1      34.146  -9.046 -23.114  0.00  0.00    +0.164 C 
ATOM     18  C   UNL     1      32.439  -8.895 -21.496  0.00  0.00    +0.164 C 
ENDBRANCH   9  14
ENDBRANCH   4   9
ENDBRANCH   1   5
BRANCH   1  19
ATOM     19  S   UNL     1      36.670 -18.319 -21.885  0.00  0.00    +0.061 S 
ATOM     20  O   UNL     1      38.051 -18.574 -21.524  0.00  0.00    -0.153 OA
ATOM     21  O   UNL     1      36.232 -18.487 -23.257  0.00  0.00    -0.153 OA
BRANCH  19  23
ATOM     22 CL   UNL     1      32.794 -23.591 -16.513  0.00  0.00    -0.082 Cl
ATOM     23  C   UNL     1      35.645 -19.355 -20.885  0.00  0.00    +0.122 C 
ATOM     24  C   UNL     1      36.223 -20.107 -19.877  0.00  0.00    +0.020 C 
ATOM     25  C   UNL     1      34.286 -19.396 -21.130  0.00  0.00    +0.020 C 
ATOM     26  C   UNL     1      35.422 -20.935 -19.074  0.00  0.00    +0.001 C 
ATOM     27  C   UNL     1      34.028 -20.989 -19.310  0.00  0.00    +0.001 C 
ATOM     28  C   UNL     1      33.475 -20.212 -20.342  0.00  0.00    +0.001 C 
ATOM     29  C   UNL     1      35.974 -21.711 -18.042  0.00  0.00    +0.001 C 
ATOM     30  C   UNL     1      33.227 -21.817 -18.507  0.00  0.00    +0.011 C 
ATOM     31  C   UNL     1      35.163 -22.528 -17.254  0.00  0.00    +0.011 C 
ATOM     32  C   UNL     1      33.792 -22.581 -17.487  0.00  0.00    +0.058 C 
ENDBRANCH  19  23
ENDBRANCH   1  19
TORSDOF 5
ENDMDL
MODEL 4
REMARK VINA RESULT:     -11.3      1.762      2.458
REMARK  Name = 6852168
REMARK  5 active torsions:
REMARK  status: ('A' for Active; 'I' for Inactive)
REMARK    1  A    between atoms: N_1  and  C_5
REMARK    2  A    between atoms: N_1  and  S_19
REMARK    3  A    between atoms: N_4  and  C_9
REMARK    4  A    between atoms: C_9  and  C_14
REMARK    5  A    between atoms: S_19  and  C_23
REMARK                            x       y       z     vdW  Elec       q    Type
REMARK                         _______ _______ _______ _____ _____    ______ ____
ROOT
ATOM      1  N   UNL     1      33.665 -16.011 -23.636  0.00  0.00    -0.172 NA
ATOM      2  H   UNL     1      33.766 -16.073 -22.623  0.00  0.00    +0.149 HD
ENDROOT
BRANCH   1   5
ATOM      3  O   UNL     1      34.698 -13.748 -21.897  0.00  0.00    -0.273 OA
ATOM      4  N   UNL     1      33.184 -12.879 -23.476  0.00  0.00    -0.272 N 
ATOM      5  C   UNL     1      34.384 -14.796 -24.060  0.00  0.00    +0.153 C 
ATOM      6  C   UNL     1      33.757 -14.189 -25.310  0.00  0.00    +0.048 C 
ATOM      7  C   UNL     1      32.684 -13.258 -24.777  0.00  0.00    +0.096 C 
ATOM      8  C   UNL     1      34.152 -13.757 -22.992  0.00  0.00    +0.242 C 
BRANCH   4   9
ATOM      9  C   UNL     1      32.596 -11.789 -22.729  0.00  0.00    +0.152 C 
ATOM     10  C   UNL     1      32.517 -12.083 -21.248  0.00  0.00    +0.031 C 
BRANCH   9  14
ATOM     11  O   UNL     1      31.902  -6.793 -22.513  0.00  0.00    -0.350 OA
ATOM     12  O   UNL     1      34.596 -10.810 -23.542  0.00  0.00    -0.273 OA
ATOM     13  N   UNL     1      33.045  -9.367 -22.593  0.00  0.00    -0.273 N 
ATOM     14  C   UNL     1      33.508 -10.618 -22.992  0.00  0.00    +0.244 C 
ATOM     15  C   UNL     1      31.819  -9.118 -21.826  0.00  0.00    +0.126 C 
ATOM     16  C   UNL     1      33.866  -8.176 -22.815  0.00  0.00    +0.126 C 
ATOM     17  C   UNL     1      31.056  -7.941 -22.421  0.00  0.00    +0.164 C 
ATOM     18  C   UNL     1      33.016  -7.043 -23.373  0.00  0.00    +0.164 C 
ENDBRANCH   9  14
ENDBRANCH   4   9
ENDBRANCH   1   5
BRANCH   1  19
ATOM     19  S   UNL     1      34.106 -17.529 -24.268  0.00  0.00    +0.061 S 
ATOM     20  O   UNL     1      35.109 -17.344 -25.300  0.00  0.00    -0.153 OA
ATOM     21  O   UNL     1      32.906 -18.293 -24.548  0.00  0.00    -0.153 OA
BRANCH  19  23
ATOM     22 CL   UNL     1      36.786 -21.743 -17.432  0.00  0.00    -0.082 Cl
ATOM     23  C   UNL     1      34.888 -18.287 -22.877  0.00  0.00    +0.122 C 
ATOM     24  C   UNL     1      34.173 -19.190 -22.109  0.00  0.00    +0.020 C 
ATOM     25  C   UNL     1      36.198 -17.962 -22.580  0.00  0.00    +0.020 C 
ATOM     26  C   UNL     1      34.781 -19.801 -20.999  0.00  0.00    +0.001 C 
ATOM     27  C   UNL     1      36.122 -19.481 -20.681  0.00  0.00    +0.001 C 
ATOM     28  C   UNL     1      36.817 -18.560 -21.483  0.00  0.00    +0.001 C 
ATOM     29  C   UNL     1      34.086 -20.722 -20.199  0.00  0.00    +0.001 C 
ATOM     30  C   UNL     1      36.729 -20.092 -19.572  0.00  0.00    +0.011 C 
ATOM     31  C   UNL     1      34.705 -21.320 -19.100  0.00  0.00    +0.011 C 
ATOM     32  C   UNL     1      36.024 -21.004 -18.787  0.00  0.00    +0.058 C 
ENDBRANCH  19  23
ENDBRANCH   1  19
TORSDOF 5
ENDMDL
MODEL 5
REMARK VINA RESULT:     -11.3      1.343      2.086
REMARK  Name = 6852168
REMARK  5 active torsions:
REMARK  status: ('A' for Active; 'I' for Inactive)
REMARK    1  A    between atoms: N_1  and  C_5
REMARK    2  A    between atoms: N_1  and  S_19
REMARK    3  A    between atoms: N_4  and  C_9
REMARK    4  A    between atoms: C_9  and  C_14
REMARK    5  A    between atoms: S_19  and  C_23
REMARK                            x       y       z     vdW  Elec       q    Type
REMARK                         _______ _______ _______ _____ _____    ______ ____
ROOT
ATOM      1  N   UNL     1      34.795 -16.941 -21.931  0.00  0.00    -0.172 NA
ATOM      2  H   UNL     1      34.887 -16.838 -20.920  0.00  0.00    +0.149 HD
ENDROOT
BRANCH   1   5
ATOM      3  O   UNL     1      34.732 -14.124 -20.802  0.00  0.00    -0.273 OA
ATOM      4  N   UNL     1      33.636 -14.146 -22.884  0.00  0.00    -0.272 N 
ATOM      5  C   UNL     1      35.335 -15.709 -22.533  0.00  0.00    +0.153 C 
ATOM      6  C   UNL     1      35.015 -15.633 -24.022  0.00  0.00    +0.048 C 
ATOM      7  C   UNL     1      33.657 -14.957 -24.079  0.00  0.00    +0.096 C 
ATOM      8  C   UNL     1      34.569 -14.557 -21.933  0.00  0.00    +0.242 C 
BRANCH   4   9
ATOM      9  C   UNL     1      32.627 -13.129 -22.679  0.00  0.00    +0.152 C 
ATOM     10  C   UNL     1      31.972 -13.234 -21.322  0.00  0.00    +0.031 C 
BRANCH   9  14
ATOM     11  O   UNL     1      34.992 -10.916 -26.552  0.00  0.00    -0.350 OA
ATOM     12  O   UNL     1      33.675 -11.195 -21.794  0.00  0.00    -0.273 OA
ATOM     13  N   UNL     1      33.690 -11.418 -24.105  0.00  0.00    -0.273 N 
ATOM     14  C   UNL     1      33.376 -11.827 -22.811  0.00  0.00    +0.244 C 
ATOM     15  C   UNL     1      33.242 -12.076 -25.337  0.00  0.00    +0.126 C 
ATOM     16  C   UNL     1      34.419 -10.168 -24.322  0.00  0.00    +0.126 C 
ATOM     17  C   UNL     1      34.399 -12.196 -26.321  0.00  0.00    +0.164 C 
ATOM     18  C   UNL     1      35.529 -10.372 -25.344  0.00  0.00    +0.164 C 
ENDBRANCH   9  14
ENDBRANCH   4   9
ENDBRANCH   1   5
BRANCH   1  19
ATOM     19  S   UNL     1      35.465 -18.453 -22.333  0.00  0.00    +0.061 S 
ATOM     20  O   UNL     1      36.900 -18.411 -22.127  0.00  0.00    -0.153 OA
ATOM     21  O   UNL     1      34.925 -18.887 -23.608  0.00  0.00    -0.153 OA
BRANCH  19  23
ATOM     22 CL   UNL     1      33.275 -23.678 -16.042  0.00  0.00    -0.082 Cl
ATOM     23  C   UNL     1      34.767 -19.500 -21.093  0.00  0.00    +0.122 C 
ATOM     24  C   UNL     1      35.608 -20.158 -20.212  0.00  0.00    +0.020 C 
ATOM     25  C   UNL     1      33.395 -19.645 -21.028  0.00  0.00    +0.020 C 
ATOM     26  C   UNL     1      35.067 -20.994 -19.220  0.00  0.00    +0.001 C 
ATOM     27  C   UNL     1      33.664 -21.152 -19.138  0.00  0.00    +0.001 C 
ATOM     28  C   UNL     1      32.841 -20.470 -20.050  0.00  0.00    +0.001 C 
ATOM     29  C   UNL     1      35.890 -21.675 -18.308  0.00  0.00    +0.001 C 
ATOM     30  C   UNL     1      33.124 -21.988 -18.147  0.00  0.00    +0.011 C 
ATOM     31  C   UNL     1      35.336 -22.501 -17.330  0.00  0.00    +0.011 C 
ATOM     32  C   UNL     1      33.956 -22.658 -17.250  0.00  0.00    +0.058 C 
ENDBRANCH  19  23
ENDBRANCH   1  19
TORSDOF 5
ENDMDL
MODEL 6
REMARK VINA RESULT:     -11.2      7.407     12.328
REMARK  Name = 6852168
REMARK  5 active torsions:
REMARK  status: ('A' for Active; 'I' for Inactive)
REMARK    1  A    between atoms: N_1  and  C_5
REMARK    2  A    between atoms: N_1  and  S_19
REMARK    3  A    between atoms: N_4  and  C_9
REMARK    4  A    between atoms: C_9  and  C_14
REMARK    5  A    between atoms: S_19  and  C_23
REMARK                            x       y       z     vdW  Elec       q    Type
REMARK                         _______ _______ _______ _____ _____    ______ ____
ROOT
ATOM      1  N   UNL     1      34.817 -23.158 -16.688  0.00  0.00    -0.172 NA
ATOM      2  H   UNL     1      35.590 -22.738 -17.204  0.00  0.00    +0.149 HD
ENDROOT
BRANCH   1   5
ATOM      3  O   UNL     1      37.015 -22.339 -14.762  0.00  0.00    -0.273 OA
ATOM      4  N   UNL     1      35.444 -23.669 -13.621  0.00  0.00    -0.272 N 
ATOM      5  C   UNL     1      34.686 -22.402 -15.430  0.00  0.00    +0.153 C 
ATOM      6  C   UNL     1      33.493 -22.886 -14.614  0.00  0.00    +0.048 C 
ATOM      7  C   UNL     1      34.050 -24.017 -13.769  0.00  0.00    +0.096 C 
ATOM      8  C   UNL     1      35.880 -22.757 -14.581  0.00  0.00    +0.242 C 
BRANCH   4   9
ATOM      9  C   UNL     1      36.293 -24.343 -12.663  0.00  0.00    +0.152 C 
ATOM     10  C   UNL     1      35.521 -24.860 -11.472  0.00  0.00    +0.031 C 
BRANCH   9  14
ATOM     11  O   UNL     1      41.043 -25.443 -13.977  0.00  0.00    -0.350 OA
ATOM     12  O   UNL     1      36.165 -26.250 -14.066  0.00  0.00    -0.273 OA
ATOM     13  N   UNL     1      38.289 -25.594 -13.400  0.00  0.00    -0.273 N 
ATOM     14  C   UNL     1      36.902 -25.484 -13.440  0.00  0.00    +0.244 C 
ATOM     15  C   UNL     1      39.183 -24.782 -12.566  0.00  0.00    +0.126 C 
ATOM     16  C   UNL     1      38.961 -26.669 -14.129  0.00  0.00    +0.126 C 
ATOM     17  C   UNL     1      40.387 -24.322 -13.379  0.00  0.00    +0.164 C 
ATOM     18  C   UNL     1      40.170 -26.127 -14.879  0.00  0.00    +0.164 C 
ENDBRANCH   9  14
ENDBRANCH   4   9
ENDBRANCH   1   5
BRANCH   1  19
ATOM     19  S   UNL     1      33.502 -23.256 -17.767  0.00  0.00    +0.061 S 
ATOM     20  O   UNL     1      32.269 -23.020 -17.040  0.00  0.00    -0.153 OA
ATOM     21  O   UNL     1      33.649 -24.445 -18.585  0.00  0.00    -0.153 OA
BRANCH  19  23
ATOM     22 CL   UNL     1      36.078 -16.760 -22.545  0.00  0.00    -0.082 Cl
ATOM     23  C   UNL     1      33.792 -21.866 -18.818  0.00  0.00    +0.122 C 
ATOM     24  C   UNL     1      35.090 -21.429 -19.017  0.00  0.00    +0.020 C 
ATOM     25  C   UNL     1      32.717 -21.241 -19.419  0.00  0.00    +0.020 C 
ATOM     26  C   UNL     1      35.337 -20.325 -19.850  0.00  0.00    +0.001 C 
ATOM     27  C   UNL     1      34.248 -19.673 -20.476  0.00  0.00    +0.001 C 
ATOM     28  C   UNL     1      32.944 -20.144 -20.250  0.00  0.00    +0.001 C 
ATOM     29  C   UNL     1      36.641 -19.855 -20.076  0.00  0.00    +0.001 C 
ATOM     30  C   UNL     1      34.494 -18.569 -21.308  0.00  0.00    +0.011 C 
ATOM     31  C   UNL     1      36.867 -18.756 -20.906  0.00  0.00    +0.011 C 
ATOM     32  C   UNL     1      35.796 -18.115 -21.521  0.00  0.00    +0.058 C 
ENDBRANCH  19  23
ENDBRANCH   1  19
TORSDOF 5
ENDMDL
MODEL 7
REMARK VINA RESULT:     -11.0      2.615      3.668
REMARK  Name = 6852168
REMARK  5 active torsions:
REMARK  status: ('A' for Active; 'I' for Inactive)
REMARK    1  A    between atoms: N_1  and  C_5
REMARK    2  A    between atoms: N_1  and  S_19
REMARK    3  A    between atoms: N_4  and  C_9
REMARK    4  A    between atoms: C_9  and  C_14
REMARK    5  A    between atoms: S_19  and  C_23
REMARK                            x       y       z     vdW  Elec       q    Type
REMARK                         _______ _______ _______ _____ _____    ______ ____
ROOT
ATOM      1  N   UNL     1      34.222 -14.581 -23.764  0.00  0.00    -0.172 NA
ATOM      2  H   UNL     1      35.043 -14.003 -23.942  0.00  0.00    +0.149 HD
ENDROOT
BRANCH   1   5
ATOM      3  O   UNL     1      33.814 -12.143 -25.525  0.00  0.00    -0.273 OA
ATOM      4  N   UNL     1      33.662 -11.498 -23.267  0.00  0.00    -0.272 N 
ATOM      5  C   UNL     1      33.053 -13.685 -23.816  0.00  0.00    +0.153 C 
ATOM      6  C   UNL     1      32.546 -13.352 -22.418  0.00  0.00    +0.048 C 
ATOM      7  C   UNL     1      33.349 -12.132 -22.007  0.00  0.00    +0.096 C 
ATOM      8  C   UNL     1      33.541 -12.363 -24.353  0.00  0.00    +0.242 C 
BRANCH   4   9
ATOM      9  C   UNL     1      34.196 -10.155 -23.324  0.00  0.00    +0.152 C 
ATOM     10  C   UNL     1      35.142  -9.960 -24.486  0.00  0.00    +0.031 C 
BRANCH   9  14
ATOM     11  O   UNL     1      32.453  -6.244 -20.647  0.00  0.00    -0.350 OA
ATOM     12  O   UNL     1      32.088  -9.602 -24.259  0.00  0.00    -0.273 OA
ATOM     13  N   UNL     1      32.945  -8.125 -22.686  0.00  0.00    -0.273 N 
ATOM     14  C   UNL     1      32.981  -9.275 -23.472  0.00  0.00    +0.244 C 
ATOM     15  C   UNL     1      34.040  -7.640 -21.839  0.00  0.00    +0.126 C 
ATOM     16  C   UNL     1      31.800  -7.218 -22.765  0.00  0.00    +0.126 C 
ATOM     17  C   UNL     1      33.502  -7.202 -20.483  0.00  0.00    +0.164 C 
ATOM     18  C   UNL     1      31.355  -6.805 -21.370  0.00  0.00    +0.164 C 
ENDBRANCH   9  14
ENDBRANCH   4   9
ENDBRANCH   1   5
BRANCH   1  19
ATOM     19  S   UNL     1      34.322 -15.916 -24.816  0.00  0.00    +0.061 S 
ATOM     20  O   UNL     1      35.541 -15.818 -25.598  0.00  0.00    -0.153 OA
ATOM     21  O   UNL     1      33.044 -16.094 -25.478  0.00  0.00    -0.153 OA
BRANCH  19  23
ATOM     22 CL   UNL     1      36.134 -21.696 -18.902  0.00  0.00    -0.082 Cl
ATOM     23  C   UNL     1      34.508 -17.258 -23.682  0.00  0.00    +0.122 C 
ATOM     24  C   UNL     1      35.499 -17.196 -22.718  0.00  0.00    +0.020 C 
ATOM     25  C   UNL     1      33.661 -18.345 -23.780  0.00  0.00    +0.020 C 
ATOM     26  C   UNL     1      35.659 -18.255 -21.809  0.00  0.00    +0.001 C 
ATOM     27  C   UNL     1      34.800 -19.376 -21.894  0.00  0.00    +0.001 C 
ATOM     28  C   UNL     1      33.805 -19.405 -22.886  0.00  0.00    +0.001 C 
ATOM     29  C   UNL     1      36.653 -18.225 -20.817  0.00  0.00    +0.001 C 
ATOM     30  C   UNL     1      34.960 -20.434 -20.986  0.00  0.00    +0.011 C 
ATOM     31  C   UNL     1      36.798 -19.286 -19.923  0.00  0.00    +0.011 C 
ATOM     32  C   UNL     1      35.953 -20.388 -20.007  0.00  0.00    +0.058 C 
ENDBRANCH  19  23
ENDBRANCH   1  19
TORSDOF 5
ENDMDL
MODEL 8
REMARK VINA RESULT:     -10.9      3.797      6.560
REMARK  Name = 6852168
REMARK  5 active torsions:
REMARK  status: ('A' for Active; 'I' for Inactive)
REMARK    1  A    between atoms: N_1  and  C_5
REMARK    2  A    between atoms: N_1  and  S_19
REMARK    3  A    between atoms: N_4  and  C_9
REMARK    4  A    between atoms: C_9  and  C_14
REMARK    5  A    between atoms: S_19  and  C_23
REMARK                            x       y       z     vdW  Elec       q    Type
REMARK                         _______ _______ _______ _____ _____    ______ ____
ROOT
ATOM      1  N   UNL     1      33.639 -21.442 -18.309  0.00  0.00    -0.172 NA
ATOM      2  H   UNL     1      34.575 -21.207 -17.981  0.00  0.00    +0.149 HD
ENDROOT
BRANCH   1   5
ATOM      3  O   UNL     1      36.076 -21.186 -20.099  0.00  0.00    -0.273 OA
ATOM      4  N   UNL     1      34.607 -19.401 -20.536  0.00  0.00    -0.272 N 
ATOM      5  C   UNL     1      33.684 -21.409 -19.782  0.00  0.00    +0.153 C 
ATOM      6  C   UNL     1      32.580 -20.525 -20.350  0.00  0.00    +0.048 C 
ATOM      7  C   UNL     1      33.194 -19.138 -20.391  0.00  0.00    +0.096 C 
ATOM      8  C   UNL     1      34.957 -20.697 -20.163  0.00  0.00    +0.242 C 
BRANCH   4   9
ATOM      9  C   UNL     1      35.539 -18.350 -20.880  0.00  0.00    +0.152 C 
ATOM     10  C   UNL     1      36.973 -18.741 -20.610  0.00  0.00    +0.031 C 
BRANCH   9  14
ATOM     11  O   UNL     1      34.025 -14.327 -23.531  0.00  0.00    -0.350 OA
ATOM     12  O   UNL     1      35.306 -19.087 -23.122  0.00  0.00    -0.273 OA
ATOM     13  N   UNL     1      35.132 -16.801 -22.758  0.00  0.00    -0.273 N 
ATOM     14  C   UNL     1      35.318 -18.120 -22.354  0.00  0.00    +0.244 C 
ATOM     15  C   UNL     1      35.267 -15.621 -21.896  0.00  0.00    +0.126 C 
ATOM     16  C   UNL     1      34.907 -16.490 -24.170  0.00  0.00    +0.126 C 
ATOM     17  C   UNL     1      34.114 -14.655 -22.142  0.00  0.00    +0.164 C 
ATOM     18  C   UNL     1      33.767 -15.493 -24.317  0.00  0.00    +0.164 C 
ENDBRANCH   9  14
ENDBRANCH   4   9
ENDBRANCH   1   5
BRANCH   1  19
ATOM     19  S   UNL     1      33.179 -22.869 -17.500  0.00  0.00    +0.061 S 
ATOM     20  O   UNL     1      33.387 -24.004 -18.378  0.00  0.00    -0.153 OA
ATOM     21  O   UNL     1      31.890 -22.661 -16.869  0.00  0.00    -0.153 OA
BRANCH  19  23
ATOM     22 CL   UNL     1      38.035 -23.781 -10.625  0.00  0.00    -0.082 Cl
ATOM     23  C   UNL     1      34.379 -22.953 -16.206  0.00  0.00    +0.122 C 
ATOM     24  C   UNL     1      34.016 -23.490 -14.982  0.00  0.00    +0.020 C 
ATOM     25  C   UNL     1      35.655 -22.480 -16.438  0.00  0.00    +0.020 C 
ATOM     26  C   UNL     1      34.959 -23.565 -13.943  0.00  0.00    +0.001 C 
ATOM     27  C   UNL     1      36.272 -23.086 -14.164  0.00  0.00    +0.001 C 
ATOM     28  C   UNL     1      36.604 -22.546 -15.418  0.00  0.00    +0.001 C 
ATOM     29  C   UNL     1      34.626 -24.105 -12.690  0.00  0.00    +0.001 C 
ATOM     30  C   UNL     1      37.214 -23.159 -13.125  0.00  0.00    +0.011 C 
ATOM     31  C   UNL     1      35.575 -24.170 -11.669  0.00  0.00    +0.011 C 
ATOM     32  C   UNL     1      36.866 -23.698 -11.887  0.00  0.00    +0.058 C 
ENDBRANCH  19  23
ENDBRANCH   1  19
TORSDOF 5
ENDMDL
MODEL 9
REMARK VINA RESULT:     -10.8      7.513     12.562
REMARK  Name = 6852168
REMARK  5 active torsions:
REMARK  status: ('A' for Active; 'I' for Inactive)
REMARK    1  A    between atoms: N_1  and  C_5
REMARK    2  A    between atoms: N_1  and  S_19
REMARK    3  A    between atoms: N_4  and  C_9
REMARK    4  A    between atoms: C_9  and  C_14
REMARK    5  A    between atoms: S_19  and  C_23
REMARK                            x       y       z     vdW  Elec       q    Type
REMARK                         _______ _______ _______ _____ _____    ______ ____
ROOT
ATOM      1  N   UNL     1      34.632 -23.610 -16.163  0.00  0.00    -0.172 NA
ATOM      2  H   UNL     1      35.566 -23.521 -16.562  0.00  0.00    +0.149 HD
ENDROOT
BRANCH   1   5
ATOM      3  O   UNL     1      36.968 -22.622 -14.496  0.00  0.00    -0.273 OA
ATOM      4  N   UNL     1      35.497 -23.837 -13.119  0.00  0.00    -0.272 N 
ATOM      5  C   UNL     1      34.595 -22.740 -14.973  0.00  0.00    +0.153 C 
ATOM      6  C   UNL     1      33.471 -23.144 -14.026  0.00  0.00    +0.048 C 
ATOM      7  C   UNL     1      34.097 -24.194 -13.127  0.00  0.00    +0.096 C 
ATOM      8  C   UNL     1      35.853 -23.019 -14.190  0.00  0.00    +0.242 C 
BRANCH   4   9
ATOM      9  C   UNL     1      36.421 -24.422 -12.172  0.00  0.00    +0.152 C 
ATOM     10  C   UNL     1      35.730 -24.910 -10.920  0.00  0.00    +0.031 C 
BRANCH   9  14
ATOM     11  O   UNL     1      41.030 -25.157 -14.099  0.00  0.00    -0.350 OA
ATOM     12  O   UNL     1      36.324 -26.480 -13.347  0.00  0.00    -0.273 OA
ATOM     13  N   UNL     1      38.427 -25.531 -13.087  0.00  0.00    -0.273 N 
ATOM     14  C   UNL     1      37.045 -25.573 -12.920  0.00  0.00    +0.244 C 
ATOM     15  C   UNL     1      39.326 -24.539 -12.486  0.00  0.00    +0.126 C 
ATOM     16  C   UNL     1      39.112 -26.605 -13.805  0.00  0.00    +0.126 C 
ATOM     17  C   UNL     1      40.336 -24.051 -13.517  0.00  0.00    +0.164 C 
ATOM     18  C   UNL     1      40.125 -26.028 -14.783  0.00  0.00    +0.164 C 
ENDBRANCH   9  14
ENDBRANCH   4   9
ENDBRANCH   1   5
BRANCH   1  19
ATOM     19  S   UNL     1      33.528 -23.363 -17.436  0.00  0.00    +0.061 S 
ATOM     20  O   UNL     1      32.310 -22.779 -16.906  0.00  0.00    -0.153 OA
ATOM     21  O   UNL     1      33.467 -24.562 -18.250  0.00  0.00    -0.153 OA
BRANCH  19  23
ATOM     22 CL   UNL     1      36.380 -17.250 -22.551  0.00  0.00    -0.082 Cl
ATOM     23  C   UNL     1      34.351 -22.128 -18.395  0.00  0.00    +0.122 C 
ATOM     24  C   UNL     1      33.627 -21.398 -19.321  0.00  0.00    +0.020 C 
ATOM     25  C   UNL     1      35.703 -21.917 -18.204  0.00  0.00    +0.020 C 
ATOM     26  C   UNL     1      34.268 -20.413 -20.092  0.00  0.00    +0.001 C 
ATOM     27  C   UNL     1      35.652 -20.182 -19.908  0.00  0.00    +0.001 C 
ATOM     28  C   UNL     1      36.355 -20.943 -18.959  0.00  0.00    +0.001 C 
ATOM     29  C   UNL     1      33.564 -19.652 -21.039  0.00  0.00    +0.001 C 
ATOM     30  C   UNL     1      36.292 -19.199 -20.679  0.00  0.00    +0.011 C 
ATOM     31  C   UNL     1      34.217 -18.678 -21.796  0.00  0.00    +0.011 C 
ATOM     32  C   UNL     1      35.578 -18.452 -21.616  0.00  0.00    +0.058 C 
ENDBRANCH  19  23
ENDBRANCH   1  19
TORSDOF 5
ENDMDL
