MODEL 1
REMARK VINA RESULT:     -11.6      0.000      0.000
REMARK  Name = 46207733
REMARK  4 active torsions:
REMARK  status: ('A' for Active; 'I' for Inactive)
REMARK    1  A    between atoms: N_2  and  C_16
REMARK    2  A    between atoms: C_10  and  C_24
REMARK    3  A    between atoms: C_17  and  O_22
REMARK    4  A    between atoms: C_24  and  C_26
REMARK                            x       y       z     vdW  Elec       q    Type
REMARK                         _______ _______ _______ _____ _____    ______ ____
ROOT
ATOM      1  O   UNL     1      35.103 -13.803 -20.565  0.00  0.00    -0.274 OA
ATOM      2  N   UNL     1      33.852 -13.426 -22.492  0.00  0.00    -0.257 N 
ATOM      3  N   UNL     1      33.446 -15.184 -24.035  0.00  0.00    -0.252 NA
ATOM      4  C   UNL     1      34.601 -14.207 -21.610  0.00  0.00    +0.236 C 
ATOM      5  C   UNL     1      33.320 -13.958 -23.649  0.00  0.00    +0.222 C 
ATOM      6  C   UNL     1      34.769 -15.621 -22.019  0.00  0.00    +0.138 C 
ATOM      7  C   UNL     1      34.186 -16.063 -23.218  0.00  0.00    +0.068 C 
ATOM      8  C   UNL     1      34.345 -17.418 -23.612  0.00  0.00    +0.014 C 
ATOM      9  C   UNL     1      35.501 -16.493 -21.213  0.00  0.00    -0.015 C 
ATOM     10  C   UNL     1      35.659 -17.821 -21.597  0.00  0.00    -0.021 C 
ATOM     11  C   UNL     1      35.091 -18.298 -22.787  0.00  0.00    -0.003 C 
ATOM     12  C   UNL     1      33.791 -17.940 -24.802  0.00  0.00    +0.001 C 
ATOM     13  C   UNL     1      35.257 -19.641 -23.165  0.00  0.00    -0.000 C 
ATOM     14  C   UNL     1      33.966 -19.277 -25.163  0.00  0.00    +0.000 C 
ATOM     15  C   UNL     1      34.699 -20.126 -24.345  0.00  0.00    -0.000 C 
ENDROOT
BRANCH   2  16
ATOM     16  C   UNL     1      33.629 -12.030 -22.187  0.00  0.00    +0.104 C 
ATOM     17  C   UNL     1      32.249 -11.832 -21.546  0.00  0.00    +0.129 C 
ATOM     18  C   UNL     1      33.790 -11.184 -23.454  0.00  0.00    +0.022 C 
ATOM     19  C   UNL     1      31.939 -10.351 -21.318  0.00  0.00    +0.031 C 
ATOM     20  C   UNL     1      33.483  -9.712 -23.200  0.00  0.00    +0.002 C 
ATOM     21  C   UNL     1      32.097  -9.530 -22.590  0.00  0.00    +0.003 C 
BRANCH  17  22
ATOM     22  O   UNL     1      32.224 -12.502 -20.287  0.00  0.00    -0.383 OA
ATOM     23  H   UNL     1      32.987 -13.098 -20.222  0.00  0.00    +0.210 HD
ENDBRANCH  17  22
ENDBRANCH   2  16
BRANCH  10  24
ATOM     24  C   UNL     1      36.456 -18.702 -20.685  0.00  0.00    +0.054 C 
BRANCH  24  26
ATOM     25  N   UNL     1      35.584 -21.819 -18.708  0.00  0.00    -0.248 NA
ATOM     26  C   UNL     1      35.641 -19.795 -20.029  0.00  0.00    +0.001 C 
ATOM     27  C   UNL     1      34.253 -19.807 -20.123  0.00  0.00    -0.001 C 
ATOM     28  C   UNL     1      36.253 -20.813 -19.317  0.00  0.00    +0.094 C 
ATOM     29  C   UNL     1      33.530 -20.824 -19.510  0.00  0.00    +0.014 C 
ATOM     30  C   UNL     1      34.236 -21.798 -18.820  0.00  0.00    +0.059 C 
ATOM     31  C   UNL     1      33.493 -22.905 -18.150  0.00  0.00    +0.052 C 
ENDBRANCH  24  26
ENDBRANCH  10  24
TORSDOF 4
ENDMDL
MODEL 2
REMARK VINA RESULT:     -11.5      5.171      9.034
REMARK  Name = 46207733
REMARK  4 active torsions:
REMARK  status: ('A' for Active; 'I' for Inactive)
REMARK    1  A    between atoms: N_2  and  C_16
REMARK    2  A    between atoms: C_10  and  C_24
REMARK    3  A    between atoms: C_17  and  O_22
REMARK    4  A    between atoms: C_24  and  C_26
REMARK                            x       y       z     vdW  Elec       q    Type
REMARK                         _______ _______ _______ _____ _____    ______ ____
ROOT
ATOM      1  O   UNL     1      36.410 -22.057 -17.911  0.00  0.00    -0.274 OA
ATOM      2  N   UNL     1      34.568 -21.270 -19.099  0.00  0.00    -0.257 N 
ATOM      3  N   UNL     1      32.364 -21.659 -18.310  0.00  0.00    -0.252 NA
ATOM      4  C   UNL     1      35.195 -21.932 -18.042  0.00  0.00    +0.236 C 
ATOM      5  C   UNL     1      33.194 -21.173 -19.171  0.00  0.00    +0.222 C 
ATOM      6  C   UNL     1      34.275 -22.505 -17.032  0.00  0.00    +0.138 C 
ATOM      7  C   UNL     1      32.889 -22.350 -17.199  0.00  0.00    +0.068 C 
ATOM      8  C   UNL     1      32.005 -22.899 -16.232  0.00  0.00    +0.014 C 
ATOM      9  C   UNL     1      34.793 -23.189 -15.932  0.00  0.00    -0.015 C 
ATOM     10  C   UNL     1      33.929 -23.728 -14.984  0.00  0.00    -0.021 C 
ATOM     11  C   UNL     1      32.540 -23.593 -15.118  0.00  0.00    -0.003 C 
ATOM     12  C   UNL     1      30.600 -22.786 -16.329  0.00  0.00    +0.001 C 
ATOM     13  C   UNL     1      31.677 -24.141 -14.154  0.00  0.00    -0.000 C 
ATOM     14  C   UNL     1      29.757 -23.337 -15.362  0.00  0.00    +0.000 C 
ATOM     15  C   UNL     1      30.295 -24.014 -14.276  0.00  0.00    -0.000 C 
ENDROOT
BRANCH   2  16
ATOM     16  C   UNL     1      35.376 -20.675 -20.140  0.00  0.00    +0.104 C 
ATOM     17  C   UNL     1      36.185 -19.495 -19.587  0.00  0.00    +0.129 C 
ATOM     18  C   UNL     1      34.488 -20.251 -21.314  0.00  0.00    +0.022 C 
ATOM     19  C   UNL     1      36.961 -18.774 -20.691  0.00  0.00    +0.031 C 
ATOM     20  C   UNL     1      35.285 -19.541 -22.404  0.00  0.00    +0.002 C 
ATOM     21  C   UNL     1      36.060 -18.354 -21.844  0.00  0.00    +0.003 C 
BRANCH  17  22
ATOM     22  O   UNL     1      37.114 -19.984 -18.621  0.00  0.00    -0.383 OA
ATOM     23  H   UNL     1      37.424 -19.249 -18.069  0.00  0.00    +0.210 HD
ENDBRANCH  17  22
ENDBRANCH   2  16
BRANCH  10  24
ATOM     24  C   UNL     1      34.552 -24.449 -13.828  0.00  0.00    +0.054 C 
BRANCH  24  26
ATOM     25  N   UNL     1      38.307 -23.918 -13.851  0.00  0.00    -0.248 NA
ATOM     26  C   UNL     1      36.030 -24.718 -14.004  0.00  0.00    +0.001 C 
ATOM     27  C   UNL     1      36.485 -25.950 -14.462  0.00  0.00    -0.001 C 
ATOM     28  C   UNL     1      36.973 -23.744 -13.715  0.00  0.00    +0.094 C 
ATOM     29  C   UNL     1      37.850 -26.167 -14.614  0.00  0.00    +0.014 C 
ATOM     30  C   UNL     1      38.712 -25.129 -14.297  0.00  0.00    +0.059 C 
ATOM     31  C   UNL     1      40.184 -25.327 -14.449  0.00  0.00    +0.052 C 
ENDBRANCH  24  26
ENDBRANCH  10  24
TORSDOF 4
ENDMDL
MODEL 3
REMARK VINA RESULT:     -10.9      6.526     11.873
REMARK  Name = 46207733
REMARK  4 active torsions:
REMARK  status: ('A' for Active; 'I' for Inactive)
REMARK    1  A    between atoms: N_2  and  C_16
REMARK    2  A    between atoms: C_10  and  C_24
REMARK    3  A    between atoms: C_17  and  O_22
REMARK    4  A    between atoms: C_24  and  C_26
REMARK                            x       y       z     vdW  Elec       q    Type
REMARK                         _______ _______ _______ _____ _____    ______ ____
ROOT
ATOM      1  O   UNL     1      36.274 -23.926 -15.314  0.00  0.00    -0.274 OA
ATOM      2  N   UNL     1      35.289 -24.308 -13.240  0.00  0.00    -0.257 N 
ATOM      3  N   UNL     1      32.961 -23.972 -12.924  0.00  0.00    -0.252 NA
ATOM      4  C   UNL     1      35.285 -23.942 -14.587  0.00  0.00    +0.236 C 
ATOM      5  C   UNL     1      34.131 -24.301 -12.490  0.00  0.00    +0.222 C 
ATOM      6  C   UNL     1      33.959 -23.557 -15.123  0.00  0.00    +0.138 C 
ATOM      7  C   UNL     1      32.840 -23.583 -14.275  0.00  0.00    +0.068 C 
ATOM      8  C   UNL     1      31.568 -23.214 -14.787  0.00  0.00    +0.014 C 
ATOM      9  C   UNL     1      33.838 -23.172 -16.459  0.00  0.00    -0.015 C 
ATOM     10  C   UNL     1      32.593 -22.809 -16.963  0.00  0.00    -0.021 C 
ATOM     11  C   UNL     1      31.454 -22.824 -16.145  0.00  0.00    -0.003 C 
ATOM     12  C   UNL     1      30.396 -23.215 -13.998  0.00  0.00    +0.001 C 
ATOM     13  C   UNL     1      30.201 -22.456 -16.665  0.00  0.00    -0.000 C 
ATOM     14  C   UNL     1      29.160 -22.846 -14.530  0.00  0.00    +0.000 C 
ATOM     15  C   UNL     1      29.063 -22.466 -15.863  0.00  0.00    -0.000 C 
ENDROOT
BRANCH   2  16
ATOM     16  C   UNL     1      36.534 -24.701 -12.617  0.00  0.00    +0.104 C 
ATOM     17  C   UNL     1      37.424 -23.476 -12.371  0.00  0.00    +0.129 C 
ATOM     18  C   UNL     1      37.243 -25.751 -13.478  0.00  0.00    +0.022 C 
ATOM     19  C   UNL     1      38.794 -23.874 -11.818  0.00  0.00    +0.031 C 
ATOM     20  C   UNL     1      38.602 -26.137 -12.904  0.00  0.00    +0.002 C 
ATOM     21  C   UNL     1      39.485 -24.911 -12.693  0.00  0.00    +0.003 C 
BRANCH  17  22
ATOM     22  O   UNL     1      36.783 -22.621 -11.426  0.00  0.00    -0.383 OA
ATOM     23  H   UNL     1      36.169 -22.030 -11.889  0.00  0.00    +0.210 HD
ENDBRANCH  17  22
ENDBRANCH   2  16
BRANCH  10  24
ATOM     24  C   UNL     1      32.533 -22.407 -18.404  0.00  0.00    +0.054 C 
BRANCH  24  26
ATOM     25  N   UNL     1      34.657 -19.795 -20.151  0.00  0.00    -0.248 NA
ATOM     26  C   UNL     1      33.746 -21.632 -18.870  0.00  0.00    +0.001 C 
ATOM     27  C   UNL     1      35.028 -22.006 -18.480  0.00  0.00    -0.001 C 
ATOM     28  C   UNL     1      33.615 -20.530 -19.698  0.00  0.00    +0.094 C 
ATOM     29  C   UNL     1      36.124 -21.275 -18.925  0.00  0.00    +0.014 C 
ATOM     30  C   UNL     1      35.887 -20.187 -19.751  0.00  0.00    +0.059 C 
ATOM     31  C   UNL     1      37.040 -19.380 -20.247  0.00  0.00    +0.052 C 
ENDBRANCH  24  26
ENDBRANCH  10  24
TORSDOF 4
ENDMDL
MODEL 4
REMARK VINA RESULT:     -10.8      5.433      9.903
REMARK  Name = 46207733
REMARK  4 active torsions:
REMARK  status: ('A' for Active; 'I' for Inactive)
REMARK    1  A    between atoms: N_2  and  C_16
REMARK    2  A    between atoms: C_10  and  C_24
REMARK    3  A    between atoms: C_17  and  O_22
REMARK    4  A    between atoms: C_24  and  C_26
REMARK                            x       y       z     vdW  Elec       q    Type
REMARK                         _______ _______ _______ _____ _____    ______ ____
ROOT
ATOM      1  O   UNL     1      32.737 -22.296 -18.336  0.00  0.00    -0.274 OA
ATOM      2  N   UNL     1      34.998 -21.742 -18.279  0.00  0.00    -0.257 N 
ATOM      3  N   UNL     1      36.324 -22.263 -16.381  0.00  0.00    -0.252 NA
ATOM      4  C   UNL     1      33.820 -22.280 -17.757  0.00  0.00    +0.236 C 
ATOM      5  C   UNL     1      36.177 -21.764 -17.562  0.00  0.00    +0.222 C 
ATOM      6  C   UNL     1      33.949 -22.862 -16.401  0.00  0.00    +0.138 C 
ATOM      7  C   UNL     1      35.196 -22.834 -15.757  0.00  0.00    +0.068 C 
ATOM      8  C   UNL     1      35.322 -23.391 -14.457  0.00  0.00    +0.014 C 
ATOM      9  C   UNL     1      32.834 -23.428 -15.782  0.00  0.00    -0.015 C 
ATOM     10  C   UNL     1      32.954 -23.973 -14.508  0.00  0.00    -0.021 C 
ATOM     11  C   UNL     1      34.184 -23.964 -13.834  0.00  0.00    -0.003 C 
ATOM     12  C   UNL     1      36.541 -23.402 -13.743  0.00  0.00    +0.001 C 
ATOM     13  C   UNL     1      34.293 -24.518 -12.548  0.00  0.00    -0.000 C 
ATOM     14  C   UNL     1      36.632 -23.957 -12.465  0.00  0.00    +0.000 C 
ATOM     15  C   UNL     1      35.509 -24.514 -11.868  0.00  0.00    -0.000 C 
ENDROOT
BRANCH   2  16
ATOM     16  C   UNL     1      34.981 -21.147 -19.597  0.00  0.00    +0.104 C 
ATOM     17  C   UNL     1      36.161 -20.182 -19.768  0.00  0.00    +0.129 C 
ATOM     18  C   UNL     1      33.640 -20.448 -19.840  0.00  0.00    +0.022 C 
ATOM     19  C   UNL     1      36.106 -19.451 -21.111  0.00  0.00    +0.031 C 
ATOM     20  C   UNL     1      33.605 -19.733 -21.187  0.00  0.00    +0.002 C 
ATOM     21  C   UNL     1      34.768 -18.757 -21.329  0.00  0.00    +0.003 C 
BRANCH  17  22
ATOM     22  O   UNL     1      37.378 -20.924 -19.703  0.00  0.00    -0.383 OA
ATOM     23  H   UNL     1      37.177 -21.867 -19.599  0.00  0.00    +0.210 HD
ENDBRANCH  17  22
ENDBRANCH   2  16
BRANCH  10  24
ATOM     24  C   UNL     1      31.718 -24.564 -13.902  0.00  0.00    +0.054 C 
BRANCH  24  26
ATOM     25  N   UNL     1      28.912 -22.120 -14.635  0.00  0.00    -0.248 NA
ATOM     26  C   UNL     1      30.433 -23.991 -14.458  0.00  0.00    +0.001 C 
ATOM     27  C   UNL     1      29.603 -24.753 -15.274  0.00  0.00    -0.001 C 
ATOM     28  C   UNL     1      30.047 -22.692 -14.172  0.00  0.00    +0.094 C 
ATOM     29  C   UNL     1      28.428 -24.199 -15.770  0.00  0.00    +0.014 C 
ATOM     30  C   UNL     1      28.131 -22.890 -15.426  0.00  0.00    +0.059 C 
ATOM     31  C   UNL     1      26.878 -22.263 -15.940  0.00  0.00    +0.052 C 
ENDBRANCH  24  26
ENDBRANCH  10  24
TORSDOF 4
ENDMDL
MODEL 5
REMARK VINA RESULT:     -10.6      6.238     11.472
REMARK  Name = 46207733
REMARK  4 active torsions:
REMARK  status: ('A' for Active; 'I' for Inactive)
REMARK    1  A    between atoms: N_2  and  C_16
REMARK    2  A    between atoms: C_10  and  C_24
REMARK    3  A    between atoms: C_17  and  O_22
REMARK    4  A    between atoms: C_24  and  C_26
REMARK                            x       y       z     vdW  Elec       q    Type
REMARK                         _______ _______ _______ _____ _____    ______ ____
ROOT
ATOM      1  O   UNL     1      31.858 -22.819 -16.213  0.00  0.00    -0.274 OA
ATOM      2  N   UNL     1      31.196 -23.757 -14.187  0.00  0.00    -0.257 N 
ATOM      3  N   UNL     1      32.803 -24.336 -12.539  0.00  0.00    -0.252 NA
ATOM      4  C   UNL     1      32.130 -23.277 -15.107  0.00  0.00    +0.236 C 
ATOM      5  C   UNL     1      31.586 -24.257 -12.962  0.00  0.00    +0.222 C 
ATOM      6  C   UNL     1      33.541 -23.351 -14.658  0.00  0.00    +0.138 C 
ATOM      7  C   UNL     1      33.831 -23.879 -13.389  0.00  0.00    +0.068 C 
ATOM      8  C   UNL     1      35.182 -23.950 -12.957  0.00  0.00    +0.014 C 
ATOM      9  C   UNL     1      34.559 -22.899 -15.498  0.00  0.00    -0.015 C 
ATOM     10  C   UNL     1      35.883 -22.969 -15.077  0.00  0.00    -0.021 C 
ATOM     11  C   UNL     1      36.210 -23.489 -13.816  0.00  0.00    -0.003 C 
ATOM     12  C   UNL     1      35.555 -24.467 -11.696  0.00  0.00    +0.001 C 
ATOM     13  C   UNL     1      37.551 -23.555 -13.402  0.00  0.00    -0.000 C 
ATOM     14  C   UNL     1      36.893 -24.525 -11.300  0.00  0.00    +0.000 C 
ATOM     15  C   UNL     1      37.890 -24.070 -12.153  0.00  0.00    -0.000 C 
ENDROOT
BRANCH   2  16
ATOM     16  C   UNL     1      29.791 -23.731 -14.527  0.00  0.00    +0.104 C 
ATOM     17  C   UNL     1      29.522 -24.582 -15.775  0.00  0.00    +0.129 C 
ATOM     18  C   UNL     1      29.324 -22.285 -14.719  0.00  0.00    +0.022 C 
ATOM     19  C   UNL     1      28.063 -24.482 -16.226  0.00  0.00    +0.031 C 
ATOM     20  C   UNL     1      27.866 -22.210 -15.161  0.00  0.00    +0.002 C 
ATOM     21  C   UNL     1      27.622 -23.037 -16.418  0.00  0.00    +0.003 C 
BRANCH  17  22
ATOM     22  O   UNL     1      29.813 -25.947 -15.476  0.00  0.00    -0.383 OA
ATOM     23  H   UNL     1      29.153 -26.519 -15.897  0.00  0.00    +0.210 HD
ENDBRANCH  17  22
ENDBRANCH   2  16
BRANCH  10  24
ATOM     24  C   UNL     1      36.926 -22.467 -16.027  0.00  0.00    +0.054 C 
BRANCH  24  26
ATOM     25  N   UNL     1      36.573 -20.232 -19.071  0.00  0.00    -0.248 NA
ATOM     26  C   UNL     1      36.356 -21.845 -17.283  0.00  0.00    +0.001 C 
ATOM     27  C   UNL     1      35.140 -22.274 -17.806  0.00  0.00    -0.001 C 
ATOM     28  C   UNL     1      37.027 -20.831 -17.947  0.00  0.00    +0.094 C 
ATOM     29  C   UNL     1      34.641 -21.683 -18.962  0.00  0.00    +0.014 C 
ATOM     30  C   UNL     1      35.389 -20.676 -19.551  0.00  0.00    +0.059 C 
ATOM     31  C   UNL     1      34.883 -20.019 -20.792  0.00  0.00    +0.052 C 
ENDBRANCH  24  26
ENDBRANCH  10  24
TORSDOF 4
ENDMDL
MODEL 6
REMARK VINA RESULT:     -10.5      4.640     10.428
REMARK  Name = 46207733
REMARK  4 active torsions:
REMARK  status: ('A' for Active; 'I' for Inactive)
REMARK    1  A    between atoms: N_2  and  C_16
REMARK    2  A    between atoms: C_10  and  C_24
REMARK    3  A    between atoms: C_17  and  O_22
REMARK    4  A    between atoms: C_24  and  C_26
REMARK                            x       y       z     vdW  Elec       q    Type
REMARK                         _______ _______ _______ _____ _____    ______ ____
ROOT
ATOM      1  O   UNL     1      38.369 -22.344 -16.024  0.00  0.00    -0.274 OA
ATOM      2  N   UNL     1      36.370 -23.233 -15.228  0.00  0.00    -0.257 N 
ATOM      3  N   UNL     1      34.333 -22.858 -16.386  0.00  0.00    -0.252 NA
ATOM      4  C   UNL     1      37.156 -22.504 -16.122  0.00  0.00    +0.236 C 
ATOM      5  C   UNL     1      35.009 -23.367 -15.411  0.00  0.00    +0.222 C 
ATOM      6  C   UNL     1      36.415 -21.903 -17.256  0.00  0.00    +0.138 C 
ATOM      7  C   UNL     1      35.027 -22.099 -17.351  0.00  0.00    +0.068 C 
ATOM      8  C   UNL     1      34.315 -21.524 -18.436  0.00  0.00    +0.014 C 
ATOM      9  C   UNL     1      37.100 -21.152 -18.211  0.00  0.00    -0.015 C 
ATOM     10  C   UNL     1      36.404 -20.587 -19.275  0.00  0.00    -0.021 C 
ATOM     11  C   UNL     1      35.019 -20.762 -19.402  0.00  0.00    -0.003 C 
ATOM     12  C   UNL     1      32.920 -21.675 -18.602  0.00  0.00    +0.001 C 
ATOM     13  C   UNL     1      34.327 -20.187 -20.481  0.00  0.00    -0.000 C 
ATOM     14  C   UNL     1      32.248 -21.097 -19.680  0.00  0.00    +0.000 C 
ATOM     15  C   UNL     1      32.950 -20.353 -20.618  0.00  0.00    -0.000 C 
ENDROOT
BRANCH   2  16
ATOM     16  C   UNL     1      36.996 -23.860 -14.085  0.00  0.00    +0.104 C 
ATOM     17  C   UNL     1      36.657 -25.356 -14.038  0.00  0.00    +0.129 C 
ATOM     18  C   UNL     1      36.574 -23.145 -12.798  0.00  0.00    +0.022 C 
ATOM     19  C   UNL     1      37.210 -26.023 -12.778  0.00  0.00    +0.031 C 
ATOM     20  C   UNL     1      37.143 -23.823 -11.556  0.00  0.00    +0.002 C 
ATOM     21  C   UNL     1      36.773 -25.302 -11.510  0.00  0.00    +0.003 C 
BRANCH  17  22
ATOM     22  O   UNL     1      37.227 -25.995 -15.179  0.00  0.00    -0.383 OA
ATOM     23  H   UNL     1      38.024 -25.515 -15.455  0.00  0.00    +0.210 HD
ENDBRANCH  17  22
ENDBRANCH   2  16
BRANCH  10  24
ATOM     24  C   UNL     1      37.202 -19.793 -20.264  0.00  0.00    +0.054 C 
BRANCH  24  26
ATOM     25  N   UNL     1      35.255 -16.539 -20.335  0.00  0.00    -0.248 NA
ATOM     26  C   UNL     1      36.477 -18.575 -20.792  0.00  0.00    +0.001 C 
ATOM     27  C   UNL     1      36.352 -18.352 -22.159  0.00  0.00    -0.001 C 
ATOM     28  C   UNL     1      35.916 -17.647 -19.929  0.00  0.00    +0.094 C 
ATOM     29  C   UNL     1      35.680 -17.223 -22.615  0.00  0.00    +0.014 C 
ATOM     30  C   UNL     1      35.155 -16.355 -21.671  0.00  0.00    +0.059 C 
ATOM     31  C   UNL     1      34.426 -15.134 -22.124  0.00  0.00    +0.052 C 
ENDBRANCH  24  26
ENDBRANCH  10  24
TORSDOF 4
ENDMDL
MODEL 7
REMARK VINA RESULT:      -9.4      3.813      7.637
REMARK  Name = 46207733
REMARK  4 active torsions:
REMARK  status: ('A' for Active; 'I' for Inactive)
REMARK    1  A    between atoms: N_2  and  C_16
REMARK    2  A    between atoms: C_10  and  C_24
REMARK    3  A    between atoms: C_17  and  O_22
REMARK    4  A    between atoms: C_24  and  C_26
REMARK                            x       y       z     vdW  Elec       q    Type
REMARK                         _______ _______ _______ _____ _____    ______ ____
ROOT
ATOM      1  O   UNL     1      37.301 -19.922 -19.893  0.00  0.00    -0.274 OA
ATOM      2  N   UNL     1      35.063 -19.901 -20.535  0.00  0.00    -0.257 N 
ATOM      3  N   UNL     1      33.435 -21.096 -19.287  0.00  0.00    -0.252 NA
ATOM      4  C   UNL     1      36.136 -20.269 -19.721  0.00  0.00    +0.236 C 
ATOM      5  C   UNL     1      33.780 -20.335 -20.271  0.00  0.00    +0.222 C 
ATOM      6  C   UNL     1      35.780 -21.144 -18.579  0.00  0.00    +0.138 C 
ATOM      7  C   UNL     1      34.442 -21.529 -18.399  0.00  0.00    +0.068 C 
ATOM      8  C   UNL     1      34.099 -22.367 -17.306  0.00  0.00    +0.014 C 
ATOM      9  C   UNL     1      36.775 -21.573 -17.700  0.00  0.00    -0.015 C 
ATOM     10  C   UNL     1      36.441 -22.395 -16.628  0.00  0.00    -0.021 C 
ATOM     11  C   UNL     1      35.115 -22.799 -16.417  0.00  0.00    -0.003 C 
ATOM     12  C   UNL     1      32.776 -22.798 -17.057  0.00  0.00    +0.001 C 
ATOM     13  C   UNL     1      34.790 -23.629 -15.331  0.00  0.00    -0.000 C 
ATOM     14  C   UNL     1      32.471 -23.623 -15.973  0.00  0.00    +0.000 C 
ATOM     15  C   UNL     1      33.477 -24.039 -15.111  0.00  0.00    -0.000 C 
ENDROOT
BRANCH   2  16
ATOM     16  C   UNL     1      35.302 -19.050 -21.678  0.00  0.00    +0.104 C 
ATOM     17  C   UNL     1      35.056 -17.579 -21.317  0.00  0.00    +0.129 C 
ATOM     18  C   UNL     1      34.429 -19.495 -22.856  0.00  0.00    +0.022 C 
ATOM     19  C   UNL     1      35.189 -16.666 -22.536  0.00  0.00    +0.031 C 
ATOM     20  C   UNL     1      34.584 -18.574 -24.062  0.00  0.00    +0.002 C 
ATOM     21  C   UNL     1      34.308 -17.121 -23.691  0.00  0.00    +0.003 C 
BRANCH  17  22
ATOM     22  O   UNL     1      36.014 -17.177 -20.339  0.00  0.00    -0.383 OA
ATOM     23  H   UNL     1      36.519 -16.419 -20.673  0.00  0.00    +0.210 HD
ENDBRANCH  17  22
ENDBRANCH   2  16
BRANCH  10  24
ATOM     24  C   UNL     1      37.557 -22.819 -15.723  0.00  0.00    +0.054 C 
BRANCH  24  26
ATOM     25  N   UNL     1      36.249 -22.890 -12.164  0.00  0.00    -0.248 NA
ATOM     26  C   UNL     1      37.088 -23.346 -14.385  0.00  0.00    +0.001 C 
ATOM     27  C   UNL     1      37.057 -24.712 -14.125  0.00  0.00    -0.001 C 
ATOM     28  C   UNL     1      36.678 -22.485 -13.381  0.00  0.00    +0.094 C 
ATOM     29  C   UNL     1      36.622 -25.168 -12.885  0.00  0.00    +0.014 C 
ATOM     30  C   UNL     1      36.232 -24.225 -11.947  0.00  0.00    +0.059 C 
ATOM     31  C   UNL     1      35.759 -24.678 -10.605  0.00  0.00    +0.052 C 
ENDBRANCH  24  26
ENDBRANCH  10  24
TORSDOF 4
ENDMDL
MODEL 8
REMARK VINA RESULT:      -9.4      4.874     12.080
REMARK  Name = 46207733
REMARK  4 active torsions:
REMARK  status: ('A' for Active; 'I' for Inactive)
REMARK    1  A    between atoms: N_2  and  C_16
REMARK    2  A    between atoms: C_10  and  C_24
REMARK    3  A    between atoms: C_17  and  O_22
REMARK    4  A    between atoms: C_24  and  C_26
REMARK                            x       y       z     vdW  Elec       q    Type
REMARK                         _______ _______ _______ _____ _____    ______ ____
ROOT
ATOM      1  O   UNL     1      35.421 -10.001 -24.702  0.00  0.00    -0.274 OA
ATOM      2  N   UNL     1      33.745 -11.019 -23.446  0.00  0.00    -0.257 N 
ATOM      3  N   UNL     1      32.159  -9.712 -22.259  0.00  0.00    -0.252 NA
ATOM      4  C   UNL     1      34.440  -9.926 -23.966  0.00  0.00    +0.236 C 
ATOM      5  C   UNL     1      32.649 -10.848 -22.625  0.00  0.00    +0.222 C 
ATOM      6  C   UNL     1      33.908  -8.602 -23.568  0.00  0.00    +0.138 C 
ATOM      7  C   UNL     1      32.785  -8.538 -22.727  0.00  0.00    +0.068 C 
ATOM      8  C   UNL     1      32.273  -7.270 -22.343  0.00  0.00    +0.014 C 
ATOM      9  C   UNL     1      34.526  -7.440 -24.030  0.00  0.00    -0.015 C 
ATOM     10  C   UNL     1      34.027  -6.196 -23.655  0.00  0.00    -0.021 C 
ATOM     11  C   UNL     1      32.908  -6.094 -22.817  0.00  0.00    -0.003 C 
ATOM     12  C   UNL     1      31.149  -7.121 -21.501  0.00  0.00    +0.001 C 
ATOM     13  C   UNL     1      32.412  -4.833 -22.445  0.00  0.00    -0.000 C 
ATOM     14  C   UNL     1      30.670  -5.861 -21.141  0.00  0.00    +0.000 C 
ATOM     15  C   UNL     1      31.301  -4.717 -21.612  0.00  0.00    -0.000 C 
ENDROOT
BRANCH   2  16
ATOM     16  C   UNL     1      34.183 -12.357 -23.773  0.00  0.00    +0.104 C 
ATOM     17  C   UNL     1      33.255 -12.988 -24.819  0.00  0.00    +0.129 C 
ATOM     18  C   UNL     1      34.262 -13.209 -22.502  0.00  0.00    +0.022 C 
ATOM     19  C   UNL     1      33.626 -14.446 -25.100  0.00  0.00    +0.031 C 
ATOM     20  C   UNL     1      34.640 -14.655 -22.806  0.00  0.00    +0.002 C 
ATOM     21  C   UNL     1      33.691 -15.276 -23.826  0.00  0.00    +0.003 C 
BRANCH  17  22
ATOM     22  O   UNL     1      33.359 -12.249 -26.035  0.00  0.00    -0.383 OA
ATOM     23  H   UNL     1      32.721 -11.519 -26.026  0.00  0.00    +0.210 HD
ENDBRANCH  17  22
ENDBRANCH   2  16
BRANCH  10  24
ATOM     24  C   UNL     1      34.738  -4.990 -24.186  0.00  0.00    +0.054 C 
BRANCH  24  26
ATOM     25  N   UNL     1      35.188  -4.181 -27.864  0.00  0.00    -0.248 NA
ATOM     26  C   UNL     1      34.410  -4.676 -25.629  0.00  0.00    +0.001 C 
ATOM     27  C   UNL     1      33.091  -4.591 -26.061  0.00  0.00    -0.001 C 
ATOM     28  C   UNL     1      35.413  -4.466 -26.561  0.00  0.00    +0.094 C 
ATOM     29  C   UNL     1      32.819  -4.300 -27.394  0.00  0.00    +0.014 C 
ATOM     30  C   UNL     1      33.893  -4.106 -28.247  0.00  0.00    +0.059 C 
ATOM     31  C   UNL     1      33.640  -3.793 -29.685  0.00  0.00    +0.052 C 
ENDBRANCH  24  26
ENDBRANCH  10  24
TORSDOF 4
ENDMDL
MODEL 9
REMARK VINA RESULT:      -9.3      6.857     11.121
REMARK  Name = 46207733
REMARK  4 active torsions:
REMARK  status: ('A' for Active; 'I' for Inactive)
REMARK    1  A    between atoms: N_2  and  C_16
REMARK    2  A    between atoms: C_10  and  C_24
REMARK    3  A    between atoms: C_17  and  O_22
REMARK    4  A    between atoms: C_24  and  C_26
REMARK                            x       y       z     vdW  Elec       q    Type
REMARK                         _______ _______ _______ _____ _____    ______ ____
ROOT
ATOM      1  O   UNL     1      34.886 -24.039 -14.190  0.00  0.00    -0.274 OA
ATOM      2  N   UNL     1      36.986 -23.391 -14.957  0.00  0.00    -0.257 N 
ATOM      3  N   UNL     1      37.210 -22.144 -16.964  0.00  0.00    -0.252 NA
ATOM      4  C   UNL     1      35.594 -23.474 -15.018  0.00  0.00    +0.236 C 
ATOM      5  C   UNL     1      37.711 -22.734 -15.931  0.00  0.00    +0.222 C 
ATOM      6  C   UNL     1      34.982 -22.808 -16.192  0.00  0.00    +0.138 C 
ATOM      7  C   UNL     1      35.810 -22.166 -17.127  0.00  0.00    +0.068 C 
ATOM      8  C   UNL     1      35.225 -21.528 -18.253  0.00  0.00    +0.014 C 
ATOM      9  C   UNL     1      33.596 -22.829 -16.354  0.00  0.00    -0.015 C 
ATOM     10  C   UNL     1      33.021 -22.205 -17.457  0.00  0.00    -0.021 C 
ATOM     11  C   UNL     1      33.816 -21.554 -18.411  0.00  0.00    -0.003 C 
ATOM     12  C   UNL     1      35.988 -20.862 -19.237  0.00  0.00    +0.001 C 
ATOM     13  C   UNL     1      33.224 -20.927 -19.520  0.00  0.00    -0.000 C 
ATOM     14  C   UNL     1      35.384 -20.244 -20.334  0.00  0.00    +0.000 C 
ATOM     15  C   UNL     1      34.003 -20.278 -20.475  0.00  0.00    -0.000 C 
ENDROOT
BRANCH   2  16
ATOM     16  C   UNL     1      37.684 -24.008 -13.851  0.00  0.00    +0.104 C 
ATOM     17  C   UNL     1      37.410 -25.517 -13.815  0.00  0.00    +0.129 C 
ATOM     18  C   UNL     1      37.287 -23.331 -12.536  0.00  0.00    +0.022 C 
ATOM     19  C   UNL     1      38.042 -26.179 -12.589  0.00  0.00    +0.031 C 
ATOM     20  C   UNL     1      37.934 -24.002 -11.330  0.00  0.00    +0.002 C 
ATOM     21  C   UNL     1      37.628 -25.496 -11.293  0.00  0.00    +0.003 C 
BRANCH  17  22
ATOM     22  O   UNL     1      37.959 -26.115 -14.989  0.00  0.00    -0.383 OA
ATOM     23  H   UNL     1      37.927 -27.081 -14.906  0.00  0.00    +0.210 HD
ENDBRANCH  17  22
ENDBRANCH   2  16
BRANCH  10  24
ATOM     24  C   UNL     1      31.529 -22.265 -17.570  0.00  0.00    +0.054 C 
BRANCH  24  26
ATOM     25  N   UNL     1      31.021 -24.602 -14.626  0.00  0.00    -0.248 NA
ATOM     26  C   UNL     1      30.860 -22.995 -16.426  0.00  0.00    +0.001 C 
ATOM     27  C   UNL     1      29.526 -22.763 -16.111  0.00  0.00    -0.001 C 
ATOM     28  C   UNL     1      31.558 -23.915 -15.660  0.00  0.00    +0.094 C 
ATOM     29  C   UNL     1      28.938 -23.450 -15.054  0.00  0.00    +0.014 C 
ATOM     30  C   UNL     1      29.721 -24.350 -14.349  0.00  0.00    +0.059 C 
ATOM     31  C   UNL     1      29.123 -25.105 -13.208  0.00  0.00    +0.052 C 
ENDBRANCH  24  26
ENDBRANCH  10  24
TORSDOF 4
ENDMDL
