MODEL 1
REMARK VINA RESULT:     -12.0      0.000      0.000
REMARK  Name = 9801640
REMARK  6 active torsions:
REMARK  status: ('A' for Active; 'I' for Inactive)
REMARK    1  A    between atoms: C_1  and  C_2
REMARK    2  A    between atoms: C_1  and  C_16
REMARK    3  A    between atoms: C_2  and  N_3
REMARK    4  A    between atoms: C_7  and  C_11
REMARK    5  A    between atoms: C_16  and  C_17
REMARK    6  A    between atoms: C_17  and  N_21
REMARK                            x       y       z     vdW  Elec       q    Type
REMARK                         _______ _______ _______ _____ _____    ______ ____
ROOT
ATOM      1  C   UNL     1      33.459 -15.237 -24.802  0.00  0.00    -0.021 C 
ENDROOT
BRANCH   1   2
ATOM      2  C   UNL     1      34.760 -15.563 -24.069  0.00  0.00    -0.077 C 
BRANCH   2   3
ATOM      3  N   UNL     1      34.534 -16.611 -23.076  0.00  0.00    +0.390 N 
ATOM      4  C   UNL     1      34.792 -17.940 -23.640  0.00  0.00    -0.072 C 
ATOM      5  C   UNL     1      35.361 -16.384 -21.881  0.00  0.00    -0.051 C 
ATOM      6  C   UNL     1      34.387 -19.024 -22.630  0.00  0.00    +0.005 C 
ATOM      7  C   UNL     1      34.923 -18.764 -21.240  0.00  0.00    -0.013 C 
ATOM      8  C   UNL     1      35.371 -17.538 -20.914  0.00  0.00    -0.052 C 
ATOM      9  H   UNL     1      33.553 -16.574 -22.799  0.00  0.00    -0.079 HD
BRANCH   7  11
ATOM     10  N   UNL     1      36.141 -20.241 -19.780  0.00  0.00    -0.244 NA
ATOM     11  C   UNL     1      34.931 -19.885 -20.269  0.00  0.00    +0.077 C 
ATOM     12  C   UNL     1      33.741 -20.504 -19.912  0.00  0.00    +0.019 C 
ATOM     13  C   UNL     1      33.799 -21.551 -18.999  0.00  0.00    +0.003 C 
ATOM     14  C   UNL     1      36.157 -21.264 -18.895  0.00  0.00    +0.099 C 
ATOM     15  C   UNL     1      35.026 -21.944 -18.476  0.00  0.00    +0.021 C 
ENDBRANCH   7  11
ENDBRANCH   2   3
ENDBRANCH   1   2
BRANCH   1  16
ATOM     16  C   UNL     1      33.085 -13.761 -24.631  0.00  0.00    +0.020 C 
BRANCH  16  17
ATOM     17  C   UNL     1      34.093 -12.995 -23.781  0.00  0.00    +0.099 C 
BRANCH  17  21
ATOM     18 CL   UNL     1      35.195 -10.403 -24.615  0.00  0.00    -0.062 Cl
ATOM     19  O   UNL     1      31.882  -9.339 -22.730  0.00  0.00    -0.448 OA
ATOM     20  O   UNL     1      32.238 -13.248 -21.746  0.00  0.00    -0.269 OA
ATOM     21  N   UNL     1      33.494 -11.831 -23.112  0.00  0.00    -0.244 N 
ATOM     22  C   UNL     1      32.643 -12.115 -22.021  0.00  0.00    +0.256 C 
ATOM     23  C   UNL     1      33.794 -10.558 -23.594  0.00  0.00    +0.151 C 
ATOM     24  C   UNL     1      32.268 -11.052 -21.059  0.00  0.00    +0.088 C 
ATOM     25  C   UNL     1      31.902  -9.762 -21.431  0.00  0.00    +0.150 C 
ATOM     26  C   UNL     1      33.067  -9.450 -23.401  0.00  0.00    +0.206 C 
ATOM     27  C   UNL     1      32.224 -11.402 -19.699  0.00  0.00    +0.008 C 
ATOM     28  C   UNL     1      31.475  -8.837 -20.471  0.00  0.00    +0.038 C 
ATOM     29  C   UNL     1      31.819 -10.474 -18.737  0.00  0.00    +0.000 C 
ATOM     30  C   UNL     1      31.440  -9.192 -19.125  0.00  0.00    +0.003 C 
ENDBRANCH  17  21
ENDBRANCH  16  17
ENDBRANCH   1  16
TORSDOF 6
ENDMDL
MODEL 2
REMARK VINA RESULT:     -11.2      3.988     10.136
REMARK  Name = 9801640
REMARK  6 active torsions:
REMARK  status: ('A' for Active; 'I' for Inactive)
REMARK    1  A    between atoms: C_1  and  C_2
REMARK    2  A    between atoms: C_1  and  C_16
REMARK    3  A    between atoms: C_2  and  N_3
REMARK    4  A    between atoms: C_7  and  C_11
REMARK    5  A    between atoms: C_16  and  C_17
REMARK    6  A    between atoms: C_17  and  N_21
REMARK                            x       y       z     vdW  Elec       q    Type
REMARK                         _______ _______ _______ _____ _____    ______ ____
ROOT
ATOM      1  C   UNL     1      36.351 -18.078 -21.812  0.00  0.00    -0.021 C 
ENDROOT
BRANCH   1   2
ATOM      2  C   UNL     1      35.396 -17.763 -22.963  0.00  0.00    -0.077 C 
BRANCH   2   3
ATOM      3  N   UNL     1      35.220 -16.318 -23.094  0.00  0.00    +0.390 N 
ATOM      4  C   UNL     1      34.095 -16.000 -23.979  0.00  0.00    -0.072 C 
ATOM      5  C   UNL     1      35.035 -15.694 -21.774  0.00  0.00    -0.051 C 
ATOM      6  C   UNL     1      34.039 -14.486 -24.229  0.00  0.00    +0.005 C 
ATOM      7  C   UNL     1      34.148 -13.674 -22.958  0.00  0.00    -0.013 C 
ATOM      8  C   UNL     1      34.609 -14.251 -21.833  0.00  0.00    -0.052 C 
ATOM      9  H   UNL     1      36.067 -15.936 -23.514  0.00  0.00    -0.079 HD
BRANCH   7  11
ATOM     10  N   UNL     1      32.797 -11.872 -22.108  0.00  0.00    -0.244 NA
ATOM     11  C   UNL     1      33.744 -12.247 -22.998  0.00  0.00    +0.077 C 
ATOM     12  C   UNL     1      34.330 -11.384 -23.912  0.00  0.00    +0.019 C 
ATOM     13  C   UNL     1      33.918 -10.056 -23.913  0.00  0.00    +0.003 C 
ATOM     14  C   UNL     1      32.421 -10.573 -22.139  0.00  0.00    +0.099 C 
ATOM     15  C   UNL     1      32.946  -9.635 -23.013  0.00  0.00    +0.021 C 
ENDBRANCH   7  11
ENDBRANCH   2   3
ENDBRANCH   1   2
BRANCH   1  16
ATOM     16  C   UNL     1      35.601 -18.692 -20.626  0.00  0.00    +0.020 C 
BRANCH  16  17
ATOM     17  C   UNL     1      35.125 -20.114 -20.904  0.00  0.00    +0.099 C 
BRANCH  17  21
ATOM     18 CL   UNL     1      32.352 -20.068 -19.937  0.00  0.00    -0.062 Cl
ATOM     19  O   UNL     1      33.915 -23.054 -17.863  0.00  0.00    -0.448 OA
ATOM     20  O   UNL     1      37.182 -21.314 -19.498  0.00  0.00    -0.269 OA
ATOM     21  N   UNL     1      34.894 -20.880 -19.671  0.00  0.00    -0.244 N 
ATOM     22  C   UNL     1      36.050 -21.345 -19.006  0.00  0.00    +0.256 C 
ATOM     23  C   UNL     1      33.581 -21.097 -19.257  0.00  0.00    +0.151 C 
ATOM     24  C   UNL     1      35.978 -21.809 -17.600  0.00  0.00    +0.088 C 
ATOM     25  C   UNL     1      34.966 -22.624 -17.103  0.00  0.00    +0.150 C 
ATOM     26  C   UNL     1      33.162 -22.067 -18.436  0.00  0.00    +0.206 C 
ATOM     27  C   UNL     1      37.035 -21.447 -16.748  0.00  0.00    +0.008 C 
ATOM     28  C   UNL     1      35.012 -23.094 -15.786  0.00  0.00    +0.038 C 
ATOM     29  C   UNL     1      37.071 -21.898 -15.427  0.00  0.00    +0.000 C 
ATOM     30  C   UNL     1      36.061 -22.725 -14.947  0.00  0.00    +0.003 C 
ENDBRANCH  17  21
ENDBRANCH  16  17
ENDBRANCH   1  16
TORSDOF 6
ENDMDL
MODEL 3
REMARK VINA RESULT:     -11.1      6.405     11.818
REMARK  Name = 9801640
REMARK  6 active torsions:
REMARK  status: ('A' for Active; 'I' for Inactive)
REMARK    1  A    between atoms: C_1  and  C_2
REMARK    2  A    between atoms: C_1  and  C_16
REMARK    3  A    between atoms: C_2  and  N_3
REMARK    4  A    between atoms: C_7  and  C_11
REMARK    5  A    between atoms: C_16  and  C_17
REMARK    6  A    between atoms: C_17  and  N_21
REMARK                            x       y       z     vdW  Elec       q    Type
REMARK                         _______ _______ _______ _____ _____    ______ ____
ROOT
ATOM      1  C   UNL     1      37.015 -21.275 -16.569  0.00  0.00    -0.021 C 
ENDROOT
BRANCH   1   2
ATOM      2  C   UNL     1      36.321 -21.801 -17.825  0.00  0.00    -0.077 C 
BRANCH   2   3
ATOM      3  N   UNL     1      35.989 -20.695 -18.721  0.00  0.00    +0.390 N 
ATOM      4  C   UNL     1      37.087 -20.419 -19.652  0.00  0.00    -0.072 C 
ATOM      5  C   UNL     1      34.743 -20.975 -19.454  0.00  0.00    -0.051 C 
ATOM      6  C   UNL     1      36.777 -19.153 -20.464  0.00  0.00    +0.005 C 
ATOM      7  C   UNL     1      35.382 -19.152 -21.046  0.00  0.00    -0.013 C 
ATOM      8  C   UNL     1      34.456 -20.003 -20.567  0.00  0.00    -0.052 C 
ATOM      9  H   UNL     1      35.845 -19.862 -18.151  0.00  0.00    -0.079 HD
BRANCH   7  11
ATOM     10  N   UNL     1      35.476 -16.917 -21.938  0.00  0.00    -0.244 NA
ATOM     11  C   UNL     1      35.076 -18.194 -22.137  0.00  0.00    +0.077 C 
ATOM     12  C   UNL     1      34.414 -18.628 -23.277  0.00  0.00    +0.019 C 
ATOM     13  C   UNL     1      34.148 -17.694 -24.272  0.00  0.00    +0.003 C 
ATOM     14  C   UNL     1      35.200 -16.037 -22.928  0.00  0.00    +0.099 C 
ATOM     15  C   UNL     1      34.545 -16.372 -24.102  0.00  0.00    +0.021 C 
ENDBRANCH   7  11
ENDBRANCH   2   3
ENDBRANCH   1   2
BRANCH   1  16
ATOM     16  C   UNL     1      36.598 -22.078 -15.332  0.00  0.00    +0.020 C 
BRANCH  16  17
ATOM     17  C   UNL     1      35.864 -23.366 -15.689  0.00  0.00    +0.099 C 
BRANCH  17  21
ATOM     18 CL   UNL     1      36.509 -24.929 -13.287  0.00  0.00    -0.062 Cl
ATOM     19  O   UNL     1      32.942 -23.462 -12.401  0.00  0.00    -0.448 OA
ATOM     20  O   UNL     1      33.281 -22.628 -16.345  0.00  0.00    -0.269 OA
ATOM     21  N   UNL     1      34.721 -23.625 -14.801  0.00  0.00    -0.244 N 
ATOM     22  C   UNL     1      33.449 -23.287 -15.316  0.00  0.00    +0.256 C 
ATOM     23  C   UNL     1      34.965 -24.165 -13.541  0.00  0.00    +0.151 C 
ATOM     24  C   UNL     1      32.215 -23.814 -14.686  0.00  0.00    +0.088 C 
ATOM     25  C   UNL     1      32.007 -23.866 -13.311  0.00  0.00    +0.150 C 
ATOM     26  C   UNL     1      34.151 -24.095 -12.480  0.00  0.00    +0.206 C 
ATOM     27  C   UNL     1      31.179 -24.221 -15.543  0.00  0.00    +0.008 C 
ATOM     28  C   UNL     1      30.780 -24.295 -12.792  0.00  0.00    +0.038 C 
ATOM     29  C   UNL     1      29.962 -24.670 -15.026  0.00  0.00    +0.000 C 
ATOM     30  C   UNL     1      29.761 -24.702 -13.650  0.00  0.00    +0.003 C 
ENDBRANCH  17  21
ENDBRANCH  16  17
ENDBRANCH   1  16
TORSDOF 6
ENDMDL
MODEL 4
REMARK VINA RESULT:     -11.1      2.528      3.613
REMARK  Name = 9801640
REMARK  6 active torsions:
REMARK  status: ('A' for Active; 'I' for Inactive)
REMARK    1  A    between atoms: C_1  and  C_2
REMARK    2  A    between atoms: C_1  and  C_16
REMARK    3  A    between atoms: C_2  and  N_3
REMARK    4  A    between atoms: C_7  and  C_11
REMARK    5  A    between atoms: C_16  and  C_17
REMARK    6  A    between atoms: C_17  and  N_21
REMARK                            x       y       z     vdW  Elec       q    Type
REMARK                         _______ _______ _______ _____ _____    ______ ____
ROOT
ATOM      1  C   UNL     1      32.910 -12.870 -22.846  0.00  0.00    -0.021 C 
ENDROOT
BRANCH   1   2
ATOM      2  C   UNL     1      34.267 -13.524 -23.101  0.00  0.00    -0.077 C 
BRANCH   2   3
ATOM      3  N   UNL     1      34.305 -14.860 -22.511  0.00  0.00    +0.390 N 
ATOM      4  C   UNL     1      35.175 -15.755 -23.280  0.00  0.00    -0.072 C 
ATOM      5  C   UNL     1      34.736 -14.798 -21.106  0.00  0.00    -0.051 C 
ATOM      6  C   UNL     1      35.063 -17.187 -22.736  0.00  0.00    +0.005 C 
ATOM      7  C   UNL     1      35.185 -17.257 -21.231  0.00  0.00    -0.013 C 
ATOM      8  C   UNL     1      35.033 -16.141 -20.495  0.00  0.00    -0.052 C 
ATOM      9  H   UNL     1      33.359 -15.242 -22.539  0.00  0.00    -0.079 HD
BRANCH   7  11
ATOM     10  N   UNL     1      36.741 -18.783 -20.208  0.00  0.00    -0.244 NA
ATOM     11  C   UNL     1      35.466 -18.574 -20.609  0.00  0.00    +0.077 C 
ATOM     12  C   UNL     1      34.449 -19.507 -20.467  0.00  0.00    +0.019 C 
ATOM     13  C   UNL     1      34.760 -20.728 -19.878  0.00  0.00    +0.003 C 
ATOM     14  C   UNL     1      37.006 -19.983 -19.641  0.00  0.00    +0.099 C 
ATOM     15  C   UNL     1      36.061 -20.978 -19.455  0.00  0.00    +0.021 C 
ENDBRANCH   7  11
ENDBRANCH   2   3
ENDBRANCH   1   2
BRANCH   1  16
ATOM     16  C   UNL     1      33.043 -11.678 -21.893  0.00  0.00    +0.020 C 
BRANCH  16  17
ATOM     17  C   UNL     1      31.722 -10.946 -21.679  0.00  0.00    +0.099 C 
BRANCH  17  21
ATOM     18 CL   UNL     1      31.436 -10.352 -18.817  0.00  0.00    -0.062 Cl
ATOM     19  O   UNL     1      33.185  -7.076 -20.183  0.00  0.00    -0.448 OA
ATOM     20  O   UNL     1      32.103  -8.980 -23.585  0.00  0.00    -0.269 OA
ATOM     21  N   UNL     1      31.915  -9.532 -21.325  0.00  0.00    -0.244 N 
ATOM     22  C   UNL     1      31.991  -8.628 -22.408  0.00  0.00    +0.256 C 
ATOM     23  C   UNL     1      32.013  -9.190 -19.978  0.00  0.00    +0.151 C 
ATOM     24  C   UNL     1      31.827  -7.172 -22.189  0.00  0.00    +0.088 C 
ATOM     25  C   UNL     1      32.417  -6.474 -21.140  0.00  0.00    +0.150 C 
ATOM     26  C   UNL     1      32.574  -8.078 -19.485  0.00  0.00    +0.206 C 
ATOM     27  C   UNL     1      31.082  -6.458 -23.142  0.00  0.00    +0.008 C 
ATOM     28  C   UNL     1      32.289  -5.083 -21.048  0.00  0.00    +0.038 C 
ATOM     29  C   UNL     1      30.935  -5.073 -23.040  0.00  0.00    +0.000 C 
ATOM     30  C   UNL     1      31.543  -4.385 -21.995  0.00  0.00    +0.003 C 
ENDBRANCH  17  21
ENDBRANCH  16  17
ENDBRANCH   1  16
TORSDOF 6
ENDMDL
MODEL 5
REMARK VINA RESULT:     -11.0      1.660      2.454
REMARK  Name = 9801640
REMARK  6 active torsions:
REMARK  status: ('A' for Active; 'I' for Inactive)
REMARK    1  A    between atoms: C_1  and  C_2
REMARK    2  A    between atoms: C_1  and  C_16
REMARK    3  A    between atoms: C_2  and  N_3
REMARK    4  A    between atoms: C_7  and  C_11
REMARK    5  A    between atoms: C_16  and  C_17
REMARK    6  A    between atoms: C_17  and  N_21
REMARK                            x       y       z     vdW  Elec       q    Type
REMARK                         _______ _______ _______ _____ _____    ______ ____
ROOT
ATOM      1  C   UNL     1      33.473 -14.678 -24.344  0.00  0.00    -0.021 C 
ENDROOT
BRANCH   1   2
ATOM      2  C   UNL     1      34.773 -15.035 -23.626  0.00  0.00    -0.077 C 
BRANCH   2   3
ATOM      3  N   UNL     1      34.575 -16.202 -22.769  0.00  0.00    +0.390 N 
ATOM      4  C   UNL     1      35.041 -17.427 -23.425  0.00  0.00    -0.072 C 
ATOM      5  C   UNL     1      35.250 -16.017 -21.474  0.00  0.00    -0.051 C 
ATOM      6  C   UNL     1      34.669 -18.650 -22.573  0.00  0.00    +0.005 C 
ATOM      7  C   UNL     1      35.032 -18.486 -21.115  0.00  0.00    -0.013 C 
ATOM      8  C   UNL     1      35.300 -17.260 -20.626  0.00  0.00    -0.052 C 
ATOM      9  H   UNL     1      33.575 -16.299 -22.598  0.00  0.00    -0.079 HD
BRANCH   7  11
ATOM     10  N   UNL     1      36.295 -20.053 -19.794  0.00  0.00    -0.244 NA
ATOM     11  C   UNL     1      35.076 -19.697 -20.260  0.00  0.00    +0.077 C 
ATOM     12  C   UNL     1      33.909 -20.393 -19.982  0.00  0.00    +0.019 C 
ATOM     13  C   UNL     1      33.999 -21.524 -19.177  0.00  0.00    +0.003 C 
ATOM     14  C   UNL     1      36.344 -21.158 -19.016  0.00  0.00    +0.099 C 
ATOM     15  C   UNL     1      35.237 -21.920 -18.681  0.00  0.00    +0.021 C 
ENDBRANCH   7  11
ENDBRANCH   2   3
ENDBRANCH   1   2
BRANCH   1  16
ATOM     16  C   UNL     1      32.880 -13.376 -23.796  0.00  0.00    +0.020 C 
BRANCH  16  17
ATOM     17  C   UNL     1      33.746 -12.749 -22.709  0.00  0.00    +0.099 C 
BRANCH  17  21
ATOM     18 CL   UNL     1      31.849 -13.361 -20.551  0.00  0.00    -0.062 Cl
ATOM     19  O   UNL     1      32.459  -9.482 -20.058  0.00  0.00    -0.448 OA
ATOM     20  O   UNL     1      34.148 -10.186 -23.666  0.00  0.00    -0.269 OA
ATOM     21  N   UNL     1      33.114 -11.571 -22.097  0.00  0.00    -0.244 N 
ATOM     22  C   UNL     1      33.327 -10.341 -22.759  0.00  0.00    +0.256 C 
ATOM     23  C   UNL     1      32.371 -11.744 -20.931  0.00  0.00    +0.151 C 
ATOM     24  C   UNL     1      32.475  -9.165 -22.461  0.00  0.00    +0.088 C 
ATOM     25  C   UNL     1      32.100  -8.785 -21.176  0.00  0.00    +0.150 C 
ATOM     26  C   UNL     1      32.075 -10.793 -20.035  0.00  0.00    +0.206 C 
ATOM     27  C   UNL     1      32.083  -8.363 -23.546  0.00  0.00    +0.008 C 
ATOM     28  C   UNL     1      31.366  -7.611 -20.966  0.00  0.00    +0.038 C 
ATOM     29  C   UNL     1      31.333  -7.204 -23.340  0.00  0.00    +0.000 C 
ATOM     30  C   UNL     1      30.978  -6.826 -22.049  0.00  0.00    +0.003 C 
ENDBRANCH  17  21
ENDBRANCH  16  17
ENDBRANCH   1  16
TORSDOF 6
ENDMDL
MODEL 6
REMARK VINA RESULT:     -10.3      4.669     10.432
REMARK  Name = 9801640
REMARK  6 active torsions:
REMARK  status: ('A' for Active; 'I' for Inactive)
REMARK    1  A    between atoms: C_1  and  C_2
REMARK    2  A    between atoms: C_1  and  C_16
REMARK    3  A    between atoms: C_2  and  N_3
REMARK    4  A    between atoms: C_7  and  C_11
REMARK    5  A    between atoms: C_16  and  C_17
REMARK    6  A    between atoms: C_17  and  N_21
REMARK                            x       y       z     vdW  Elec       q    Type
REMARK                         _______ _______ _______ _____ _____    ______ ____
ROOT
ATOM      1  C   UNL     1      36.505 -18.699 -20.866  0.00  0.00    -0.021 C 
ENDROOT
BRANCH   1   2
ATOM      2  C   UNL     1      35.346 -18.930 -21.836  0.00  0.00    -0.077 C 
BRANCH   2   3
ATOM      3  N   UNL     1      34.785 -17.652 -22.268  0.00  0.00    +0.390 N 
ATOM      4  C   UNL     1      35.591 -16.528 -21.782  0.00  0.00    -0.072 C 
ATOM      5  C   UNL     1      34.660 -17.606 -23.734  0.00  0.00    -0.051 C 
ATOM      6  C   UNL     1      34.889 -15.201 -22.109  0.00  0.00    +0.005 C 
ATOM      7  C   UNL     1      34.415 -15.122 -23.543  0.00  0.00    -0.013 C 
ATOM      8  C   UNL     1      34.319 -16.245 -24.278  0.00  0.00    -0.052 C 
ATOM      9  H   UNL     1      33.853 -17.566 -21.864  0.00  0.00    -0.079 HD
BRANCH   7  11
ATOM     10  N   UNL     1      34.290 -12.732 -23.284  0.00  0.00    -0.244 NA
ATOM     11  C   UNL     1      34.063 -13.791 -24.094  0.00  0.00    +0.077 C 
ATOM     12  C   UNL     1      33.533 -13.687 -25.373  0.00  0.00    +0.019 C 
ATOM     13  C   UNL     1      33.218 -12.418 -25.847  0.00  0.00    +0.003 C 
ATOM     14  C   UNL     1      33.970 -11.514 -23.779  0.00  0.00    +0.099 C 
ATOM     15  C   UNL     1      33.437 -11.306 -25.041  0.00  0.00    +0.021 C 
ENDBRANCH   7  11
ENDBRANCH   2   3
ENDBRANCH   1   2
BRANCH   1  16
ATOM     16  C   UNL     1      36.473 -19.713 -19.718  0.00  0.00    +0.020 C 
BRANCH  16  17
ATOM     17  C   UNL     1      35.580 -20.912 -20.019  0.00  0.00    +0.099 C 
BRANCH  17  21
ATOM     18 CL   UNL     1      32.703 -20.554 -19.552  0.00  0.00    -0.062 Cl
ATOM     19  O   UNL     1      33.600 -23.484 -17.049  0.00  0.00    -0.448 OA
ATOM     20  O   UNL     1      37.247 -22.165 -18.202  0.00  0.00    -0.269 OA
ATOM     21  N   UNL     1      35.073 -21.555 -18.798  0.00  0.00    -0.244 N 
ATOM     22  C   UNL     1      36.052 -22.061 -17.913  0.00  0.00    +0.256 C 
ATOM     23  C   UNL     1      33.695 -21.625 -18.605  0.00  0.00    +0.151 C 
ATOM     24  C   UNL     1      35.701 -22.402 -16.514  0.00  0.00    +0.088 C 
ATOM     25  C   UNL     1      34.546 -23.086 -16.148  0.00  0.00    +0.150 C 
ATOM     26  C   UNL     1      33.053 -22.487 -17.807  0.00  0.00    +0.206 C 
ATOM     27  C   UNL     1      36.631 -22.063 -15.517  0.00  0.00    +0.008 C 
ATOM     28  C   UNL     1      34.325 -23.451 -14.815  0.00  0.00    +0.038 C 
ATOM     29  C   UNL     1      36.402 -22.408 -14.183  0.00  0.00    +0.000 C 
ATOM     30  C   UNL     1      35.250 -23.105 -13.833  0.00  0.00    +0.003 C 
ENDBRANCH  17  21
ENDBRANCH  16  17
ENDBRANCH   1  16
TORSDOF 6
ENDMDL
MODEL 7
REMARK VINA RESULT:     -10.2      3.035      4.943
REMARK  Name = 9801640
REMARK  6 active torsions:
REMARK  status: ('A' for Active; 'I' for Inactive)
REMARK    1  A    between atoms: C_1  and  C_2
REMARK    2  A    between atoms: C_1  and  C_16
REMARK    3  A    between atoms: C_2  and  N_3
REMARK    4  A    between atoms: C_7  and  C_11
REMARK    5  A    between atoms: C_16  and  C_17
REMARK    6  A    between atoms: C_17  and  N_21
REMARK                            x       y       z     vdW  Elec       q    Type
REMARK                         _______ _______ _______ _____ _____    ______ ____
ROOT
ATOM      1  C   UNL     1      34.597 -10.609 -24.508  0.00  0.00    -0.021 C 
ENDROOT
BRANCH   1   2
ATOM      2  C   UNL     1      33.587 -11.751 -24.615  0.00  0.00    -0.077 C 
BRANCH   2   3
ATOM      3  N   UNL     1      34.175 -12.995 -24.124  0.00  0.00    +0.390 N 
ATOM      4  C   UNL     1      33.891 -13.189 -22.699  0.00  0.00    -0.072 C 
ATOM      5  C   UNL     1      33.697 -14.143 -24.910  0.00  0.00    -0.051 C 
ATOM      6  C   UNL     1      34.658 -14.412 -22.175  0.00  0.00    +0.005 C 
ATOM      7  C   UNL     1      34.510 -15.626 -23.064  0.00  0.00    -0.013 C 
ATOM      8  C   UNL     1      34.062 -15.481 -24.325  0.00  0.00    -0.052 C 
ATOM      9  H   UNL     1      35.187 -12.929 -24.236  0.00  0.00    -0.079 HD
BRANCH   7  11
ATOM     10  N   UNL     1      35.505 -16.944 -21.312  0.00  0.00    -0.244 NA
ATOM     11  C   UNL     1      34.875 -16.953 -22.509  0.00  0.00    +0.077 C 
ATOM     12  C   UNL     1      34.568 -18.108 -23.213  0.00  0.00    +0.019 C 
ATOM     13  C   UNL     1      34.930 -19.329 -22.653  0.00  0.00    +0.003 C 
ATOM     14  C   UNL     1      35.843 -18.150 -20.800  0.00  0.00    +0.099 C 
ATOM     15  C   UNL     1      35.580 -19.358 -21.425  0.00  0.00    +0.021 C 
ENDBRANCH   7  11
ENDBRANCH   2   3
ENDBRANCH   1   2
BRANCH   1  16
ATOM     16  C   UNL     1      34.277  -9.701 -23.316  0.00  0.00    +0.020 C 
BRANCH  16  17
ATOM     17  C   UNL     1      32.822  -9.247 -23.297  0.00  0.00    +0.099 C 
BRANCH  17  21
ATOM     18 CL   UNL     1      31.301  -9.614 -20.811  0.00  0.00    -0.062 Cl
ATOM     19  O   UNL     1      32.913  -6.038 -20.288  0.00  0.00    -0.448 OA
ATOM     20  O   UNL     1      33.631  -6.763 -24.203  0.00  0.00    -0.269 OA
ATOM     21  N   UNL     1      32.626  -8.019 -22.512  0.00  0.00    -0.244 N 
ATOM     22  C   UNL     1      32.994  -6.813 -23.148  0.00  0.00    +0.256 C 
ATOM     23  C   UNL     1      32.111  -8.129 -21.222  0.00  0.00    +0.151 C 
ATOM     24  C   UNL     1      32.527  -5.508 -22.622  0.00  0.00    +0.088 C 
ATOM     25  C   UNL     1      32.518  -5.175 -21.271  0.00  0.00    +0.150 C 
ATOM     26  C   UNL     1      32.237  -7.225 -20.242  0.00  0.00    +0.206 C 
ATOM     27  C   UNL     1      32.133  -4.540 -23.560  0.00  0.00    +0.008 C 
ATOM     28  C   UNL     1      32.146  -3.891 -20.856  0.00  0.00    +0.038 C 
ATOM     29  C   UNL     1      31.741  -3.265 -23.146  0.00  0.00    +0.000 C 
ATOM     30  C   UNL     1      31.751  -2.940 -21.793  0.00  0.00    +0.003 C 
ENDBRANCH  17  21
ENDBRANCH  16  17
ENDBRANCH   1  16
TORSDOF 6
ENDMDL
MODEL 8
REMARK VINA RESULT:     -10.1      3.008     10.364
REMARK  Name = 9801640
REMARK  6 active torsions:
REMARK  status: ('A' for Active; 'I' for Inactive)
REMARK    1  A    between atoms: C_1  and  C_2
REMARK    2  A    between atoms: C_1  and  C_16
REMARK    3  A    between atoms: C_2  and  N_3
REMARK    4  A    between atoms: C_7  and  C_11
REMARK    5  A    between atoms: C_16  and  C_17
REMARK    6  A    between atoms: C_17  and  N_21
REMARK                            x       y       z     vdW  Elec       q    Type
REMARK                         _______ _______ _______ _____ _____    ______ ____
ROOT
ATOM      1  C   UNL     1      31.684 -12.232 -20.716  0.00  0.00    -0.021 C 
ENDROOT
BRANCH   1   2
ATOM      2  C   UNL     1      31.827 -11.159 -19.638  0.00  0.00    -0.077 C 
BRANCH   2   3
ATOM      3  N   UNL     1      31.605  -9.833 -20.210  0.00  0.00    +0.390 N 
ATOM      4  C   UNL     1      32.357  -8.808 -19.481  0.00  0.00    -0.072 C 
ATOM      5  C   UNL     1      31.955  -9.816 -21.639  0.00  0.00    -0.051 C 
ATOM      6  C   UNL     1      31.975  -7.413 -19.996  0.00  0.00    +0.005 C 
ATOM      7  C   UNL     1      31.992  -7.316 -21.506  0.00  0.00    -0.013 C 
ATOM      8  C   UNL     1      31.985  -8.439 -22.247  0.00  0.00    -0.052 C 
ATOM      9  H   UNL     1      30.612  -9.615 -20.121  0.00  0.00    -0.079 HD
BRANCH   7  11
ATOM     10  N   UNL     1      32.325  -5.921 -23.439  0.00  0.00    -0.244 NA
ATOM     11  C   UNL     1      32.011  -5.968 -22.124  0.00  0.00    +0.077 C 
ATOM     12  C   UNL     1      31.717  -4.849 -21.359  0.00  0.00    +0.019 C 
ATOM     13  C   UNL     1      31.747  -3.606 -21.982  0.00  0.00    +0.003 C 
ATOM     14  C   UNL     1      32.346  -4.695 -24.010  0.00  0.00    +0.099 C 
ATOM     15  C   UNL     1      32.067  -3.519 -23.333  0.00  0.00    +0.021 C 
ENDBRANCH   7  11
ENDBRANCH   2   3
ENDBRANCH   1   2
BRANCH   1  16
ATOM     16  C   UNL     1      32.607 -13.422 -20.435  0.00  0.00    +0.020 C 
BRANCH  16  17
ATOM     17  C   UNL     1      33.916 -13.347 -21.213  0.00  0.00    +0.099 C 
BRANCH  17  21
ATOM     18 CL   UNL     1      32.790 -13.554 -23.919  0.00  0.00    -0.062 Cl
ATOM     19  O   UNL     1      35.453 -16.481 -23.892  0.00  0.00    -0.448 OA
ATOM     20  O   UNL     1      35.263 -15.430 -19.990  0.00  0.00    -0.269 OA
ATOM     21  N   UNL     1      34.226 -14.603 -21.912  0.00  0.00    -0.244 N 
ATOM     22  C   UNL     1      34.824 -15.615 -21.128  0.00  0.00    +0.256 C 
ATOM     23  C   UNL     1      33.924 -14.704 -23.268  0.00  0.00    +0.151 C 
ATOM     24  C   UNL     1      34.859 -17.018 -21.605  0.00  0.00    +0.088 C 
ATOM     25  C   UNL     1      35.174 -17.387 -22.909  0.00  0.00    +0.150 C 
ATOM     26  C   UNL     1      34.473 -15.560 -24.138  0.00  0.00    +0.206 C 
ATOM     27  C   UNL     1      34.619 -18.026 -20.656  0.00  0.00    +0.008 C 
ATOM     28  C   UNL     1      35.273 -18.737 -23.264  0.00  0.00    +0.038 C 
ATOM     29  C   UNL     1      34.697 -19.374 -21.013  0.00  0.00    +0.000 C 
ATOM     30  C   UNL     1      35.028 -19.729 -22.317  0.00  0.00    +0.003 C 
ENDBRANCH  17  21
ENDBRANCH  16  17
ENDBRANCH   1  16
TORSDOF 6
ENDMDL
MODEL 9
REMARK VINA RESULT:     -10.1      3.170      5.328
REMARK  Name = 9801640
REMARK  6 active torsions:
REMARK  status: ('A' for Active; 'I' for Inactive)
REMARK    1  A    between atoms: C_1  and  C_2
REMARK    2  A    between atoms: C_1  and  C_16
REMARK    3  A    between atoms: C_2  and  N_3
REMARK    4  A    between atoms: C_7  and  C_11
REMARK    5  A    between atoms: C_16  and  C_17
REMARK    6  A    between atoms: C_17  and  N_21
REMARK                            x       y       z     vdW  Elec       q    Type
REMARK                         _______ _______ _______ _____ _____    ______ ____
ROOT
ATOM      1  C   UNL     1      34.597 -10.589 -24.362  0.00  0.00    -0.021 C 
ENDROOT
BRANCH   1   2
ATOM      2  C   UNL     1      33.331 -11.305 -24.829  0.00  0.00    -0.077 C 
BRANCH   2   3
ATOM      3  N   UNL     1      33.372 -12.713 -24.440  0.00  0.00    +0.390 N 
ATOM      4  C   UNL     1      33.733 -13.566 -25.576  0.00  0.00    -0.072 C 
ATOM      5  C   UNL     1      34.304 -12.917 -23.319  0.00  0.00    -0.051 C 
ATOM      6  C   UNL     1      33.605 -15.045 -25.180  0.00  0.00    +0.005 C 
ATOM      7  C   UNL     1      34.270 -15.362 -23.860  0.00  0.00    -0.013 C 
ATOM      8  C   UNL     1      34.588 -14.363 -23.014  0.00  0.00    -0.052 C 
ATOM      9  H   UNL     1      32.437 -12.980 -24.132  0.00  0.00    -0.079 HD
BRANCH   7  11
ATOM     10  N   UNL     1      33.970 -17.701 -24.342  0.00  0.00    -0.244 NA
ATOM     11  C   UNL     1      34.549 -16.782 -23.536  0.00  0.00    +0.077 C 
ATOM     12  C   UNL     1      35.361 -17.102 -22.457  0.00  0.00    +0.019 C 
ATOM     13  C   UNL     1      35.592 -18.447 -22.191  0.00  0.00    +0.003 C 
ATOM     14  C   UNL     1      34.218 -18.999 -24.052  0.00  0.00    +0.099 C 
ATOM     15  C   UNL     1      35.013 -19.420 -23.000  0.00  0.00    +0.021 C 
ENDBRANCH   7  11
ENDBRANCH   2   3
ENDBRANCH   1   2
BRANCH   1  16
ATOM     16  C   UNL     1      34.266  -9.485 -23.353  0.00  0.00    +0.020 C 
BRANCH  16  17
ATOM     17  C   UNL     1      32.874  -8.899 -23.559  0.00  0.00    +0.099 C 
BRANCH  17  21
ATOM     18 CL   UNL     1      31.216  -9.383 -21.183  0.00  0.00    -0.062 Cl
ATOM     19  O   UNL     1      32.798  -5.842 -20.396  0.00  0.00    -0.448 OA
ATOM     20  O   UNL     1      33.735  -6.376 -24.295  0.00  0.00    -0.269 OA
ATOM     21  N   UNL     1      32.635  -7.711 -22.727  0.00  0.00    -0.244 N 
ATOM     22  C   UNL     1      33.039  -6.476 -23.281  0.00  0.00    +0.256 C 
ATOM     23  C   UNL     1      32.048  -7.881 -21.475  0.00  0.00    +0.151 C 
ATOM     24  C   UNL     1      32.544  -5.197 -22.718  0.00  0.00    +0.088 C 
ATOM     25  C   UNL     1      32.459  -4.931 -21.355  0.00  0.00    +0.150 C 
ATOM     26  C   UNL     1      32.120  -7.027 -20.446  0.00  0.00    +0.206 C 
ATOM     27  C   UNL     1      32.204  -4.182 -23.628  0.00  0.00    +0.008 C 
ATOM     28  C   UNL     1      32.065  -3.667 -20.899  0.00  0.00    +0.038 C 
ATOM     29  C   UNL     1      31.790  -2.928 -23.175  0.00  0.00    +0.000 C 
ATOM     30  C   UNL     1      31.725  -2.670 -21.809  0.00  0.00    +0.003 C 
ENDBRANCH  17  21
ENDBRANCH  16  17
ENDBRANCH   1  16
TORSDOF 6
ENDMDL
