MODEL 1
REMARK VINA RESULT:     -12.7      0.000      0.000
REMARK  Name = 448408
REMARK  8 active torsions:
REMARK  status: ('A' for Active; 'I' for Inactive)
REMARK    1  A    between atoms: N_2  and  C_25
REMARK    2  A    between atoms: C_3  and  C_6
REMARK    3  A    between atoms: C_5  and  N_12
REMARK    4  A    between atoms: C_25  and  C_26
REMARK    5  A    between atoms: C_27  and  S_32
REMARK    6  A    between atoms: S_32  and  C_33
REMARK    7  A    between atoms: C_34  and  C_39
REMARK    8  A    between atoms: C_39  and  O_40
REMARK                            x       y       z     vdW  Elec       q    Type
REMARK                         _______ _______ _______ _____ _____    ______ ____
ROOT
ATOM      1  O   UNL     1      37.579 -19.308 -19.222  0.00  0.00    -0.270 OA
ATOM      2  N   UNL     1      35.891 -20.896 -19.144  0.00  0.00    -0.297 N 
ATOM      3  C   UNL     1      36.513 -19.760 -19.676  0.00  0.00    +0.246 C 
ATOM      4  H   UNL     1      35.048 -21.199 -19.552  0.00  0.00    +0.150 HD
ENDROOT
BRANCH   3   6
ATOM      5  C   UNL     1      35.080 -17.057 -21.866  0.00  0.00    +0.090 C 
ATOM      6  C   UNL     1      35.843 -19.099 -20.786  0.00  0.00    +0.055 C 
ATOM      7  C   UNL     1      35.725 -17.710 -20.801  0.00  0.00    +0.023 C 
ATOM      8  C   UNL     1      34.557 -17.833 -22.913  0.00  0.00    +0.018 C 
ATOM      9  C   UNL     1      35.318 -19.857 -21.834  0.00  0.00    +0.005 C 
ATOM     10  C   UNL     1      34.676 -19.224 -22.897  0.00  0.00    +0.002 C 
BRANCH   5  12
ATOM     11  O   UNL     1      32.280 -13.094 -20.010  0.00  0.00    -0.207 OA
ATOM     12  N   UNL     1      34.962 -15.672 -21.882  0.00  0.00    -0.137 N 
ATOM     13  N   UNL     1      35.192 -14.886 -22.968  0.00  0.00    -0.215 N 
ATOM     14  N   UNL     1      34.061 -15.073 -21.006  0.00  0.00    -0.143 NA
ATOM     15  N   UNL     1      34.254 -12.680 -23.511  0.00  0.00    -0.309 NA
ATOM     16  N   UNL     1      32.709 -11.795 -21.881  0.00  0.00    -0.251 NA
ATOM     17  N   UNL     1      33.212 -10.585 -23.787  0.00  0.00    -0.283 N 
ATOM     18  C   UNL     1      34.456 -13.755 -22.843  0.00  0.00    +0.243 C 
ATOM     19  C   UNL     1      33.756 -13.943 -21.563  0.00  0.00    +0.241 C 
ATOM     20  C   UNL     1      32.844 -12.901 -21.077  0.00  0.00    +0.239 C 
ATOM     21  C   UNL     1      33.377 -11.711 -23.015  0.00  0.00    +0.208 C 
ATOM     22  H   UNL     1      35.792 -15.103 -23.718  0.00  0.00    +0.175 HD
ATOM     23  H   UNL     1      33.698 -10.494 -24.638  0.00  0.00    +0.156 HD
ATOM     24  H   UNL     1      32.607  -9.868 -23.488  0.00  0.00    +0.156 HD
ENDBRANCH   5  12
ENDBRANCH   3   6
BRANCH   2  25
ATOM     25  C   UNL     1      36.419 -21.647 -18.027  0.00  0.00    +0.117 C 
BRANCH  25  26
ATOM     26  C   UNL     1      35.329 -22.273 -17.207  0.00  0.00    +0.003 C 
ATOM     27  C   UNL     1      35.552 -22.713 -15.905  0.00  0.00    +0.027 C 
ATOM     28  C   UNL     1      34.072 -22.404 -17.789  0.00  0.00    -0.002 C 
ATOM     29  C   UNL     1      34.509 -23.290 -15.181  0.00  0.00    +0.006 C 
ATOM     30  C   UNL     1      33.029 -22.981 -17.065  0.00  0.00    -0.000 C 
ATOM     31  C   UNL     1      33.247 -23.423 -15.761  0.00  0.00    +0.000 C 
BRANCH  27  32
ATOM     32  S   UNL     1      37.150 -22.564 -15.118  0.00  0.00    -0.087 S 
BRANCH  32  33
ATOM     33  C   UNL     1      37.178 -24.043 -14.116  0.00  0.00    +0.028 C 
ATOM     34  C   UNL     1      37.224 -23.984 -12.721  0.00  0.00    +0.013 C 
ATOM     35  C   UNL     1      37.153 -25.281 -14.759  0.00  0.00    +0.006 C 
ATOM     36  C   UNL     1      37.244 -25.162 -11.974  0.00  0.00    -0.001 C 
ATOM     37  C   UNL     1      37.174 -26.458 -14.011  0.00  0.00    +0.000 C 
ATOM     38  C   UNL     1      37.219 -26.398 -12.618  0.00  0.00    -0.000 C 
BRANCH  34  39
ATOM     39  C   UNL     1      37.252 -22.684 -11.984  0.00  0.00    +0.164 C 
BRANCH  39  40
ATOM     40  O   UNL     1      38.496 -22.556 -11.308  0.00  0.00    -0.377 OA
ATOM     41  H   UNL     1      39.203 -22.926 -11.859  0.00  0.00    +0.211 HD
ENDBRANCH  39  40
ENDBRANCH  34  39
ENDBRANCH  32  33
ENDBRANCH  27  32
ENDBRANCH  25  26
ENDBRANCH   2  25
TORSDOF 8
ENDMDL
MODEL 2
REMARK VINA RESULT:     -12.5      3.591     11.525
REMARK  Name = 448408
REMARK  8 active torsions:
REMARK  status: ('A' for Active; 'I' for Inactive)
REMARK    1  A    between atoms: N_2  and  C_25
REMARK    2  A    between atoms: C_3  and  C_6
REMARK    3  A    between atoms: C_5  and  N_12
REMARK    4  A    between atoms: C_25  and  C_26
REMARK    5  A    between atoms: C_27  and  S_32
REMARK    6  A    between atoms: S_32  and  C_33
REMARK    7  A    between atoms: C_34  and  C_39
REMARK    8  A    between atoms: C_39  and  O_40
REMARK                            x       y       z     vdW  Elec       q    Type
REMARK                         _______ _______ _______ _____ _____    ______ ____
ROOT
ATOM      1  O   UNL     1      37.122 -20.088 -19.903  0.00  0.00    -0.270 OA
ATOM      2  N   UNL     1      35.158 -19.032 -20.536  0.00  0.00    -0.297 N 
ATOM      3  C   UNL     1      35.883 -20.006 -19.839  0.00  0.00    +0.246 C 
ATOM      4  H   UNL     1      34.178 -19.024 -20.441  0.00  0.00    +0.150 HD
ENDROOT
BRANCH   3   6
ATOM      5  C   UNL     1      34.986 -22.494 -17.164  0.00  0.00    +0.090 C 
ATOM      6  C   UNL     1      35.119 -20.952 -19.042  0.00  0.00    +0.055 C 
ATOM      7  C   UNL     1      35.711 -21.576 -17.944  0.00  0.00    +0.023 C 
ATOM      8  C   UNL     1      33.654 -22.770 -17.514  0.00  0.00    +0.018 C 
ATOM      9  C   UNL     1      33.795 -21.237 -19.377  0.00  0.00    +0.005 C 
ATOM     10  C   UNL     1      33.063 -22.145 -18.613  0.00  0.00    +0.002 C 
BRANCH   5  12
ATOM     11  O   UNL     1      34.045 -24.228 -12.357  0.00  0.00    -0.207 OA
ATOM     12  N   UNL     1      35.575 -23.115 -16.068  0.00  0.00    -0.137 N 
ATOM     13  N   UNL     1      36.849 -22.899 -15.646  0.00  0.00    -0.215 N 
ATOM     14  N   UNL     1      34.755 -23.522 -15.018  0.00  0.00    -0.143 NA
ATOM     15  N   UNL     1      37.795 -23.133 -13.390  0.00  0.00    -0.309 NA
ATOM     16  N   UNL     1      36.233 -23.846 -11.693  0.00  0.00    -0.251 NA
ATOM     17  N   UNL     1      38.442 -23.436 -11.144  0.00  0.00    -0.283 N 
ATOM     18  C   UNL     1      36.910 -23.155 -14.316  0.00  0.00    +0.243 C 
ATOM     19  C   UNL     1      35.533 -23.548 -13.981  0.00  0.00    +0.241 C 
ATOM     20  C   UNL     1      35.200 -23.908 -12.598  0.00  0.00    +0.239 C 
ATOM     21  C   UNL     1      37.438 -23.482 -12.084  0.00  0.00    +0.208 C 
ATOM     22  H   UNL     1      37.600 -22.607 -16.212  0.00  0.00    +0.175 HD
ATOM     23  H   UNL     1      39.352 -23.168 -11.407  0.00  0.00    +0.156 HD
ATOM     24  H   UNL     1      38.250 -23.672 -10.207  0.00  0.00    +0.156 HD
ENDBRANCH   5  12
ENDBRANCH   3   6
BRANCH   2  25
ATOM     25  C   UNL     1      35.770 -18.037 -21.388  0.00  0.00    +0.117 C 
BRANCH  25  26
ATOM     26  C   UNL     1      34.973 -17.802 -22.638  0.00  0.00    +0.003 C 
ATOM     27  C   UNL     1      34.821 -16.530 -23.183  0.00  0.00    +0.027 C 
ATOM     28  C   UNL     1      34.380 -18.904 -23.247  0.00  0.00    -0.002 C 
ATOM     29  C   UNL     1      34.070 -16.360 -24.346  0.00  0.00    +0.006 C 
ATOM     30  C   UNL     1      33.629 -18.734 -24.409  0.00  0.00    -0.000 C 
ATOM     31  C   UNL     1      33.474 -17.462 -24.959  0.00  0.00    +0.000 C 
BRANCH  27  32
ATOM     32  S   UNL     1      35.564 -15.087 -22.434  0.00  0.00    -0.087 S 
BRANCH  32  33
ATOM     33  C   UNL     1      34.134 -14.306 -21.702  0.00  0.00    +0.028 C 
ATOM     34  C   UNL     1      33.438 -13.288 -22.356  0.00  0.00    +0.013 C 
ATOM     35  C   UNL     1      33.716 -14.736 -20.441  0.00  0.00    +0.006 C 
ATOM     36  C   UNL     1      32.325 -12.703 -21.751  0.00  0.00    -0.001 C 
ATOM     37  C   UNL     1      32.605 -14.150 -19.836  0.00  0.00    +0.000 C 
ATOM     38  C   UNL     1      31.909 -13.133 -20.491  0.00  0.00    -0.000 C 
BRANCH  34  39
ATOM     39  C   UNL     1      33.844 -12.791 -23.706  0.00  0.00    +0.164 C 
BRANCH  39  40
ATOM     40  O   UNL     1      34.597 -11.595 -23.558  0.00  0.00    -0.377 OA
ATOM     41  H   UNL     1      34.615 -11.338 -22.623  0.00  0.00    +0.211 HD
ENDBRANCH  39  40
ENDBRANCH  34  39
ENDBRANCH  32  33
ENDBRANCH  27  32
ENDBRANCH  25  26
ENDBRANCH   2  25
TORSDOF 8
ENDMDL
MODEL 3
REMARK VINA RESULT:     -12.4      2.217      3.300
REMARK  Name = 448408
REMARK  8 active torsions:
REMARK  status: ('A' for Active; 'I' for Inactive)
REMARK    1  A    between atoms: N_2  and  C_25
REMARK    2  A    between atoms: C_3  and  C_6
REMARK    3  A    between atoms: C_5  and  N_12
REMARK    4  A    between atoms: C_25  and  C_26
REMARK    5  A    between atoms: C_27  and  S_32
REMARK    6  A    between atoms: S_32  and  C_33
REMARK    7  A    between atoms: C_34  and  C_39
REMARK    8  A    between atoms: C_39  and  O_40
REMARK                            x       y       z     vdW  Elec       q    Type
REMARK                         _______ _______ _______ _____ _____    ______ ____
ROOT
ATOM      1  O   UNL     1      32.601 -21.600 -19.713  0.00  0.00    -0.270 OA
ATOM      2  N   UNL     1      33.754 -22.473 -17.901  0.00  0.00    -0.297 N 
ATOM      3  C   UNL     1      33.642 -21.661 -19.036  0.00  0.00    +0.246 C 
ATOM      4  H   UNL     1      34.609 -22.473 -17.411  0.00  0.00    +0.150 HD
ENDROOT
BRANCH   3   6
ATOM      5  C   UNL     1      35.823 -19.081 -20.693  0.00  0.00    +0.090 C 
ATOM      6  C   UNL     1      34.817 -20.893 -19.417  0.00  0.00    +0.055 C 
ATOM      7  C   UNL     1      34.696 -19.832 -20.314  0.00  0.00    +0.023 C 
ATOM      8  C   UNL     1      37.073 -19.423 -20.150  0.00  0.00    +0.018 C 
ATOM      9  C   UNL     1      36.066 -21.220 -18.886  0.00  0.00    +0.005 C 
ATOM     10  C   UNL     1      37.193 -20.485 -19.252  0.00  0.00    +0.002 C 
BRANCH   5  12
ATOM     11  O   UNL     1      34.726 -14.014 -21.020  0.00  0.00    -0.207 OA
ATOM     12  N   UNL     1      35.703 -18.023 -21.587  0.00  0.00    -0.137 N 
ATOM     13  N   UNL     1      35.199 -18.124 -22.845  0.00  0.00    -0.215 N 
ATOM     14  N   UNL     1      35.531 -16.740 -21.073  0.00  0.00    -0.143 NA
ATOM     15  N   UNL     1      34.098 -16.406 -24.215  0.00  0.00    -0.309 NA
ATOM     16  N   UNL     1      33.885 -14.241 -23.169  0.00  0.00    -0.251 NA
ATOM     17  N   UNL     1      33.081 -14.584 -25.311  0.00  0.00    -0.283 N 
ATOM     18  C   UNL     1      34.684 -16.920 -23.200  0.00  0.00    +0.243 C 
ATOM     19  C   UNL     1      34.932 -16.082 -22.016  0.00  0.00    +0.241 C 
ATOM     20  C   UNL     1      34.504 -14.678 -22.022  0.00  0.00    +0.239 C 
ATOM     21  C   UNL     1      33.705 -15.065 -24.183  0.00  0.00    +0.208 C 
ATOM     22  H   UNL     1      35.207 -18.934 -23.405  0.00  0.00    +0.175 HD
ATOM     23  H   UNL     1      32.934 -15.175 -26.083  0.00  0.00    +0.156 HD
ATOM     24  H   UNL     1      32.782 -13.646 -25.345  0.00  0.00    +0.156 HD
ENDBRANCH   5  12
ENDBRANCH   3   6
BRANCH   2  25
ATOM     25  C   UNL     1      32.684 -23.311 -17.409  0.00  0.00    +0.117 C 
BRANCH  25  26
ATOM     26  C   UNL     1      32.528 -23.206 -15.920  0.00  0.00    +0.003 C 
ATOM     27  C   UNL     1      33.618 -23.307 -15.059  0.00  0.00    +0.027 C 
ATOM     28  C   UNL     1      31.247 -23.003 -15.414  0.00  0.00    -0.002 C 
ATOM     29  C   UNL     1      33.424 -23.204 -13.682  0.00  0.00    +0.006 C 
ATOM     30  C   UNL     1      31.054 -22.900 -14.037  0.00  0.00    -0.000 C 
ATOM     31  C   UNL     1      32.142 -23.000 -13.171  0.00  0.00    +0.000 C 
BRANCH  27  32
ATOM     32  S   UNL     1      35.279 -23.568 -15.665  0.00  0.00    -0.087 S 
BRANCH  32  33
ATOM     33  C   UNL     1      36.138 -23.967 -14.150  0.00  0.00    +0.028 C 
ATOM     34  C   UNL     1      36.480 -25.281 -13.824  0.00  0.00    +0.013 C 
ATOM     35  C   UNL     1      36.467 -22.926 -13.280  0.00  0.00    +0.006 C 
ATOM     36  C   UNL     1      37.151 -25.552 -12.631  0.00  0.00    -0.001 C 
ATOM     37  C   UNL     1      37.137 -23.198 -12.087  0.00  0.00    +0.000 C 
ATOM     38  C   UNL     1      37.479 -24.511 -11.763  0.00  0.00    -0.000 C 
BRANCH  34  39
ATOM     39  C   UNL     1      36.151 -26.430 -14.721  0.00  0.00    +0.164 C 
BRANCH  39  40
ATOM     40  O   UNL     1      37.314 -26.803 -15.449  0.00  0.00    -0.377 OA
ATOM     41  H   UNL     1      38.103 -26.601 -14.923  0.00  0.00    +0.211 HD
ENDBRANCH  39  40
ENDBRANCH  34  39
ENDBRANCH  32  33
ENDBRANCH  27  32
ENDBRANCH  25  26
ENDBRANCH   2  25
TORSDOF 8
ENDMDL
MODEL 4
REMARK VINA RESULT:     -12.2      4.818     12.867
REMARK  Name = 448408
REMARK  8 active torsions:
REMARK  status: ('A' for Active; 'I' for Inactive)
REMARK    1  A    between atoms: N_2  and  C_25
REMARK    2  A    between atoms: C_3  and  C_6
REMARK    3  A    between atoms: C_5  and  N_12
REMARK    4  A    between atoms: C_25  and  C_26
REMARK    5  A    between atoms: C_27  and  S_32
REMARK    6  A    between atoms: S_32  and  C_33
REMARK    7  A    between atoms: C_34  and  C_39
REMARK    8  A    between atoms: C_39  and  O_40
REMARK                            x       y       z     vdW  Elec       q    Type
REMARK                         _______ _______ _______ _____ _____    ______ ____
ROOT
ATOM      1  O   UNL     1      35.297 -13.977 -21.707  0.00  0.00    -0.270 OA
ATOM      2  N   UNL     1      34.001 -13.196 -23.463  0.00  0.00    -0.297 N 
ATOM      3  C   UNL     1      34.621 -14.210 -22.724  0.00  0.00    +0.246 C 
ATOM      4  H   UNL     1      33.481 -13.452 -24.260  0.00  0.00    +0.150 HD
ENDROOT
BRANCH   3   6
ATOM      5  C   UNL     1      34.680 -17.970 -22.857  0.00  0.00    +0.090 C 
ATOM      6  C   UNL     1      34.466 -15.572 -23.212  0.00  0.00    +0.055 C 
ATOM      7  C   UNL     1      34.824 -16.649 -22.400  0.00  0.00    +0.023 C 
ATOM      8  C   UNL     1      34.169 -18.183 -24.148  0.00  0.00    +0.018 C 
ATOM      9  C   UNL     1      33.960 -15.801 -24.492  0.00  0.00    +0.005 C 
ATOM     10  C   UNL     1      33.812 -17.106 -24.960  0.00  0.00    +0.002 C 
BRANCH   5  12
ATOM     11  O   UNL     1      32.775 -21.521 -19.578  0.00  0.00    -0.207 OA
ATOM     12  N   UNL     1      35.035 -19.043 -22.048  0.00  0.00    -0.137 N 
ATOM     13  N   UNL     1      36.187 -19.125 -21.330  0.00  0.00    -0.215 N 
ATOM     14  N   UNL     1      34.020 -19.798 -21.466  0.00  0.00    -0.143 NA
ATOM     15  N   UNL     1      36.637 -20.375 -19.262  0.00  0.00    -0.309 NA
ATOM     16  N   UNL     1      34.765 -21.627 -18.393  0.00  0.00    -0.251 NA
ATOM     17  N   UNL     1      36.800 -21.660 -17.293  0.00  0.00    -0.283 N 
ATOM     18  C   UNL     1      35.970 -19.931 -20.261  0.00  0.00    +0.243 C 
ATOM     19  C   UNL     1      34.560 -20.325 -20.411  0.00  0.00    +0.241 C 
ATOM     20  C   UNL     1      33.948 -21.217 -19.420  0.00  0.00    +0.239 C 
ATOM     21  C   UNL     1      36.019 -21.222 -18.338  0.00  0.00    +0.208 C 
ATOM     22  H   UNL     1      37.035 -18.676 -21.550  0.00  0.00    +0.175 HD
ATOM     23  H   UNL     1      37.739 -21.374 -17.226  0.00  0.00    +0.156 HD
ATOM     24  H   UNL     1      36.418 -22.259 -16.611  0.00  0.00    +0.156 HD
ENDBRANCH   5  12
ENDBRANCH   3   6
BRANCH   2  25
ATOM     25  C   UNL     1      34.082 -11.794 -23.122  0.00  0.00    +0.117 C 
BRANCH  25  26
ATOM     26  C   UNL     1      32.926 -11.356 -22.270  0.00  0.00    +0.003 C 
ATOM     27  C   UNL     1      32.508 -10.029 -22.227  0.00  0.00    +0.027 C 
ATOM     28  C   UNL     1      32.275 -12.325 -21.512  0.00  0.00    -0.002 C 
ATOM     29  C   UNL     1      31.429  -9.669 -21.420  0.00  0.00    +0.006 C 
ATOM     30  C   UNL     1      31.197 -11.964 -20.704  0.00  0.00    -0.000 C 
ATOM     31  C   UNL     1      30.774 -10.636 -20.659  0.00  0.00    +0.000 C 
BRANCH  27  32
ATOM     32  S   UNL     1      33.315  -8.753 -23.184  0.00  0.00    -0.087 S 
BRANCH  32  33
ATOM     33  C   UNL     1      32.414  -7.305 -22.653  0.00  0.00    +0.028 C 
ATOM     34  C   UNL     1      32.751  -6.617 -21.485  0.00  0.00    +0.013 C 
ATOM     35  C   UNL     1      31.347  -6.862 -23.437  0.00  0.00    +0.006 C 
ATOM     36  C   UNL     1      32.023  -5.490 -21.104  0.00  0.00    -0.001 C 
ATOM     37  C   UNL     1      30.619  -5.735 -23.055  0.00  0.00    +0.000 C 
ATOM     38  C   UNL     1      30.957  -5.049 -21.888  0.00  0.00    -0.000 C 
BRANCH  34  39
ATOM     39  C   UNL     1      33.884  -7.050 -20.611  0.00  0.00    +0.164 C 
BRANCH  39  40
ATOM     40  O   UNL     1      33.376  -7.433 -19.340  0.00  0.00    -0.377 OA
ATOM     41  H   UNL     1      33.968  -8.088 -18.939  0.00  0.00    +0.211 HD
ENDBRANCH  39  40
ENDBRANCH  34  39
ENDBRANCH  32  33
ENDBRANCH  27  32
ENDBRANCH  25  26
ENDBRANCH   2  25
TORSDOF 8
ENDMDL
MODEL 5
REMARK VINA RESULT:     -12.1      5.087     11.650
REMARK  Name = 448408
REMARK  8 active torsions:
REMARK  status: ('A' for Active; 'I' for Inactive)
REMARK    1  A    between atoms: N_2  and  C_25
REMARK    2  A    between atoms: C_3  and  C_6
REMARK    3  A    between atoms: C_5  and  N_12
REMARK    4  A    between atoms: C_25  and  C_26
REMARK    5  A    between atoms: C_27  and  S_32
REMARK    6  A    between atoms: S_32  and  C_33
REMARK    7  A    between atoms: C_34  and  C_39
REMARK    8  A    between atoms: C_39  and  O_40
REMARK                            x       y       z     vdW  Elec       q    Type
REMARK                         _______ _______ _______ _____ _____    ______ ____
ROOT
ATOM      1  O   UNL     1      30.972 -22.019 -17.259  0.00  0.00    -0.270 OA
ATOM      2  N   UNL     1      33.209 -22.498 -17.638  0.00  0.00    -0.297 N 
ATOM      3  C   UNL     1      32.033 -22.544 -16.879  0.00  0.00    +0.246 C 
ATOM      4  H   UNL     1      34.014 -22.934 -17.276  0.00  0.00    +0.150 HD
ENDROOT
BRANCH   3   6
ATOM      5  C   UNL     1      33.420 -24.299 -13.853  0.00  0.00    +0.090 C 
ATOM      6  C   UNL     1      32.104 -23.220 -15.593  0.00  0.00    +0.055 C 
ATOM      7  C   UNL     1      33.336 -23.644 -15.095  0.00  0.00    +0.023 C 
ATOM      8  C   UNL     1      32.238 -24.517 -13.127  0.00  0.00    +0.018 C 
ATOM      9  C   UNL     1      30.939 -23.444 -14.858  0.00  0.00    +0.005 C 
ATOM     10  C   UNL     1      31.006 -24.092 -13.626  0.00  0.00    +0.002 C 
BRANCH   5  12
ATOM     11  O   UNL     1      37.666 -22.689 -11.329  0.00  0.00    -0.207 OA
ATOM     12  N   UNL     1      34.648 -24.721 -13.356  0.00  0.00    -0.137 N 
ATOM     13  N   UNL     1      35.458 -25.630 -13.960  0.00  0.00    -0.215 N 
ATOM     14  N   UNL     1      35.377 -23.842 -12.559  0.00  0.00    -0.143 NA
ATOM     15  N   UNL     1      37.899 -25.871 -13.808  0.00  0.00    -0.309 NA
ATOM     16  N   UNL     1      39.001 -24.264 -12.384  0.00  0.00    -0.251 NA
ATOM     17  N   UNL     1      40.234 -25.880 -13.486  0.00  0.00    -0.283 N 
ATOM     18  C   UNL     1      36.737 -25.382 -13.584  0.00  0.00    +0.243 C 
ATOM     19  C   UNL     1      36.610 -24.223 -12.687  0.00  0.00    +0.241 C 
ATOM     20  C   UNL     1      37.811 -23.652 -12.067  0.00  0.00    +0.239 C 
ATOM     21  C   UNL     1      39.021 -25.299 -13.199  0.00  0.00    +0.208 C 
ATOM     22  H   UNL     1      35.166 -26.347 -14.568  0.00  0.00    +0.175 HD
ATOM     23  H   UNL     1      40.279 -26.655 -14.092  0.00  0.00    +0.156 HD
ATOM     24  H   UNL     1      41.059 -25.520 -13.086  0.00  0.00    +0.156 HD
ENDBRANCH   5  12
ENDBRANCH   3   6
BRANCH   2  25
ATOM     25  C   UNL     1      33.305 -21.843 -18.923  0.00  0.00    +0.117 C 
BRANCH  25  26
ATOM     26  C   UNL     1      34.667 -21.254 -19.152  0.00  0.00    +0.003 C 
ATOM     27  C   UNL     1      34.900 -20.313 -20.151  0.00  0.00    +0.027 C 
ATOM     28  C   UNL     1      35.705 -21.681 -18.330  0.00  0.00    -0.002 C 
ATOM     29  C   UNL     1      36.182 -19.794 -20.328  0.00  0.00    +0.006 C 
ATOM     30  C   UNL     1      36.987 -21.161 -18.507  0.00  0.00    -0.000 C 
ATOM     31  C   UNL     1      37.226 -20.218 -19.505  0.00  0.00    +0.000 C 
BRANCH  27  32
ATOM     32  S   UNL     1      33.596 -19.737 -21.230  0.00  0.00    -0.087 S 
BRANCH  32  33
ATOM     33  C   UNL     1      34.307 -18.220 -21.848  0.00  0.00    +0.028 C 
ATOM     34  C   UNL     1      34.398 -17.955 -23.216  0.00  0.00    +0.013 C 
ATOM     35  C   UNL     1      34.780 -17.285 -20.926  0.00  0.00    +0.006 C 
ATOM     36  C   UNL     1      34.960 -16.758 -23.660  0.00  0.00    -0.001 C 
ATOM     37  C   UNL     1      35.343 -16.088 -21.371  0.00  0.00    +0.000 C 
ATOM     38  C   UNL     1      35.433 -15.825 -22.738  0.00  0.00    -0.000 C 
BRANCH  34  39
ATOM     39  C   UNL     1      33.906 -18.923 -24.244  0.00  0.00    +0.164 C 
BRANCH  39  40
ATOM     40  O   UNL     1      32.877 -18.310 -25.009  0.00  0.00    -0.377 OA
ATOM     41  H   UNL     1      33.254 -17.593 -25.542  0.00  0.00    +0.211 HD
ENDBRANCH  39  40
ENDBRANCH  34  39
ENDBRANCH  32  33
ENDBRANCH  27  32
ENDBRANCH  25  26
ENDBRANCH   2  25
TORSDOF 8
ENDMDL
MODEL 6
REMARK VINA RESULT:     -11.8      3.958      7.408
REMARK  Name = 448408
REMARK  8 active torsions:
REMARK  status: ('A' for Active; 'I' for Inactive)
REMARK    1  A    between atoms: N_2  and  C_25
REMARK    2  A    between atoms: C_3  and  C_6
REMARK    3  A    between atoms: C_5  and  N_12
REMARK    4  A    between atoms: C_25  and  C_26
REMARK    5  A    between atoms: C_27  and  S_32
REMARK    6  A    between atoms: S_32  and  C_33
REMARK    7  A    between atoms: C_34  and  C_39
REMARK    8  A    between atoms: C_39  and  O_40
REMARK                            x       y       z     vdW  Elec       q    Type
REMARK                         _______ _______ _______ _____ _____    ______ ____
ROOT
ATOM      1  O   UNL     1      33.380 -14.056 -21.263  0.00  0.00    -0.270 OA
ATOM      2  N   UNL     1      34.968 -14.910 -22.720  0.00  0.00    -0.297 N 
ATOM      3  C   UNL     1      34.047 -13.941 -22.307  0.00  0.00    +0.246 C 
ATOM      4  H   UNL     1      35.462 -14.755 -23.558  0.00  0.00    +0.150 HD
ENDROOT
BRANCH   3   6
ATOM      5  C   UNL     1      33.680 -10.373 -23.442  0.00  0.00    +0.090 C 
ATOM      6  C   UNL     1      33.874 -12.783 -23.170  0.00  0.00    +0.055 C 
ATOM      7  C   UNL     1      33.846 -11.501 -22.621  0.00  0.00    +0.023 C 
ATOM      8  C   UNL     1      33.540 -10.563 -24.827  0.00  0.00    +0.018 C 
ATOM      9  C   UNL     1      33.734 -12.956 -24.548  0.00  0.00    +0.005 C 
ATOM     10  C   UNL     1      33.568 -11.846 -25.376  0.00  0.00    +0.002 C 
BRANCH   5  12
ATOM     11  O   UNL     1      31.471  -7.474 -19.739  0.00  0.00    -0.207 OA
ATOM     12  N   UNL     1      33.653  -9.095 -22.895  0.00  0.00    -0.137 N 
ATOM     13  N   UNL     1      33.763  -7.943 -23.609  0.00  0.00    -0.215 N 
ATOM     14  N   UNL     1      32.940  -8.894 -21.715  0.00  0.00    -0.143 NA
ATOM     15  N   UNL     1      32.900  -5.704 -23.078  0.00  0.00    -0.309 NA
ATOM     16  N   UNL     1      31.690  -5.538 -20.996  0.00  0.00    -0.251 NA
ATOM     17  N   UNL     1      31.969  -3.671 -22.332  0.00  0.00    -0.283 N 
ATOM     18  C   UNL     1      33.132  -6.955 -22.928  0.00  0.00    +0.243 C 
ATOM     19  C   UNL     1      32.628  -7.636 -21.726  0.00  0.00    +0.241 C 
ATOM     20  C   UNL     1      31.874  -6.873 -20.724  0.00  0.00    +0.239 C 
ATOM     21  C   UNL     1      32.177  -5.012 -22.102  0.00  0.00    +0.208 C 
ATOM     22  H   UNL     1      34.223  -7.844 -24.474  0.00  0.00    +0.175 HD
ATOM     23  H   UNL     1      32.322  -3.250 -23.149  0.00  0.00    +0.156 HD
ATOM     24  H   UNL     1      31.467  -3.132 -21.679  0.00  0.00    +0.156 HD
ENDBRANCH   5  12
ENDBRANCH   3   6
BRANCH   2  25
ATOM     25  C   UNL     1      35.234 -16.126 -21.985  0.00  0.00    +0.117 C 
BRANCH  25  26
ATOM     26  C   UNL     1      34.925 -17.351 -22.796  0.00  0.00    +0.003 C 
ATOM     27  C   UNL     1      35.248 -18.628 -22.347  0.00  0.00    +0.027 C 
ATOM     28  C   UNL     1      34.300 -17.174 -24.027  0.00  0.00    -0.002 C 
ATOM     29  C   UNL     1      34.943 -19.738 -23.135  0.00  0.00    +0.006 C 
ATOM     30  C   UNL     1      33.995 -18.283 -24.815  0.00  0.00    -0.000 C 
ATOM     31  C   UNL     1      34.316 -19.565 -24.369  0.00  0.00    +0.000 C 
BRANCH  27  32
ATOM     32  S   UNL     1      36.051 -18.902 -20.773  0.00  0.00    -0.087 S 
BRANCH  32  33
ATOM     33  C   UNL     1      34.905 -20.030 -19.994  0.00  0.00    +0.028 C 
ATOM     34  C   UNL     1      35.340 -21.045 -19.139  0.00  0.00    +0.013 C 
ATOM     35  C   UNL     1      33.543 -19.880 -20.259  0.00  0.00    +0.006 C 
ATOM     36  C   UNL     1      34.414 -21.906 -18.550  0.00  0.00    -0.001 C 
ATOM     37  C   UNL     1      32.617 -20.742 -19.671  0.00  0.00    +0.000 C 
ATOM     38  C   UNL     1      33.053 -21.754 -18.816  0.00  0.00    -0.000 C 
BRANCH  34  39
ATOM     39  C   UNL     1      36.787 -21.247 -18.823  0.00  0.00    +0.164 C 
BRANCH  39  40
ATOM     40  O   UNL     1      37.073 -20.675 -17.554  0.00  0.00    -0.377 OA
ATOM     41  H   UNL     1      37.366 -19.758 -17.671  0.00  0.00    +0.211 HD
ENDBRANCH  39  40
ENDBRANCH  34  39
ENDBRANCH  32  33
ENDBRANCH  27  32
ENDBRANCH  25  26
ENDBRANCH   2  25
TORSDOF 8
ENDMDL
MODEL 7
REMARK VINA RESULT:     -11.7      2.000      2.758
REMARK  Name = 448408
REMARK  8 active torsions:
REMARK  status: ('A' for Active; 'I' for Inactive)
REMARK    1  A    between atoms: N_2  and  C_25
REMARK    2  A    between atoms: C_3  and  C_6
REMARK    3  A    between atoms: C_5  and  N_12
REMARK    4  A    between atoms: C_25  and  C_26
REMARK    5  A    between atoms: C_27  and  S_32
REMARK    6  A    between atoms: S_32  and  C_33
REMARK    7  A    between atoms: C_34  and  C_39
REMARK    8  A    between atoms: C_39  and  O_40
REMARK                            x       y       z     vdW  Elec       q    Type
REMARK                         _______ _______ _______ _____ _____    ______ ____
ROOT
ATOM      1  O   UNL     1      32.893 -21.946 -19.454  0.00  0.00    -0.270 OA
ATOM      2  N   UNL     1      34.580 -22.633 -18.020  0.00  0.00    -0.297 N 
ATOM      3  C   UNL     1      34.048 -21.804 -19.014  0.00  0.00    +0.246 C 
ATOM      4  H   UNL     1      35.502 -22.465 -17.717  0.00  0.00    +0.150 HD
ENDROOT
BRANCH   3   6
ATOM      5  C   UNL     1      35.196 -18.641 -20.699  0.00  0.00    +0.090 C 
ATOM      6  C   UNL     1      34.917 -20.764 -19.542  0.00  0.00    +0.055 C 
ATOM      7  C   UNL     1      34.368 -19.654 -20.183  0.00  0.00    +0.023 C 
ATOM      8  C   UNL     1      36.587 -18.772 -20.556  0.00  0.00    +0.018 C 
ATOM      9  C   UNL     1      36.302 -20.879 -19.408  0.00  0.00    +0.005 C 
ATOM     10  C   UNL     1      37.136 -19.883 -19.914  0.00  0.00    +0.002 C 
BRANCH   5  12
ATOM     11  O   UNL     1      34.600 -16.383 -25.340  0.00  0.00    -0.207 OA
ATOM     12  N   UNL     1      34.648 -17.534 -21.337  0.00  0.00    -0.137 N 
ATOM     13  N   UNL     1      34.616 -16.278 -20.819  0.00  0.00    -0.215 N 
ATOM     14  N   UNL     1      34.641 -17.509 -22.729  0.00  0.00    -0.143 NA
ATOM     15  N   UNL     1      34.551 -14.120 -21.993  0.00  0.00    -0.309 NA
ATOM     16  N   UNL     1      34.545 -14.263 -24.403  0.00  0.00    -0.251 NA
ATOM     17  N   UNL     1      34.492 -12.200 -23.359  0.00  0.00    -0.283 N 
ATOM     18  C   UNL     1      34.587 -15.391 -21.845  0.00  0.00    +0.243 C 
ATOM     19  C   UNL     1      34.606 -16.250 -23.039  0.00  0.00    +0.241 C 
ATOM     20  C   UNL     1      34.582 -15.637 -24.372  0.00  0.00    +0.239 C 
ATOM     21  C   UNL     1      34.531 -13.573 -23.280  0.00  0.00    +0.208 C 
ATOM     22  H   UNL     1      34.614 -16.050 -19.861  0.00  0.00    +0.175 HD
ATOM     23  H   UNL     1      34.480 -11.658 -22.537  0.00  0.00    +0.156 HD
ATOM     24  H   UNL     1      34.476 -11.758 -24.239  0.00  0.00    +0.156 HD
ENDBRANCH   5  12
ENDBRANCH   3   6
BRANCH   2  25
ATOM     25  C   UNL     1      33.850 -23.724 -17.414  0.00  0.00    +0.117 C 
BRANCH  25  26
ATOM     26  C   UNL     1      33.374 -23.381 -16.032  0.00  0.00    +0.003 C 
ATOM     27  C   UNL     1      34.262 -23.080 -15.004  0.00  0.00    +0.027 C 
ATOM     28  C   UNL     1      32.001 -23.374 -15.801  0.00  0.00    -0.002 C 
ATOM     29  C   UNL     1      33.774 -22.768 -13.735  0.00  0.00    +0.006 C 
ATOM     30  C   UNL     1      31.513 -23.063 -14.533  0.00  0.00    -0.000 C 
ATOM     31  C   UNL     1      32.399 -22.759 -13.500  0.00  0.00    +0.000 C 
BRANCH  27  32
ATOM     32  S   UNL     1      36.033 -23.077 -15.255  0.00  0.00    -0.087 S 
BRANCH  32  33
ATOM     33  C   UNL     1      36.535 -24.401 -14.166  0.00  0.00    +0.028 C 
ATOM     34  C   UNL     1      37.060 -24.149 -12.897  0.00  0.00    +0.013 C 
ATOM     35  C   UNL     1      36.394 -25.717 -14.611  0.00  0.00    +0.006 C 
ATOM     36  C   UNL     1      37.441 -25.210 -12.076  0.00  0.00    -0.001 C 
ATOM     37  C   UNL     1      36.775 -26.777 -13.790  0.00  0.00    +0.000 C 
ATOM     38  C   UNL     1      37.299 -26.524 -12.522  0.00  0.00    -0.000 C 
BRANCH  34  39
ATOM     39  C   UNL     1      37.232 -22.759 -12.374  0.00  0.00    +0.164 C 
BRANCH  39  40
ATOM     40  O   UNL     1      37.599 -22.818 -11.002  0.00  0.00    -0.377 OA
ATOM     41  H   UNL     1      37.094 -22.156 -10.504  0.00  0.00    +0.211 HD
ENDBRANCH  39  40
ENDBRANCH  34  39
ENDBRANCH  32  33
ENDBRANCH  27  32
ENDBRANCH  25  26
ENDBRANCH   2  25
TORSDOF 8
ENDMDL
MODEL 8
REMARK VINA RESULT:     -11.6      2.973      3.994
REMARK  Name = 448408
REMARK  8 active torsions:
REMARK  status: ('A' for Active; 'I' for Inactive)
REMARK    1  A    between atoms: N_2  and  C_25
REMARK    2  A    between atoms: C_3  and  C_6
REMARK    3  A    between atoms: C_5  and  N_12
REMARK    4  A    between atoms: C_25  and  C_26
REMARK    5  A    between atoms: C_27  and  S_32
REMARK    6  A    between atoms: S_32  and  C_33
REMARK    7  A    between atoms: C_34  and  C_39
REMARK    8  A    between atoms: C_39  and  O_40
REMARK                            x       y       z     vdW  Elec       q    Type
REMARK                         _______ _______ _______ _____ _____    ______ ____
ROOT
ATOM      1  O   UNL     1      34.024 -23.729 -19.527  0.00  0.00    -0.270 OA
ATOM      2  N   UNL     1      33.910 -22.842 -17.388  0.00  0.00    -0.297 N 
ATOM      3  C   UNL     1      34.305 -22.816 -18.731  0.00  0.00    +0.246 C 
ATOM      4  H   UNL     1      34.166 -22.085 -16.813  0.00  0.00    +0.150 HD
ENDROOT
BRANCH   3   6
ATOM      5  C   UNL     1      35.280 -19.617 -20.455  0.00  0.00    +0.090 C 
ATOM      6  C   UNL     1      35.091 -21.672 -19.166  0.00  0.00    +0.055 C 
ATOM      7  C   UNL     1      34.532 -20.727 -20.026  0.00  0.00    +0.023 C 
ATOM      8  C   UNL     1      36.602 -19.480 -20.001  0.00  0.00    +0.018 C 
ATOM      9  C   UNL     1      36.406 -21.522 -18.723  0.00  0.00    +0.005 C 
ATOM     10  C   UNL     1      37.161 -20.427 -19.140  0.00  0.00    +0.002 C 
BRANCH   5  12
ATOM     11  O   UNL     1      32.701 -19.068 -24.931  0.00  0.00    -0.207 OA
ATOM     12  N   UNL     1      34.723 -18.674 -21.311  0.00  0.00    -0.137 N 
ATOM     13  N   UNL     1      35.255 -17.450 -21.569  0.00  0.00    -0.215 N 
ATOM     14  N   UNL     1      33.947 -19.124 -22.377  0.00  0.00    -0.143 NA
ATOM     15  N   UNL     1      35.011 -16.045 -23.571  0.00  0.00    -0.309 NA
ATOM     16  N   UNL     1      33.632 -16.981 -25.318  0.00  0.00    -0.251 NA
ATOM     17  N   UNL     1      34.613 -14.904 -25.595  0.00  0.00    -0.283 N 
ATOM     18  C   UNL     1      34.850 -17.057 -22.802  0.00  0.00    +0.243 C 
ATOM     19  C   UNL     1      34.015 -18.178 -23.261  0.00  0.00    +0.241 C 
ATOM     20  C   UNL     1      33.386 -18.117 -24.585  0.00  0.00    +0.239 C 
ATOM     21  C   UNL     1      34.395 -16.024 -24.826  0.00  0.00    +0.208 C 
ATOM     22  H   UNL     1      35.836 -16.936 -20.962  0.00  0.00    +0.175 HD
ATOM     23  H   UNL     1      35.178 -14.174 -25.253  0.00  0.00    +0.156 HD
ATOM     24  H   UNL     1      34.204 -14.834 -26.488  0.00  0.00    +0.156 HD
ENDBRANCH   5  12
ENDBRANCH   3   6
BRANCH   2  25
ATOM     25  C   UNL     1      33.146 -23.919 -16.800  0.00  0.00    +0.117 C 
BRANCH  25  26
ATOM     26  C   UNL     1      32.678 -23.584 -15.414  0.00  0.00    +0.003 C 
ATOM     27  C   UNL     1      33.360 -24.025 -14.283  0.00  0.00    +0.027 C 
ATOM     28  C   UNL     1      31.529 -22.810 -15.286  0.00  0.00    -0.002 C 
ATOM     29  C   UNL     1      32.887 -23.690 -13.015  0.00  0.00    +0.006 C 
ATOM     30  C   UNL     1      31.056 -22.474 -14.018  0.00  0.00    -0.000 C 
ATOM     31  C   UNL     1      31.735 -22.914 -12.882  0.00  0.00    +0.000 C 
BRANCH  27  32
ATOM     32  S   UNL     1      34.840 -25.021 -14.401  0.00  0.00    -0.087 S 
BRANCH  32  33
ATOM     33  C   UNL     1      35.857 -24.274 -13.137  0.00  0.00    +0.028 C 
ATOM     34  C   UNL     1      36.865 -23.360 -13.451  0.00  0.00    +0.013 C 
ATOM     35  C   UNL     1      35.626 -24.624 -11.806  0.00  0.00    +0.006 C 
ATOM     36  C   UNL     1      37.639 -22.798 -12.436  0.00  0.00    -0.001 C 
ATOM     37  C   UNL     1      36.401 -24.062 -10.791  0.00  0.00    +0.000 C 
ATOM     38  C   UNL     1      37.407 -23.149 -11.106  0.00  0.00    -0.000 C 
BRANCH  34  39
ATOM     39  C   UNL     1      37.152 -22.951 -14.860  0.00  0.00    +0.164 C 
BRANCH  39  40
ATOM     40  O   UNL     1      38.509 -23.247 -15.166  0.00  0.00    -0.377 OA
ATOM     41  H   UNL     1      38.621 -23.289 -16.128  0.00  0.00    +0.211 HD
ENDBRANCH  39  40
ENDBRANCH  34  39
ENDBRANCH  32  33
ENDBRANCH  27  32
ENDBRANCH  25  26
ENDBRANCH   2  25
TORSDOF 8
ENDMDL
MODEL 9
REMARK VINA RESULT:     -11.4      3.554     11.527
REMARK  Name = 448408
REMARK  8 active torsions:
REMARK  status: ('A' for Active; 'I' for Inactive)
REMARK    1  A    between atoms: N_2  and  C_25
REMARK    2  A    between atoms: C_3  and  C_6
REMARK    3  A    between atoms: C_5  and  N_12
REMARK    4  A    between atoms: C_25  and  C_26
REMARK    5  A    between atoms: C_27  and  S_32
REMARK    6  A    between atoms: S_32  and  C_33
REMARK    7  A    between atoms: C_34  and  C_39
REMARK    8  A    between atoms: C_39  and  O_40
REMARK                            x       y       z     vdW  Elec       q    Type
REMARK                         _______ _______ _______ _____ _____    ______ ____
ROOT
ATOM      1  O   UNL     1      37.194 -20.169 -20.004  0.00  0.00    -0.270 OA
ATOM      2  N   UNL     1      35.183 -19.189 -20.612  0.00  0.00    -0.297 N 
ATOM      3  C   UNL     1      35.957 -20.107 -19.893  0.00  0.00    +0.246 C 
ATOM      4  H   UNL     1      34.208 -19.196 -20.475  0.00  0.00    +0.150 HD
ENDROOT
BRANCH   3   6
ATOM      5  C   UNL     1      35.167 -22.325 -16.957  0.00  0.00    +0.090 C 
ATOM      6  C   UNL     1      35.248 -21.021 -19.011  0.00  0.00    +0.055 C 
ATOM      7  C   UNL     1      35.840 -21.441 -17.819  0.00  0.00    +0.023 C 
ATOM      8  C   UNL     1      33.888 -22.777 -17.322  0.00  0.00    +0.018 C 
ATOM      9  C   UNL     1      33.977 -21.480 -19.358  0.00  0.00    +0.005 C 
ATOM     10  C   UNL     1      33.297 -22.357 -18.514  0.00  0.00    +0.002 C 
BRANCH   5  12
ATOM     11  O   UNL     1      39.591 -24.121 -14.910  0.00  0.00    -0.207 OA
ATOM     12  N   UNL     1      35.756 -22.742 -15.769  0.00  0.00    -0.137 N 
ATOM     13  N   UNL     1      35.122 -23.446 -14.794  0.00  0.00    -0.215 N 
ATOM     14  N   UNL     1      37.127 -22.986 -15.760  0.00  0.00    -0.143 NA
ATOM     15  N   UNL     1      36.068 -24.992 -13.135  0.00  0.00    -0.309 NA
ATOM     16  N   UNL     1      38.458 -25.297 -13.263  0.00  0.00    -0.251 NA
ATOM     17  N   UNL     1      37.226 -26.420 -11.660  0.00  0.00    -0.283 N 
ATOM     18  C   UNL     1      36.046 -24.170 -14.116  0.00  0.00    +0.243 C 
ATOM     19  C   UNL     1      37.308 -23.827 -14.789  0.00  0.00    +0.241 C 
ATOM     20  C   UNL     1      38.563 -24.430 -14.325  0.00  0.00    +0.239 C 
ATOM     21  C   UNL     1      37.283 -25.546 -12.722  0.00  0.00    +0.208 C 
ATOM     22  H   UNL     1      34.154 -23.431 -14.612  0.00  0.00    +0.175 HD
ATOM     23  H   UNL     1      36.362 -26.625 -11.235  0.00  0.00    +0.156 HD
ATOM     24  H   UNL     1      38.051 -26.841 -11.325  0.00  0.00    +0.156 HD
ENDBRANCH   5  12
ENDBRANCH   3   6
BRANCH   2  25
ATOM     25  C   UNL     1      35.737 -18.234 -21.544  0.00  0.00    +0.117 C 
BRANCH  25  26
ATOM     26  C   UNL     1      34.890 -18.096 -22.776  0.00  0.00    +0.003 C 
ATOM     27  C   UNL     1      34.783 -16.889 -23.461  0.00  0.00    +0.027 C 
ATOM     28  C   UNL     1      34.202 -19.221 -23.220  0.00  0.00    -0.002 C 
ATOM     29  C   UNL     1      33.983 -16.808 -24.601  0.00  0.00    +0.006 C 
ATOM     30  C   UNL     1      33.402 -19.140 -24.360  0.00  0.00    -0.000 C 
ATOM     31  C   UNL     1      33.293 -17.934 -25.050  0.00  0.00    +0.000 C 
BRANCH  27  32
ATOM     32  S   UNL     1      35.648 -15.418 -22.926  0.00  0.00    -0.087 S 
BRANCH  32  33
ATOM     33  C   UNL     1      34.296 -14.436 -22.296  0.00  0.00    +0.028 C 
ATOM     34  C   UNL     1      34.086 -14.266 -20.926  0.00  0.00    +0.013 C 
ATOM     35  C   UNL     1      33.434 -13.829 -23.211  0.00  0.00    +0.006 C 
ATOM     36  C   UNL     1      33.019 -13.490 -20.473  0.00  0.00    -0.001 C 
ATOM     37  C   UNL     1      32.366 -13.055 -22.758  0.00  0.00    +0.000 C 
ATOM     38  C   UNL     1      32.158 -12.885 -21.389  0.00  0.00    -0.000 C 
BRANCH  34  39
ATOM     39  C   UNL     1      34.980 -14.894 -19.905  0.00  0.00    +0.164 C 
BRANCH  39  40
ATOM     40  O   UNL     1      34.504 -16.199 -19.606  0.00  0.00    -0.377 OA
ATOM     41  H   UNL     1      35.060 -16.856 -20.053  0.00  0.00    +0.211 HD
ENDBRANCH  39  40
ENDBRANCH  34  39
ENDBRANCH  32  33
ENDBRANCH  27  32
ENDBRANCH  25  26
ENDBRANCH   2  25
TORSDOF 8
ENDMDL
