MODEL 1
REMARK VINA RESULT:     -12.2      0.000      0.000
REMARK  Name = 11961293
REMARK  7 active torsions:
REMARK  status: ('A' for Active; 'I' for Inactive)
REMARK    1  A    between atoms: C_1  and  C_3
REMARK    2  A    between atoms: C_1  and  N_21
REMARK    3  A    between atoms: N_2  and  C_9
REMARK    4  A    between atoms: C_9  and  C_12
REMARK    5  A    between atoms: C_17  and  O_18
REMARK    6  A    between atoms: C_22  and  C_26
REMARK    7  A    between atoms: C_30  and  C_35
REMARK                            x       y       z     vdW  Elec       q    Type
REMARK                         _______ _______ _______ _____ _____    ______ ____
ROOT
ATOM      1  C   UNL     1      33.802 -14.517 -23.988  0.00  0.00    +0.089 C 
ENDROOT
BRANCH   1   3
ATOM      2  N   UNL     1      35.210 -17.714 -21.449  0.00  0.00    +0.387 N 
ATOM      3  C   UNL     1      34.762 -15.436 -23.240  0.00  0.00    +0.015 C 
ATOM      4  C   UNL     1      35.492 -17.833 -22.885  0.00  0.00    -0.077 C 
ATOM      5  C   UNL     1      35.433 -16.341 -20.976  0.00  0.00    -0.077 C 
ATOM      6  C   UNL     1      34.604 -16.890 -23.701  0.00  0.00    -0.021 C 
ATOM      7  C   UNL     1      34.543 -15.348 -21.726  0.00  0.00    -0.021 C 
ATOM      8  H   UNL     1      34.227 -17.941 -21.300  0.00  0.00    -0.080 HD
BRANCH   2   9
ATOM      9  C   UNL     1      36.029 -18.657 -20.686  0.00  0.00    -0.077 C 
BRANCH   9  12
ATOM     10  O   UNL     1      32.009 -22.232 -17.542  0.00  0.00    -0.226 OA
ATOM     11  N   UNL     1      33.850 -21.921 -18.926  0.00  0.00    -0.246 N 
ATOM     12  C   UNL     1      35.309 -19.993 -20.521  0.00  0.00    -0.017 C 
ATOM     13  C   UNL     1      33.837 -19.777 -20.138  0.00  0.00    +0.020 C 
ATOM     14  C   UNL     1      36.010 -20.864 -19.466  0.00  0.00    +0.020 C 
ATOM     15  C   UNL     1      33.126 -21.107 -19.902  0.00  0.00    +0.097 C 
ATOM     16  C   UNL     1      35.260 -22.175 -19.242  0.00  0.00    +0.097 C 
ATOM     17  C   UNL     1      33.191 -22.442 -17.809  0.00  0.00    +0.405 C 
BRANCH  17  18
ATOM     18  O   UNL     1      34.005 -23.224 -17.033  0.00  0.00    -0.430 OA
ATOM     19  C   UNL     1      33.622 -23.365 -15.659  0.00  0.00    +0.257 C 
ENDBRANCH  17  18
ENDBRANCH   9  12
ENDBRANCH   2   9
ENDBRANCH   1   3
BRANCH   1  21
ATOM     20  O   UNL     1      34.302 -11.709 -23.656  0.00  0.00    -0.270 OA
ATOM     21  N   UNL     1      33.122 -13.616 -23.070  0.00  0.00    -0.301 N 
ATOM     22  C   UNL     1      33.440 -12.275 -22.988  0.00  0.00    +0.247 C 
ATOM     23  H   UNL     1      32.413 -13.974 -22.488  0.00  0.00    +0.150 HD
BRANCH  22  26
ATOM     24  N   UNL     1      31.606  -8.064 -21.650  0.00  0.00    -0.318 N 
ATOM     25  N   UNL     1      32.755  -9.246 -23.140  0.00  0.00    -0.318 N 
ATOM     26  C   UNL     1      32.674 -11.495 -21.983  0.00  0.00    +0.068 C 
ATOM     27  C   UNL     1      32.420 -10.132 -22.150  0.00  0.00    +0.063 C 
ATOM     28  C   UNL     1      32.168 -12.092 -20.824  0.00  0.00    +0.006 C 
ATOM     29  C   UNL     1      31.702  -9.371 -21.231  0.00  0.00    +0.059 C 
ATOM     30  C   UNL     1      32.247  -8.024 -22.796  0.00  0.00    +0.144 C 
ATOM     31  C   UNL     1      31.444 -11.354 -19.884  0.00  0.00    +0.001 C 
ATOM     32  C   UNL     1      31.202  -9.987 -20.072  0.00  0.00    +0.016 C 
ATOM     33  H   UNL     1      31.154  -7.319 -21.191  0.00  0.00    +0.148 HD
ATOM     34  H   UNL     1      33.271  -9.453 -23.954  0.00  0.00    +0.148 HD
BRANCH  30  35
ATOM     35  C   UNL     1      32.377  -6.785 -23.584  0.00  0.00    +0.037 C 
ATOM     36  C   UNL     1      31.090  -5.925 -23.586  0.00  0.00    +0.003 C 
ATOM     37  C   UNL     1      33.576  -5.907 -23.151  0.00  0.00    +0.003 C 
ENDBRANCH  30  35
ENDBRANCH  22  26
ENDBRANCH   1  21
TORSDOF 7
ENDMDL
MODEL 2
REMARK VINA RESULT:     -11.5      1.539      2.571
REMARK  Name = 11961293
REMARK  7 active torsions:
REMARK  status: ('A' for Active; 'I' for Inactive)
REMARK    1  A    between atoms: C_1  and  C_3
REMARK    2  A    between atoms: C_1  and  N_21
REMARK    3  A    between atoms: N_2  and  C_9
REMARK    4  A    between atoms: C_9  and  C_12
REMARK    5  A    between atoms: C_17  and  O_18
REMARK    6  A    between atoms: C_22  and  C_26
REMARK    7  A    between atoms: C_30  and  C_35
REMARK                            x       y       z     vdW  Elec       q    Type
REMARK                         _______ _______ _______ _____ _____    ______ ____
ROOT
ATOM      1  C   UNL     1      33.708 -15.433 -24.897  0.00  0.00    +0.089 C 
ENDROOT
BRANCH   1   3
ATOM      2  N   UNL     1      35.054 -17.966 -21.668  0.00  0.00    +0.387 N 
ATOM      3  C   UNL     1      34.638 -16.268 -24.021  0.00  0.00    +0.015 C 
ATOM      4  C   UNL     1      35.048 -18.552 -23.014  0.00  0.00    -0.077 C 
ATOM      5  C   UNL     1      35.565 -16.588 -21.691  0.00  0.00    -0.077 C 
ATOM      6  C   UNL     1      34.180 -17.729 -23.970  0.00  0.00    -0.021 C 
ATOM      7  C   UNL     1      34.714 -15.699 -22.601  0.00  0.00    -0.021 C 
ATOM      8  H   UNL     1      34.091 -17.938 -21.331  0.00  0.00    -0.080 HD
BRANCH   2   9
ATOM      9  C   UNL     1      35.846 -18.790 -20.754  0.00  0.00    -0.077 C 
BRANCH   9  12
ATOM     10  O   UNL     1      32.048 -22.367 -17.346  0.00  0.00    -0.226 OA
ATOM     11  N   UNL     1      33.829 -22.051 -18.805  0.00  0.00    -0.246 N 
ATOM     12  C   UNL     1      35.173 -20.140 -20.517  0.00  0.00    -0.017 C 
ATOM     13  C   UNL     1      33.709 -19.953 -20.089  0.00  0.00    +0.020 C 
ATOM     14  C   UNL     1      35.936 -20.951 -19.458  0.00  0.00    +0.020 C 
ATOM     15  C   UNL     1      33.048 -21.294 -19.782  0.00  0.00    +0.097 C 
ATOM     16  C   UNL     1      35.234 -22.275 -19.162  0.00  0.00    +0.097 C 
ATOM     17  C   UNL     1      33.225 -22.551 -17.648  0.00  0.00    +0.405 C 
BRANCH  17  18
ATOM     18  O   UNL     1      34.090 -23.281 -16.875  0.00  0.00    -0.430 OA
ATOM     19  C   UNL     1      33.778 -23.355 -15.478  0.00  0.00    +0.257 C 
ENDBRANCH  17  18
ENDBRANCH   9  12
ENDBRANCH   2   9
ENDBRANCH   1   3
BRANCH   1  21
ATOM     20  O   UNL     1      32.337 -13.453 -23.333  0.00  0.00    -0.270 OA
ATOM     21  N   UNL     1      34.037 -14.018 -24.804  0.00  0.00    -0.301 N 
ATOM     22  C   UNL     1      33.310 -13.146 -24.018  0.00  0.00    +0.247 C 
ATOM     23  H   UNL     1      34.803 -13.672 -25.318  0.00  0.00    +0.150 HD
BRANCH  22  26
ATOM     24  N   UNL     1      33.103  -8.774 -22.087  0.00  0.00    -0.318 N 
ATOM     25  N   UNL     1      32.442 -10.896 -22.056  0.00  0.00    -0.318 N 
ATOM     26  C   UNL     1      33.757 -11.730 -24.051  0.00  0.00    +0.068 C 
ATOM     27  C   UNL     1      33.304 -10.796 -23.117  0.00  0.00    +0.063 C 
ATOM     28  C   UNL     1      34.654 -11.268 -25.019  0.00  0.00    +0.006 C 
ATOM     29  C   UNL     1      33.704  -9.463 -23.115  0.00  0.00    +0.059 C 
ATOM     30  C   UNL     1      32.354  -9.663 -21.473  0.00  0.00    +0.144 C 
ATOM     31  C   UNL     1      35.073  -9.935 -25.043  0.00  0.00    +0.001 C 
ATOM     32  C   UNL     1      34.606  -9.016 -24.095  0.00  0.00    +0.016 C 
ATOM     33  H   UNL     1      33.210  -7.822 -21.860  0.00  0.00    +0.148 HD
ATOM     34  H   UNL     1      31.970 -11.711 -21.766  0.00  0.00    +0.148 HD
BRANCH  30  35
ATOM     35  C   UNL     1      31.534  -9.324 -20.296  0.00  0.00    +0.037 C 
ATOM     36  C   UNL     1      31.542 -10.425 -19.207  0.00  0.00    +0.003 C 
ATOM     37  C   UNL     1      31.919  -7.969 -19.652  0.00  0.00    +0.003 C 
ENDBRANCH  30  35
ENDBRANCH  22  26
ENDBRANCH   1  21
TORSDOF 7
ENDMDL
MODEL 3
REMARK VINA RESULT:     -11.5      2.507      5.539
REMARK  Name = 11961293
REMARK  7 active torsions:
REMARK  status: ('A' for Active; 'I' for Inactive)
REMARK    1  A    between atoms: C_1  and  C_3
REMARK    2  A    between atoms: C_1  and  N_21
REMARK    3  A    between atoms: N_2  and  C_9
REMARK    4  A    between atoms: C_9  and  C_12
REMARK    5  A    between atoms: C_17  and  O_18
REMARK    6  A    between atoms: C_22  and  C_26
REMARK    7  A    between atoms: C_30  and  C_35
REMARK                            x       y       z     vdW  Elec       q    Type
REMARK                         _______ _______ _______ _____ _____    ______ ____
ROOT
ATOM      1  C   UNL     1      36.524 -18.621 -20.931  0.00  0.00    +0.089 C 
ENDROOT
BRANCH   1   3
ATOM      2  N   UNL     1      34.214 -21.488 -18.673  0.00  0.00    +0.387 N 
ATOM      3  C   UNL     1      35.748 -19.891 -20.594  0.00  0.00    +0.015 C 
ATOM      4  C   UNL     1      33.537 -20.824 -19.794  0.00  0.00    -0.077 C 
ATOM      5  C   UNL     1      35.585 -21.874 -19.035  0.00  0.00    -0.077 C 
ATOM      6  C   UNL     1      34.295 -19.567 -20.229  0.00  0.00    -0.021 C 
ATOM      7  C   UNL     1      36.412 -20.653 -19.443  0.00  0.00    -0.021 C 
ATOM      8  H   UNL     1      34.269 -20.825 -17.900  0.00  0.00    -0.080 HD
BRANCH   2   9
ATOM      9  C   UNL     1      33.452 -22.658 -18.234  0.00  0.00    -0.077 C 
BRANCH   9  12
ATOM     10  O   UNL     1      32.097 -25.278 -12.745  0.00  0.00    -0.226 OA
ATOM     11  N   UNL     1      31.911 -23.585 -14.327  0.00  0.00    -0.246 N 
ATOM     12  C   UNL     1      33.017 -22.509 -16.779  0.00  0.00    -0.017 C 
ATOM     13  C   UNL     1      33.828 -23.442 -15.867  0.00  0.00    +0.020 C 
ATOM     14  C   UNL     1      31.514 -22.793 -16.627  0.00  0.00    +0.020 C 
ATOM     15  C   UNL     1      33.352 -23.352 -14.420  0.00  0.00    +0.097 C 
ATOM     16  C   UNL     1      31.079 -22.715 -15.165  0.00  0.00    +0.097 C 
ATOM     17  C   UNL     1      31.403 -24.547 -13.450  0.00  0.00    +0.405 C 
BRANCH  17  18
ATOM     18  O   UNL     1      30.034 -24.593 -13.452  0.00  0.00    -0.430 OA
ATOM     19  C   UNL     1      29.439 -25.662 -14.199  0.00  0.00    +0.257 C 
ENDBRANCH  17  18
ENDBRANCH   9  12
ENDBRANCH   2   9
ENDBRANCH   1   3
BRANCH   1  21
ATOM     20  O   UNL     1      35.296 -16.036 -20.697  0.00  0.00    -0.270 OA
ATOM     21  N   UNL     1      35.865 -17.873 -21.990  0.00  0.00    -0.301 N 
ATOM     22  C   UNL     1      35.303 -16.631 -21.772  0.00  0.00    +0.247 C 
ATOM     23  H   UNL     1      35.818 -18.266 -22.893  0.00  0.00    +0.150 HD
BRANCH  22  26
ATOM     24  N   UNL     1      32.880 -12.927 -23.587  0.00  0.00    -0.318 N 
ATOM     25  N   UNL     1      33.866 -13.875 -21.836  0.00  0.00    -0.318 N 
ATOM     26  C   UNL     1      34.645 -16.010 -22.949  0.00  0.00    +0.068 C 
ATOM     27  C   UNL     1      34.026 -14.761 -22.869  0.00  0.00    +0.063 C 
ATOM     28  C   UNL     1      34.617 -16.647 -24.194  0.00  0.00    +0.006 C 
ATOM     29  C   UNL     1      33.403 -14.146 -23.952  0.00  0.00    +0.059 C 
ATOM     30  C   UNL     1      33.175 -12.796 -22.313  0.00  0.00    +0.144 C 
ATOM     31  C   UNL     1      33.999 -16.056 -25.298  0.00  0.00    +0.001 C 
ATOM     32  C   UNL     1      33.384 -14.802 -25.195  0.00  0.00    +0.016 C 
ATOM     33  H   UNL     1      32.390 -12.290 -24.157  0.00  0.00    +0.148 HD
ATOM     34  H   UNL     1      34.190 -13.995 -20.913  0.00  0.00    +0.148 HD
BRANCH  30  35
ATOM     35  C   UNL     1      32.789 -11.607 -21.533  0.00  0.00    +0.037 C 
ATOM     36  C   UNL     1      32.612 -10.337 -22.401  0.00  0.00    +0.003 C 
ATOM     37  C   UNL     1      31.514 -11.823 -20.681  0.00  0.00    +0.003 C 
ENDBRANCH  30  35
ENDBRANCH  22  26
ENDBRANCH   1  21
TORSDOF 7
ENDMDL
MODEL 4
REMARK VINA RESULT:     -11.4      3.031     12.466
REMARK  Name = 11961293
REMARK  7 active torsions:
REMARK  status: ('A' for Active; 'I' for Inactive)
REMARK    1  A    between atoms: C_1  and  C_3
REMARK    2  A    between atoms: C_1  and  N_21
REMARK    3  A    between atoms: N_2  and  C_9
REMARK    4  A    between atoms: C_9  and  C_12
REMARK    5  A    between atoms: C_17  and  O_18
REMARK    6  A    between atoms: C_22  and  C_26
REMARK    7  A    between atoms: C_30  and  C_35
REMARK                            x       y       z     vdW  Elec       q    Type
REMARK                         _______ _______ _______ _____ _____    ______ ____
ROOT
ATOM      1  C   UNL     1      34.806 -22.030 -19.202  0.00  0.00    +0.089 C 
ENDROOT
BRANCH   1   3
ATOM      2  N   UNL     1      35.930 -18.575 -21.537  0.00  0.00    +0.387 N 
ATOM      3  C   UNL     1      35.103 -20.577 -19.561  0.00  0.00    +0.015 C 
ATOM      4  C   UNL     1      34.528 -18.660 -21.109  0.00  0.00    -0.077 C 
ATOM      5  C   UNL     1      36.840 -18.972 -20.454  0.00  0.00    -0.077 C 
ATOM      6  C   UNL     1      34.170 -20.083 -20.673  0.00  0.00    -0.021 C 
ATOM      7  C   UNL     1      36.562 -20.405 -19.997  0.00  0.00    -0.021 C 
ATOM      8  H   UNL     1      36.063 -19.224 -22.313  0.00  0.00    -0.080 HD
BRANCH   2   9
ATOM      9  C   UNL     1      36.243 -17.222 -21.999  0.00  0.00    -0.077 C 
BRANCH   9  12
ATOM     10  O   UNL     1      33.516 -13.200 -25.900  0.00  0.00    -0.226 OA
ATOM     11  N   UNL     1      33.659 -14.345 -23.882  0.00  0.00    -0.246 N 
ATOM     12  C   UNL     1      34.984 -16.506 -22.479  0.00  0.00    -0.017 C 
ATOM     13  C   UNL     1      34.942 -16.444 -24.014  0.00  0.00    +0.020 C 
ATOM     14  C   UNL     1      34.902 -15.089 -21.888  0.00  0.00    +0.020 C 
ATOM     15  C   UNL     1      33.721 -15.668 -24.502  0.00  0.00    +0.097 C 
ATOM     16  C   UNL     1      33.682 -14.337 -22.415  0.00  0.00    +0.097 C 
ATOM     17  C   UNL     1      33.537 -13.198 -24.670  0.00  0.00    +0.405 C 
BRANCH  17  18
ATOM     18  O   UNL     1      33.437 -12.053 -23.924  0.00  0.00    -0.430 OA
ATOM     19  C   UNL     1      34.192 -10.928 -24.391  0.00  0.00    +0.257 C 
ENDBRANCH  17  18
ENDBRANCH   9  12
ENDBRANCH   2   9
ENDBRANCH   1   3
BRANCH   1  21
ATOM     20  O   UNL     1      33.579 -24.375 -18.089  0.00  0.00    -0.270 OA
ATOM     21  N   UNL     1      34.078 -22.116 -17.945  0.00  0.00    -0.301 N 
ATOM     22  C   UNL     1      33.524 -23.299 -17.498  0.00  0.00    +0.247 C 
ATOM     23  H   UNL     1      33.978 -21.305 -17.395  0.00  0.00    +0.150 HD
BRANCH  22  26
ATOM     24  N   UNL     1      33.638 -23.648 -12.728  0.00  0.00    -0.318 N 
ATOM     25  N   UNL     1      34.718 -23.773 -14.666  0.00  0.00    -0.318 N 
ATOM     26  C   UNL     1      32.790 -23.216 -16.209  0.00  0.00    +0.068 C 
ATOM     27  C   UNL     1      33.426 -23.447 -14.987  0.00  0.00    +0.063 C 
ATOM     28  C   UNL     1      31.429 -22.899 -16.160  0.00  0.00    +0.006 C 
ATOM     29  C   UNL     1      32.772 -23.374 -13.761  0.00  0.00    +0.059 C 
ATOM     30  C   UNL     1      34.795 -23.882 -13.306  0.00  0.00    +0.144 C 
ATOM     31  C   UNL     1      30.746 -22.819 -14.944  0.00  0.00    +0.001 C 
ATOM     32  C   UNL     1      31.404 -23.055 -13.731  0.00  0.00    +0.016 C 
ATOM     33  H   UNL     1      33.437 -23.665 -11.765  0.00  0.00    +0.148 HD
ATOM     34  H   UNL     1      35.458 -23.904 -15.303  0.00  0.00    +0.148 HD
BRANCH  30  35
ATOM     35  C   UNL     1      36.007 -24.218 -12.537  0.00  0.00    +0.037 C 
ATOM     36  C   UNL     1      37.085 -23.107 -12.580  0.00  0.00    +0.003 C 
ATOM     37  C   UNL     1      35.713 -24.585 -11.062  0.00  0.00    +0.003 C 
ENDBRANCH  30  35
ENDBRANCH  22  26
ENDBRANCH   1  21
TORSDOF 7
ENDMDL
MODEL 5
REMARK VINA RESULT:     -11.3      2.786      4.830
REMARK  Name = 11961293
REMARK  7 active torsions:
REMARK  status: ('A' for Active; 'I' for Inactive)
REMARK    1  A    between atoms: C_1  and  C_3
REMARK    2  A    between atoms: C_1  and  N_21
REMARK    3  A    between atoms: N_2  and  C_9
REMARK    4  A    between atoms: C_9  and  C_12
REMARK    5  A    between atoms: C_17  and  O_18
REMARK    6  A    between atoms: C_22  and  C_26
REMARK    7  A    between atoms: C_30  and  C_35
REMARK                            x       y       z     vdW  Elec       q    Type
REMARK                         _______ _______ _______ _____ _____    ______ ____
ROOT
ATOM      1  C   UNL     1      36.142 -18.188 -21.280  0.00  0.00    +0.089 C 
ENDROOT
BRANCH   1   3
ATOM      2  N   UNL     1      34.402 -21.318 -18.865  0.00  0.00    +0.387 N 
ATOM      3  C   UNL     1      35.541 -19.538 -20.897  0.00  0.00    +0.015 C 
ATOM      4  C   UNL     1      33.540 -20.709 -19.885  0.00  0.00    -0.077 C 
ATOM      5  C   UNL     1      35.756 -21.554 -19.386  0.00  0.00    -0.077 C 
ATOM      6  C   UNL     1      34.113 -19.373 -20.365  0.00  0.00    -0.021 C 
ATOM      7  C   UNL     1      36.404 -20.247 -19.848  0.00  0.00    -0.021 C 
ATOM      8  H   UNL     1      34.476 -20.666 -18.084  0.00  0.00    -0.080 HD
BRANCH   2   9
ATOM      9  C   UNL     1      33.817 -22.568 -18.379  0.00  0.00    -0.077 C 
BRANCH   9  12
ATOM     10  O   UNL     1      32.403 -25.161 -12.892  0.00  0.00    -0.226 OA
ATOM     11  N   UNL     1      32.192 -23.504 -14.508  0.00  0.00    -0.246 N 
ATOM     12  C   UNL     1      33.327 -22.416 -16.941  0.00  0.00    -0.017 C 
ATOM     13  C   UNL     1      34.150 -23.297 -15.987  0.00  0.00    +0.020 C 
ATOM     14  C   UNL     1      31.835 -22.768 -16.832  0.00  0.00    +0.020 C 
ATOM     15  C   UNL     1      33.623 -23.207 -14.558  0.00  0.00    +0.097 C 
ATOM     16  C   UNL     1      31.349 -22.686 -15.386  0.00  0.00    +0.097 C 
ATOM     17  C   UNL     1      31.700 -24.475 -13.631  0.00  0.00    +0.405 C 
BRANCH  17  18
ATOM     18  O   UNL     1      30.335 -24.583 -13.676  0.00  0.00    -0.430 OA
ATOM     19  C   UNL     1      29.813 -25.657 -14.468  0.00  0.00    +0.257 C 
ENDBRANCH  17  18
ENDBRANCH   9  12
ENDBRANCH   2   9
ENDBRANCH   1   3
BRANCH   1  21
ATOM     20  O   UNL     1      35.754 -15.777 -22.788  0.00  0.00    -0.270 OA
ATOM     21  N   UNL     1      35.228 -17.103 -20.961  0.00  0.00    -0.301 N 
ATOM     22  C   UNL     1      35.116 -15.980 -21.758  0.00  0.00    +0.247 C 
ATOM     23  H   UNL     1      34.670 -17.170 -20.152  0.00  0.00    +0.150 HD
BRANCH  22  26
ATOM     24  N   UNL     1      32.779 -11.897 -22.624  0.00  0.00    -0.318 N 
ATOM     25  N   UNL     1      34.216 -13.445 -23.317  0.00  0.00    -0.318 N 
ATOM     26  C   UNL     1      34.158 -14.950 -21.283  0.00  0.00    +0.068 C 
ATOM     27  C   UNL     1      33.819 -13.845 -22.067  0.00  0.00    +0.063 C 
ATOM     28  C   UNL     1      33.547 -15.042 -20.028  0.00  0.00    +0.006 C 
ATOM     29  C   UNL     1      32.922 -12.863 -21.656  0.00  0.00    +0.059 C 
ATOM     30  C   UNL     1      33.568 -12.277 -23.605  0.00  0.00    +0.144 C 
ATOM     31  C   UNL     1      32.643 -14.072 -19.589  0.00  0.00    +0.001 C 
ATOM     32  C   UNL     1      32.319 -12.972 -20.392  0.00  0.00    +0.016 C 
ATOM     33  H   UNL     1      32.210 -11.094 -22.591  0.00  0.00    +0.148 HD
ATOM     34  H   UNL     1      34.853 -13.916 -23.902  0.00  0.00    +0.148 HD
BRANCH  30  35
ATOM     35  C   UNL     1      33.704 -11.502 -24.852  0.00  0.00    +0.037 C 
ATOM     36  C   UNL     1      34.925 -10.550 -24.850  0.00  0.00    +0.003 C 
ATOM     37  C   UNL     1      33.752 -12.389 -26.121  0.00  0.00    +0.003 C 
ENDBRANCH  30  35
ENDBRANCH  22  26
ENDBRANCH   1  21
TORSDOF 7
ENDMDL
MODEL 6
REMARK VINA RESULT:     -11.3      2.607      4.359
REMARK  Name = 11961293
REMARK  7 active torsions:
REMARK  status: ('A' for Active; 'I' for Inactive)
REMARK    1  A    between atoms: C_1  and  C_3
REMARK    2  A    between atoms: C_1  and  N_21
REMARK    3  A    between atoms: N_2  and  C_9
REMARK    4  A    between atoms: C_9  and  C_12
REMARK    5  A    between atoms: C_17  and  O_18
REMARK    6  A    between atoms: C_22  and  C_26
REMARK    7  A    between atoms: C_30  and  C_35
REMARK                            x       y       z     vdW  Elec       q    Type
REMARK                         _______ _______ _______ _____ _____    ______ ____
ROOT
ATOM      1  C   UNL     1      36.102 -17.587 -21.912  0.00  0.00    +0.089 C 
ENDROOT
BRANCH   1   3
ATOM      2  N   UNL     1      35.120 -20.715 -19.100  0.00  0.00    +0.387 N 
ATOM      3  C   UNL     1      35.796 -18.978 -21.363  0.00  0.00    +0.015 C 
ATOM      4  C   UNL     1      34.111 -20.394 -20.117  0.00  0.00    -0.077 C 
ATOM      5  C   UNL     1      36.469 -20.742 -19.682  0.00  0.00    -0.077 C 
ATOM      6  C   UNL     1      34.388 -19.033 -20.759  0.00  0.00    -0.021 C 
ATOM      7  C   UNL     1      36.827 -19.392 -20.308  0.00  0.00    -0.021 C 
ATOM      8  H   UNL     1      35.099 -19.981 -18.391  0.00  0.00    -0.080 HD
BRANCH   2   9
ATOM      9  C   UNL     1      34.814 -21.994 -18.459  0.00  0.00    -0.077 C 
BRANCH   9  12
ATOM     10  O   UNL     1      38.611 -24.215 -14.046  0.00  0.00    -0.226 OA
ATOM     11  N   UNL     1      36.625 -23.246 -14.764  0.00  0.00    -0.246 N 
ATOM     12  C   UNL     1      35.277 -21.999 -17.004  0.00  0.00    -0.017 C 
ATOM     13  C   UNL     1      36.809 -22.068 -16.919  0.00  0.00    +0.020 C 
ATOM     14  C   UNL     1      34.649 -23.173 -16.236  0.00  0.00    +0.020 C 
ATOM     15  C   UNL     1      37.279 -22.145 -15.469  0.00  0.00    +0.097 C 
ATOM     16  C   UNL     1      35.158 -23.229 -14.797  0.00  0.00    +0.097 C 
ATOM     17  C   UNL     1      37.382 -24.198 -14.077  0.00  0.00    +0.405 C 
BRANCH  17  18
ATOM     18  O   UNL     1      36.606 -25.123 -13.430  0.00  0.00    -0.430 OA
ATOM     19  C   UNL     1      37.257 -25.890 -12.408  0.00  0.00    +0.257 C 
ENDBRANCH  17  18
ENDBRANCH   9  12
ENDBRANCH   2   9
ENDBRANCH   1   3
BRANCH   1  21
ATOM     20  O   UNL     1      35.535 -15.013 -23.050  0.00  0.00    -0.270 OA
ATOM     21  N   UNL     1      35.147 -16.609 -21.414  0.00  0.00    -0.301 N 
ATOM     22  C   UNL     1      34.949 -15.394 -22.039  0.00  0.00    +0.247 C 
ATOM     23  H   UNL     1      34.626 -16.821 -20.606  0.00  0.00    +0.150 HD
BRANCH  22  26
ATOM     24  N   UNL     1      32.646 -11.201 -22.060  0.00  0.00    -0.318 N 
ATOM     25  N   UNL     1      34.128 -12.556 -23.010  0.00  0.00    -0.318 N 
ATOM     26  C   UNL     1      33.958 -14.496 -21.393  0.00  0.00    +0.068 C 
ATOM     27  C   UNL     1      33.661 -13.235 -21.915  0.00  0.00    +0.063 C 
ATOM     28  C   UNL     1      33.275 -14.874 -20.233  0.00  0.00    +0.006 C 
ATOM     29  C   UNL     1      32.736 -12.369 -21.338  0.00  0.00    +0.059 C 
ATOM     30  C   UNL     1      33.493 -11.347 -23.055  0.00  0.00    +0.144 C 
ATOM     31  C   UNL     1      32.342 -14.025 -19.632  0.00  0.00    +0.001 C 
ATOM     32  C   UNL     1      32.060 -12.765 -20.173  0.00  0.00    +0.016 C 
ATOM     33  H   UNL     1      32.071 -10.424 -21.873  0.00  0.00    +0.148 HD
ATOM     34  H   UNL     1      34.802 -12.883 -23.651  0.00  0.00    +0.148 HD
BRANCH  30  35
ATOM     35  C   UNL     1      33.698 -10.304 -24.075  0.00  0.00    +0.037 C 
ATOM     36  C   UNL     1      33.654  -8.868 -23.498  0.00  0.00    +0.003 C 
ATOM     37  C   UNL     1      35.006 -10.487 -24.883  0.00  0.00    +0.003 C 
ENDBRANCH  30  35
ENDBRANCH  22  26
ENDBRANCH   1  21
TORSDOF 7
ENDMDL
MODEL 7
REMARK VINA RESULT:     -11.1      1.468      2.341
REMARK  Name = 11961293
REMARK  7 active torsions:
REMARK  status: ('A' for Active; 'I' for Inactive)
REMARK    1  A    between atoms: C_1  and  C_3
REMARK    2  A    between atoms: C_1  and  N_21
REMARK    3  A    between atoms: N_2  and  C_9
REMARK    4  A    between atoms: C_9  and  C_12
REMARK    5  A    between atoms: C_17  and  O_18
REMARK    6  A    between atoms: C_22  and  C_26
REMARK    7  A    between atoms: C_30  and  C_35
REMARK                            x       y       z     vdW  Elec       q    Type
REMARK                         _______ _______ _______ _____ _____    ______ ____
ROOT
ATOM      1  C   UNL     1      33.436 -13.011 -24.003  0.00  0.00    +0.089 C 
ENDROOT
BRANCH   1   3
ATOM      2  N   UNL     1      35.414 -16.823 -23.542  0.00  0.00    +0.387 N 
ATOM      3  C   UNL     1      33.652 -14.482 -23.661  0.00  0.00    +0.015 C 
ATOM      4  C   UNL     1      35.027 -16.121 -22.311  0.00  0.00    -0.077 C 
ATOM      5  C   UNL     1      34.352 -16.742 -24.554  0.00  0.00    -0.077 C 
ATOM      6  C   UNL     1      34.734 -14.645 -22.587  0.00  0.00    -0.021 C 
ATOM      7  C   UNL     1      34.037 -15.286 -24.907  0.00  0.00    -0.021 C 
ATOM      8  H   UNL     1      36.243 -16.365 -23.919  0.00  0.00    -0.080 HD
BRANCH   2   9
ATOM      9  C   UNL     1      35.740 -18.220 -23.254  0.00  0.00    -0.077 C 
BRANCH   9  12
ATOM     10  O   UNL     1      36.481 -22.021 -18.372  0.00  0.00    -0.226 OA
ATOM     11  N   UNL     1      35.300 -20.436 -19.594  0.00  0.00    -0.246 N 
ATOM     12  C   UNL     1      35.444 -18.558 -21.795  0.00  0.00    -0.017 C 
ATOM     13  C   UNL     1      36.707 -19.073 -21.086  0.00  0.00    +0.020 C 
ATOM     14  C   UNL     1      34.318 -19.599 -21.694  0.00  0.00    +0.020 C 
ATOM     15  C   UNL     1      36.405 -19.480 -19.647  0.00  0.00    +0.097 C 
ATOM     16  C   UNL     1      34.059 -19.998 -20.242  0.00  0.00    +0.097 C 
ATOM     17  C   UNL     1      35.444 -21.650 -18.918  0.00  0.00    +0.405 C 
BRANCH  17  18
ATOM     18  O   UNL     1      34.295 -22.396 -18.922  0.00  0.00    -0.430 OA
ATOM     19  C   UNL     1      33.730 -22.693 -17.639  0.00  0.00    +0.257 C 
ENDBRANCH  17  18
ENDBRANCH   9  12
ENDBRANCH   2   9
ENDBRANCH   1   3
BRANCH   1  21
ATOM     20  O   UNL     1      33.190 -10.160 -23.767  0.00  0.00    -0.270 OA
ATOM     21  N   UNL     1      32.952 -12.274 -22.846  0.00  0.00    -0.301 N 
ATOM     22  C   UNL     1      32.873 -10.895 -22.835  0.00  0.00    +0.247 C 
ATOM     23  H   UNL     1      32.672 -12.774 -22.045  0.00  0.00    +0.150 HD
BRANCH  22  26
ATOM     24  N   UNL     1      32.059  -6.942 -20.267  0.00  0.00    -0.318 N 
ATOM     25  N   UNL     1      32.793  -7.863 -22.151  0.00  0.00    -0.318 N 
ATOM     26  C   UNL     1      32.382 -10.292 -21.570  0.00  0.00    +0.068 C 
ATOM     27  C   UNL     1      32.390  -8.911 -21.364  0.00  0.00    +0.063 C 
ATOM     28  C   UNL     1      31.888 -11.080 -20.526  0.00  0.00    +0.006 C 
ATOM     29  C   UNL     1      31.935  -8.310 -20.194  0.00  0.00    +0.059 C 
ATOM     30  C   UNL     1      32.577  -6.709 -21.452  0.00  0.00    +0.144 C 
ATOM     31  C   UNL     1      31.425 -10.506 -19.339  0.00  0.00    +0.001 C 
ATOM     32  C   UNL     1      31.442  -9.118 -19.156  0.00  0.00    +0.016 C 
ATOM     33  H   UNL     1      31.814  -6.280 -19.580  0.00  0.00    +0.148 HD
ATOM     34  H   UNL     1      33.172  -7.931 -23.058  0.00  0.00    +0.148 HD
BRANCH  30  35
ATOM     35  C   UNL     1      32.870  -5.345 -21.930  0.00  0.00    +0.037 C 
ATOM     36  C   UNL     1      32.963  -5.244 -23.472  0.00  0.00    +0.003 C 
ATOM     37  C   UNL     1      31.867  -4.286 -21.410  0.00  0.00    +0.003 C 
ENDBRANCH  30  35
ENDBRANCH  22  26
ENDBRANCH   1  21
TORSDOF 7
ENDMDL
MODEL 8
REMARK VINA RESULT:     -11.0      2.199     11.986
REMARK  Name = 11961293
REMARK  7 active torsions:
REMARK  status: ('A' for Active; 'I' for Inactive)
REMARK    1  A    between atoms: C_1  and  C_3
REMARK    2  A    between atoms: C_1  and  N_21
REMARK    3  A    between atoms: N_2  and  C_9
REMARK    4  A    between atoms: C_9  and  C_12
REMARK    5  A    between atoms: C_17  and  O_18
REMARK    6  A    between atoms: C_22  and  C_26
REMARK    7  A    between atoms: C_30  and  C_35
REMARK                            x       y       z     vdW  Elec       q    Type
REMARK                         _______ _______ _______ _____ _____    ______ ____
ROOT
ATOM      1  C   UNL     1      34.646 -20.414 -21.069  0.00  0.00    +0.089 C 
ENDROOT
BRANCH   1   3
ATOM      2  N   UNL     1      34.722 -16.247 -22.204  0.00  0.00    +0.387 N 
ATOM      3  C   UNL     1      35.186 -19.061 -21.522  0.00  0.00    +0.015 C 
ATOM      4  C   UNL     1      35.388 -16.606 -20.946  0.00  0.00    -0.077 C 
ATOM      5  C   UNL     1      35.012 -17.230 -23.257  0.00  0.00    -0.077 C 
ATOM      6  C   UNL     1      34.940 -17.986 -20.458  0.00  0.00    -0.021 C 
ATOM      7  C   UNL     1      34.550 -18.630 -22.848  0.00  0.00    -0.021 C 
ATOM      8  H   UNL     1      33.715 -16.252 -22.040  0.00  0.00    -0.080 HD
BRANCH   2   9
ATOM      9  C   UNL     1      35.121 -14.906 -22.631  0.00  0.00    -0.077 C 
BRANCH   9  12
ATOM     10  O   UNL     1      32.609  -9.239 -21.995  0.00  0.00    -0.226 OA
ATOM     11  N   UNL     1      32.480 -11.559 -22.063  0.00  0.00    -0.246 N 
ATOM     12  C   UNL     1      33.907 -13.986 -22.741  0.00  0.00    -0.017 C 
ATOM     13  C   UNL     1      34.305 -12.623 -23.327  0.00  0.00    +0.020 C 
ATOM     14  C   UNL     1      33.238 -13.799 -21.370  0.00  0.00    +0.020 C 
ATOM     15  C   UNL     1      33.112 -11.673 -23.376  0.00  0.00    +0.097 C 
ATOM     16  C   UNL     1      32.063 -12.827 -21.454  0.00  0.00    +0.097 C 
ATOM     17  C   UNL     1      32.262 -10.304 -21.487  0.00  0.00    +0.405 C 
BRANCH  17  18
ATOM     18  O   UNL     1      31.611 -10.381 -20.284  0.00  0.00    -0.430 OA
ATOM     19  C   UNL     1      32.131  -9.560 -19.231  0.00  0.00    +0.257 C 
ENDBRANCH  17  18
ENDBRANCH   9  12
ENDBRANCH   2   9
ENDBRANCH   1   3
BRANCH   1  21
ATOM     20  O   UNL     1      33.621 -22.406 -19.273  0.00  0.00    -0.270 OA
ATOM     21  N   UNL     1      35.206 -20.794 -19.782  0.00  0.00    -0.301 N 
ATOM     22  C   UNL     1      34.633 -21.769 -18.991  0.00  0.00    +0.247 C 
ATOM     23  H   UNL     1      36.021 -20.340 -19.464  0.00  0.00    +0.150 HD
BRANCH  22  26
ATOM     24  N   UNL     1      34.329 -23.370 -14.492  0.00  0.00    -0.318 N 
ATOM     25  N   UNL     1      33.331 -22.979 -16.439  0.00  0.00    -0.318 N 
ATOM     26  C   UNL     1      35.310 -22.022 -17.693  0.00  0.00    +0.068 C 
ATOM     27  C   UNL     1      34.630 -22.573 -16.606  0.00  0.00    +0.063 C 
ATOM     28  C   UNL     1      36.663 -21.722 -17.503  0.00  0.00    +0.006 C 
ATOM     29  C   UNL     1      35.233 -22.828 -15.377  0.00  0.00    +0.059 C 
ATOM     30  C   UNL     1      33.200 -23.447 -15.162  0.00  0.00    +0.144 C 
ATOM     31  C   UNL     1      37.295 -21.966 -16.281  0.00  0.00    +0.001 C 
ATOM     32  C   UNL     1      36.593 -22.520 -15.204  0.00  0.00    +0.016 C 
ATOM     33  H   UNL     1      34.492 -23.641 -13.560  0.00  0.00    +0.148 HD
ATOM     34  H   UNL     1      32.620 -22.941 -17.120  0.00  0.00    +0.148 HD
BRANCH  30  35
ATOM     35  C   UNL     1      31.965 -23.983 -14.563  0.00  0.00    +0.037 C 
ATOM     36  C   UNL     1      32.220 -24.846 -13.303  0.00  0.00    +0.003 C 
ATOM     37  C   UNL     1      30.922 -22.888 -14.228  0.00  0.00    +0.003 C 
ENDBRANCH  30  35
ENDBRANCH  22  26
ENDBRANCH   1  21
TORSDOF 7
ENDMDL
MODEL 9
REMARK VINA RESULT:     -10.9      2.993     12.301
REMARK  Name = 11961293
REMARK  7 active torsions:
REMARK  status: ('A' for Active; 'I' for Inactive)
REMARK    1  A    between atoms: C_1  and  C_3
REMARK    2  A    between atoms: C_1  and  N_21
REMARK    3  A    between atoms: N_2  and  C_9
REMARK    4  A    between atoms: C_9  and  C_12
REMARK    5  A    between atoms: C_17  and  O_18
REMARK    6  A    between atoms: C_22  and  C_26
REMARK    7  A    between atoms: C_30  and  C_35
REMARK                            x       y       z     vdW  Elec       q    Type
REMARK                         _______ _______ _______ _____ _____    ______ ____
ROOT
ATOM      1  C   UNL     1      34.837 -21.837 -19.483  0.00  0.00    +0.089 C 
ENDROOT
BRANCH   1   3
ATOM      2  N   UNL     1      35.904 -18.273 -21.679  0.00  0.00    +0.387 N 
ATOM      3  C   UNL     1      35.097 -20.364 -19.788  0.00  0.00    +0.015 C 
ATOM      4  C   UNL     1      34.496 -18.416 -21.285  0.00  0.00    -0.077 C 
ATOM      5  C   UNL     1      36.802 -18.678 -20.589  0.00  0.00    -0.077 C 
ATOM      6  C   UNL     1      34.173 -19.862 -20.904  0.00  0.00    -0.021 C 
ATOM      7  C   UNL     1      36.558 -20.134 -20.185  0.00  0.00    -0.021 C 
ATOM      8  H   UNL     1      36.073 -18.892 -22.472  0.00  0.00    -0.080 HD
BRANCH   2   9
ATOM      9  C   UNL     1      36.185 -16.898 -22.089  0.00  0.00    -0.077 C 
BRANCH   9  12
ATOM     10  O   UNL     1      33.529 -13.001 -26.163  0.00  0.00    -0.226 OA
ATOM     11  N   UNL     1      33.608 -14.122 -24.129  0.00  0.00    -0.246 N 
ATOM     12  C   UNL     1      34.928 -16.226 -22.639  0.00  0.00    -0.017 C 
ATOM     13  C   UNL     1      34.960 -16.180 -24.174  0.00  0.00    +0.020 C 
ATOM     14  C   UNL     1      34.774 -14.807 -22.068  0.00  0.00    +0.020 C 
ATOM     15  C   UNL     1      33.742 -15.448 -24.731  0.00  0.00    +0.097 C 
ATOM     16  C   UNL     1      33.558 -14.100 -22.663  0.00  0.00    +0.097 C 
ATOM     17  C   UNL     1      33.489 -12.987 -24.934  0.00  0.00    +0.405 C 
BRANCH  17  18
ATOM     18  O   UNL     1      33.317 -11.839 -24.206  0.00  0.00    -0.430 OA
ATOM     19  C   UNL     1      34.287 -10.806 -24.418  0.00  0.00    +0.257 C 
ENDBRANCH  17  18
ENDBRANCH   9  12
ENDBRANCH   2   9
ENDBRANCH   1   3
BRANCH   1  21
ATOM     20  O   UNL     1      33.456 -23.924 -18.077  0.00  0.00    -0.270 OA
ATOM     21  N   UNL     1      34.863 -22.083 -18.049  0.00  0.00    -0.301 N 
ATOM     22  C   UNL     1      34.159 -23.120 -17.470  0.00  0.00    +0.247 C 
ATOM     23  H   UNL     1      35.400 -21.491 -17.473  0.00  0.00    +0.150 HD
BRANCH  22  26
ATOM     24  N   UNL     1      31.946 -23.594 -13.255  0.00  0.00    -0.318 N 
ATOM     25  N   UNL     1      31.802 -23.435 -15.467  0.00  0.00    -0.318 N 
ATOM     26  C   UNL     1      34.268 -23.222 -15.992  0.00  0.00    +0.068 C 
ATOM     27  C   UNL     1      33.140 -23.363 -15.182  0.00  0.00    +0.063 C 
ATOM     28  C   UNL     1      35.508 -23.184 -15.346  0.00  0.00    +0.006 C 
ATOM     29  C   UNL     1      33.205 -23.466 -13.795  0.00  0.00    +0.059 C 
ATOM     30  C   UNL     1      31.129 -23.572 -14.285  0.00  0.00    +0.144 C 
ATOM     31  C   UNL     1      35.604 -23.284 -13.956  0.00  0.00    +0.001 C 
ATOM     32  C   UNL     1      34.459 -23.425 -13.162  0.00  0.00    +0.016 C 
ATOM     33  H   UNL     1      31.707 -23.684 -12.304  0.00  0.00    +0.148 HD
ATOM     34  H   UNL     1      31.397 -23.395 -16.365  0.00  0.00    +0.148 HD
BRANCH  30  35
ATOM     35  C   UNL     1      29.667 -23.688 -14.135  0.00  0.00    +0.037 C 
ATOM     36  C   UNL     1      28.880 -22.753 -15.085  0.00  0.00    +0.003 C 
ATOM     37  C   UNL     1      29.148 -25.137 -14.299  0.00  0.00    +0.003 C 
ENDBRANCH  30  35
ENDBRANCH  22  26
ENDBRANCH   1  21
TORSDOF 7
ENDMDL
