MODEL 1
REMARK VINA RESULT:     -11.5      0.000      0.000
REMARK  Name = 5288527
REMARK  4 active torsions:
REMARK  status: ('A' for Active; 'I' for Inactive)
REMARK    1  A    between atoms: N_1  and  C_18
REMARK    2  A    between atoms: C_4  and  C_11
REMARK    3  A    between atoms: C_19  and  S_24
REMARK    4  A    between atoms: S_24  and  N_27
REMARK                            x       y       z     vdW  Elec       q    Type
REMARK                         _______ _______ _______ _____ _____    ______ ____
ROOT
ATOM      1  N   UNL     1      32.552 -24.529 -12.649  0.00  0.00    -0.247 N 
ATOM      2  N   UNL     1      34.361 -23.673 -13.873  0.00  0.00    -0.336 NA
ATOM      3  N   UNL     1      34.707 -24.764 -11.753  0.00  0.00    -0.170 NA
ATOM      4  C   UNL     1      35.693 -23.485 -13.947  0.00  0.00    +0.161 C 
ATOM      5  C   UNL     1      33.942 -24.311 -12.764  0.00  0.00    +0.149 C 
ATOM      6  C   UNL     1      36.586 -23.898 -12.983  0.00  0.00    +0.056 C 
ATOM      7  C   UNL     1      36.030 -24.539 -11.895  0.00  0.00    +0.114 C 
ATOM      8  H   UNL     1      32.291 -24.998 -11.824  0.00  0.00    +0.165 HD
ENDROOT
BRANCH   4  11
ATOM      9  N   UNL     1      35.390 -22.634 -16.275  0.00  0.00    -0.246 N 
ATOM     10  N   UNL     1      37.361 -21.650 -16.663  0.00  0.00    -0.227 NA
ATOM     11  C   UNL     1      36.138 -22.800 -15.137  0.00  0.00    +0.107 C 
ATOM     12  C   UNL     1      36.180 -21.925 -17.177  0.00  0.00    +0.139 C 
ATOM     13  C   UNL     1      37.341 -22.188 -15.401  0.00  0.00    +0.118 C 
ATOM     14  C   UNL     1      34.093 -23.057 -16.553  0.00  0.00    +0.071 C 
ATOM     15  C   UNL     1      35.605 -21.631 -18.447  0.00  0.00    +0.035 C 
ATOM     16  C   UNL     1      33.559 -22.776 -17.752  0.00  0.00    +0.017 C 
ATOM     17  C   UNL     1      34.351 -22.038 -18.724  0.00  0.00    +0.004 C 
ENDBRANCH   4  11
BRANCH   1  18
ATOM     18  C   UNL     1      31.465 -24.208 -13.484  0.00  0.00    +0.058 C 
ATOM     19  C   UNL     1      29.309 -23.570 -15.141  0.00  0.00    +0.122 C 
ATOM     20  C   UNL     1      30.589 -25.209 -13.910  0.00  0.00    +0.017 C 
ATOM     21  C   UNL     1      31.259 -22.888 -13.889  0.00  0.00    +0.017 C 
ATOM     22  C   UNL     1      29.513 -24.890 -14.737  0.00  0.00    +0.021 C 
ATOM     23  C   UNL     1      30.183 -22.569 -14.716  0.00  0.00    +0.021 C 
BRANCH  19  24
ATOM     24  S   UNL     1      27.962 -23.170 -16.177  0.00  0.00    +0.057 S 
ATOM     25  O   UNL     1      28.312 -21.986 -16.948  0.00  0.00    -0.153 OA
ATOM     26  O   UNL     1      27.532 -24.380 -16.865  0.00  0.00    -0.153 OA
BRANCH  24  27
ATOM     27  N   UNL     1      26.776 -22.746 -15.022  0.00  0.00    -0.203 NA
ATOM     28  H   UNL     1      25.995 -23.397 -15.083  0.00  0.00    +0.144 HD
ATOM     29  H   UNL     1      26.446 -21.798 -15.206  0.00  0.00    +0.144 HD
ENDBRANCH  24  27
ENDBRANCH  19  24
ENDBRANCH   1  18
TORSDOF 4
ENDMDL
MODEL 2
REMARK VINA RESULT:     -11.4      4.949      6.997
REMARK  Name = 5288527
REMARK  4 active torsions:
REMARK  status: ('A' for Active; 'I' for Inactive)
REMARK    1  A    between atoms: N_1  and  C_18
REMARK    2  A    between atoms: C_4  and  C_11
REMARK    3  A    between atoms: C_19  and  S_24
REMARK    4  A    between atoms: S_24  and  N_27
REMARK                            x       y       z     vdW  Elec       q    Type
REMARK                         _______ _______ _______ _____ _____    ______ ____
ROOT
ATOM      1  N   UNL     1      34.852 -24.870 -12.527  0.00  0.00    -0.247 N 
ATOM      2  N   UNL     1      33.983 -23.868 -14.462  0.00  0.00    -0.336 NA
ATOM      3  N   UNL     1      32.575 -24.304 -12.555  0.00  0.00    -0.170 NA
ATOM      4  C   UNL     1      32.906 -23.350 -15.086  0.00  0.00    +0.161 C 
ATOM      5  C   UNL     1      33.749 -24.320 -13.216  0.00  0.00    +0.149 C 
ATOM      6  C   UNL     1      31.651 -23.273 -14.524  0.00  0.00    +0.056 C 
ATOM      7  C   UNL     1      31.543 -23.771 -13.242  0.00  0.00    +0.114 C 
ATOM      8  H   UNL     1      34.635 -25.187 -11.620  0.00  0.00    +0.165 HD
ENDROOT
BRANCH   4  11
ATOM      9  N   UNL     1      34.384 -22.464 -16.893  0.00  0.00    -0.246 N 
ATOM     10  N   UNL     1      32.942 -22.217 -18.584  0.00  0.00    -0.227 NA
ATOM     11  C   UNL     1      33.161 -22.867 -16.422  0.00  0.00    +0.107 C 
ATOM     12  C   UNL     1      34.199 -22.076 -18.217  0.00  0.00    +0.139 C 
ATOM     13  C   UNL     1      32.295 -22.706 -17.478  0.00  0.00    +0.118 C 
ATOM     14  C   UNL     1      35.614 -22.420 -16.241  0.00  0.00    +0.071 C 
ATOM     15  C   UNL     1      35.348 -21.613 -18.922  0.00  0.00    +0.035 C 
ATOM     16  C   UNL     1      36.691 -21.982 -16.912  0.00  0.00    +0.017 C 
ATOM     17  C   UNL     1      36.541 -21.567 -18.298  0.00  0.00    +0.004 C 
ENDBRANCH   4  11
BRANCH   1  18
ATOM     18  C   UNL     1      36.202 -25.052 -12.882  0.00  0.00    +0.058 C 
ATOM     19  C   UNL     1      38.879 -25.416 -13.588  0.00  0.00    +0.122 C 
ATOM     20  C   UNL     1      37.213 -24.460 -12.123  0.00  0.00    +0.017 C 
ATOM     21  C   UNL     1      36.534 -25.828 -13.995  0.00  0.00    +0.017 C 
ATOM     22  C   UNL     1      38.549 -24.641 -12.475  0.00  0.00    +0.021 C 
ATOM     23  C   UNL     1      37.871 -26.009 -14.348  0.00  0.00    +0.021 C 
BRANCH  19  24
ATOM     24  S   UNL     1      40.553 -25.642 -14.030  0.00  0.00    +0.057 S 
ATOM     25  O   UNL     1      41.240 -24.366 -13.893  0.00  0.00    -0.153 OA
ATOM     26  O   UNL     1      41.061 -26.816 -13.334  0.00  0.00    -0.153 OA
BRANCH  24  27
ATOM     27  N   UNL     1      40.404 -26.013 -15.692  0.00  0.00    -0.203 NA
ATOM     28  H   UNL     1      39.564 -25.571 -16.064  0.00  0.00    +0.144 HD
ATOM     29  H   UNL     1      40.338 -27.024 -15.810  0.00  0.00    +0.144 HD
ENDBRANCH  24  27
ENDBRANCH  19  24
ENDBRANCH   1  18
TORSDOF 4
ENDMDL
MODEL 3
REMARK VINA RESULT:     -10.9      4.230      6.613
REMARK  Name = 5288527
REMARK  4 active torsions:
REMARK  status: ('A' for Active; 'I' for Inactive)
REMARK    1  A    between atoms: N_1  and  C_18
REMARK    2  A    between atoms: C_4  and  C_11
REMARK    3  A    between atoms: C_19  and  S_24
REMARK    4  A    between atoms: S_24  and  N_27
REMARK                            x       y       z     vdW  Elec       q    Type
REMARK                         _______ _______ _______ _____ _____    ______ ____
ROOT
ATOM      1  N   UNL     1      32.484 -22.242 -17.894  0.00  0.00    -0.247 N 
ATOM      2  N   UNL     1      34.022 -22.887 -16.243  0.00  0.00    -0.336 NA
ATOM      3  N   UNL     1      31.723 -23.603 -16.141  0.00  0.00    -0.170 NA
ATOM      4  C   UNL     1      34.242 -23.572 -15.103  0.00  0.00    +0.161 C 
ATOM      5  C   UNL     1      32.757 -22.946 -16.700  0.00  0.00    +0.149 C 
ATOM      6  C   UNL     1      33.274 -24.285 -14.431  0.00  0.00    +0.056 C 
ATOM      7  C   UNL     1      32.019 -24.265 -15.003  0.00  0.00    +0.114 C 
ATOM      8  H   UNL     1      31.548 -22.312 -18.190  0.00  0.00    +0.165 HD
ENDROOT
BRANCH   4  11
ATOM      9  N   UNL     1      36.426 -24.586 -14.443  0.00  0.00    -0.246 N 
ATOM     10  N   UNL     1      37.602 -22.784 -13.830  0.00  0.00    -0.227 NA
ATOM     11  C   UNL     1      35.599 -23.506 -14.616  0.00  0.00    +0.107 C 
ATOM     12  C   UNL     1      37.637 -24.094 -13.961  0.00  0.00    +0.139 C 
ATOM     13  C   UNL     1      36.344 -22.414 -14.234  0.00  0.00    +0.118 C 
ATOM     14  C   UNL     1      36.182 -25.936 -14.677  0.00  0.00    +0.071 C 
ATOM     15  C   UNL     1      38.665 -25.047 -13.703  0.00  0.00    +0.035 C 
ATOM     16  C   UNL     1      37.155 -26.827 -14.431  0.00  0.00    +0.017 C 
ATOM     17  C   UNL     1      38.435 -26.355 -13.927  0.00  0.00    +0.004 C 
ENDBRANCH   4  11
BRANCH   1  18
ATOM     18  C   UNL     1      33.289 -21.460 -18.743  0.00  0.00    +0.058 C 
ATOM     19  C   UNL     1      34.885 -19.909 -20.430  0.00  0.00    +0.122 C 
ATOM     20  C   UNL     1      34.674 -21.640 -18.758  0.00  0.00    +0.017 C 
ATOM     21  C   UNL     1      32.705 -20.502 -19.575  0.00  0.00    +0.017 C 
ATOM     22  C   UNL     1      35.471 -20.865 -19.600  0.00  0.00    +0.021 C 
ATOM     23  C   UNL     1      33.502 -19.727 -20.417  0.00  0.00    +0.021 C 
BRANCH  19  24
ATOM     24  S   UNL     1      35.882 -18.937 -21.484  0.00  0.00    +0.057 S 
ATOM     25  O   UNL     1      37.264 -19.044 -21.034  0.00  0.00    -0.153 OA
ATOM     26  O   UNL     1      35.544 -19.255 -22.863  0.00  0.00    -0.153 OA
BRANCH  24  27
ATOM     27  N   UNL     1      35.305 -17.369 -21.125  0.00  0.00    -0.203 NA
ATOM     28  H   UNL     1      35.435 -16.766 -21.937  0.00  0.00    +0.144 HD
ATOM     29  H   UNL     1      35.823 -16.990 -20.332  0.00  0.00    +0.144 HD
ENDBRANCH  24  27
ENDBRANCH  19  24
ENDBRANCH   1  18
TORSDOF 4
ENDMDL
MODEL 4
REMARK VINA RESULT:     -10.8      4.083      6.762
REMARK  Name = 5288527
REMARK  4 active torsions:
REMARK  status: ('A' for Active; 'I' for Inactive)
REMARK    1  A    between atoms: N_1  and  C_18
REMARK    2  A    between atoms: C_4  and  C_11
REMARK    3  A    between atoms: C_19  and  S_24
REMARK    4  A    between atoms: S_24  and  N_27
REMARK                            x       y       z     vdW  Elec       q    Type
REMARK                         _______ _______ _______ _____ _____    ______ ____
ROOT
ATOM      1  N   UNL     1      32.473 -22.259 -17.919  0.00  0.00    -0.247 N 
ATOM      2  N   UNL     1      33.958 -22.793 -16.183  0.00  0.00    -0.336 NA
ATOM      3  N   UNL     1      31.692 -23.610 -16.167  0.00  0.00    -0.170 NA
ATOM      4  C   UNL     1      34.155 -23.439 -15.017  0.00  0.00    +0.161 C 
ATOM      5  C   UNL     1      32.720 -22.920 -16.696  0.00  0.00    +0.149 C 
ATOM      6  C   UNL     1      33.189 -24.179 -14.371  0.00  0.00    +0.056 C 
ATOM      7  C   UNL     1      31.962 -24.230 -15.000  0.00  0.00    +0.114 C 
ATOM      8  H   UNL     1      31.556 -22.379 -18.256  0.00  0.00    +0.165 HD
ENDROOT
BRANCH   4  11
ATOM      9  N   UNL     1      35.819 -23.500 -13.155  0.00  0.00    -0.246 N 
ATOM     10  N   UNL     1      37.708 -22.936 -14.211  0.00  0.00    -0.227 NA
ATOM     11  C   UNL     1      35.484 -23.300 -14.470  0.00  0.00    +0.107 C 
ATOM     12  C   UNL     1      37.188 -23.266 -13.048  0.00  0.00    +0.139 C 
ATOM     13  C   UNL     1      36.660 -22.956 -15.095  0.00  0.00    +0.118 C 
ATOM     14  C   UNL     1      35.012 -23.865 -12.081  0.00  0.00    +0.071 C 
ATOM     15  C   UNL     1      37.769 -23.416 -11.755  0.00  0.00    +0.035 C 
ATOM     16  C   UNL     1      35.568 -24.004 -10.866  0.00  0.00    +0.017 C 
ATOM     17  C   UNL     1      36.995 -23.768 -10.710  0.00  0.00    +0.004 C 
ENDBRANCH   4  11
BRANCH   1  18
ATOM     18  C   UNL     1      33.282 -21.462 -18.751  0.00  0.00    +0.058 C 
ATOM     19  C   UNL     1      34.887 -19.882 -20.402  0.00  0.00    +0.122 C 
ATOM     20  C   UNL     1      32.701 -20.501 -19.581  0.00  0.00    +0.017 C 
ATOM     21  C   UNL     1      34.668 -21.630 -18.749  0.00  0.00    +0.017 C 
ATOM     22  C   UNL     1      33.502 -19.712 -20.405  0.00  0.00    +0.021 C 
ATOM     23  C   UNL     1      35.470 -20.841 -19.573  0.00  0.00    +0.021 C 
BRANCH  19  24
ATOM     24  S   UNL     1      35.891 -18.895 -21.434  0.00  0.00    +0.057 S 
ATOM     25  O   UNL     1      37.272 -19.025 -20.991  0.00  0.00    -0.153 OA
ATOM     26  O   UNL     1      35.546 -19.175 -22.820  0.00  0.00    -0.153 OA
BRANCH  24  27
ATOM     27  N   UNL     1      35.330 -17.330 -21.036  0.00  0.00    -0.203 NA
ATOM     28  H   UNL     1      34.662 -17.395 -20.268  0.00  0.00    +0.144 HD
ATOM     29  H   UNL     1      34.875 -16.915 -21.849  0.00  0.00    +0.144 HD
ENDBRANCH  24  27
ENDBRANCH  19  24
ENDBRANCH   1  18
TORSDOF 4
ENDMDL
MODEL 5
REMARK VINA RESULT:     -10.0      5.113      7.169
REMARK  Name = 5288527
REMARK  4 active torsions:
REMARK  status: ('A' for Active; 'I' for Inactive)
REMARK    1  A    between atoms: N_1  and  C_18
REMARK    2  A    between atoms: C_4  and  C_11
REMARK    3  A    between atoms: C_19  and  S_24
REMARK    4  A    between atoms: S_24  and  N_27
REMARK                            x       y       z     vdW  Elec       q    Type
REMARK                         _______ _______ _______ _____ _____    ______ ____
ROOT
ATOM      1  N   UNL     1      34.470 -24.483 -14.720  0.00  0.00    -0.247 N 
ATOM      2  N   UNL     1      34.549 -23.080 -16.598  0.00  0.00    -0.336 NA
ATOM      3  N   UNL     1      32.447 -23.650 -15.568  0.00  0.00    -0.170 NA
ATOM      4  C   UNL     1      33.863 -22.341 -17.492  0.00  0.00    +0.161 C 
ATOM      5  C   UNL     1      33.789 -23.699 -15.676  0.00  0.00    +0.149 C 
ATOM      6  C   UNL     1      32.492 -22.207 -17.493  0.00  0.00    +0.056 C 
ATOM      7  C   UNL     1      31.828 -22.892 -16.496  0.00  0.00    +0.114 C 
ATOM      8  H   UNL     1      33.875 -24.916 -14.066  0.00  0.00    +0.165 HD
ENDROOT
BRANCH   4  11
ATOM      9  N   UNL     1      34.206 -20.906 -19.507  0.00  0.00    -0.246 N 
ATOM     10  N   UNL     1      36.435 -20.911 -19.699  0.00  0.00    -0.227 NA
ATOM     11  C   UNL     1      34.682 -21.680 -18.480  0.00  0.00    +0.107 C 
ATOM     12  C   UNL     1      35.314 -20.460 -20.223  0.00  0.00    +0.139 C 
ATOM     13  C   UNL     1      36.050 -21.666 -18.620  0.00  0.00    +0.118 C 
ATOM     14  C   UNL     1      32.893 -20.583 -19.838  0.00  0.00    +0.071 C 
ATOM     15  C   UNL     1      35.061 -19.627 -21.352  0.00  0.00    +0.035 C 
ATOM     16  C   UNL     1      32.663 -19.798 -20.903  0.00  0.00    +0.017 C 
ATOM     17  C   UNL     1      33.793 -19.310 -21.679  0.00  0.00    +0.004 C 
ENDBRANCH   4  11
BRANCH   1  18
ATOM     18  C   UNL     1      35.834 -24.766 -14.517  0.00  0.00    +0.058 C 
ATOM     19  C   UNL     1      38.539 -25.329 -14.116  0.00  0.00    +0.122 C 
ATOM     20  C   UNL     1      36.722 -23.739 -14.190  0.00  0.00    +0.017 C 
ATOM     21  C   UNL     1      36.303 -26.076 -14.642  0.00  0.00    +0.017 C 
ATOM     22  C   UNL     1      38.073 -24.020 -13.990  0.00  0.00    +0.021 C 
ATOM     23  C   UNL     1      37.654 -26.357 -14.442  0.00  0.00    +0.021 C 
BRANCH  19  24
ATOM     24  S   UNL     1      40.231 -25.681 -13.866  0.00  0.00    +0.057 S 
ATOM     25  O   UNL     1      40.892 -24.464 -13.418  0.00  0.00    -0.153 OA
ATOM     26  O   UNL     1      40.338 -26.897 -13.071  0.00  0.00    -0.153 OA
BRANCH  24  27
ATOM     27  N   UNL     1      40.732 -26.025 -15.463  0.00  0.00    -0.203 NA
ATOM     28  H   UNL     1      40.543 -25.220 -16.059  0.00  0.00    +0.144 HD
ATOM     29  H   UNL     1      40.220 -26.836 -15.813  0.00  0.00    +0.144 HD
ENDBRANCH  24  27
ENDBRANCH  19  24
ENDBRANCH   1  18
TORSDOF 4
ENDMDL
MODEL 6
REMARK VINA RESULT:      -9.6      3.882      7.252
REMARK  Name = 5288527
REMARK  4 active torsions:
REMARK  status: ('A' for Active; 'I' for Inactive)
REMARK    1  A    between atoms: N_1  and  C_18
REMARK    2  A    between atoms: C_4  and  C_11
REMARK    3  A    between atoms: C_19  and  S_24
REMARK    4  A    between atoms: S_24  and  N_27
REMARK                            x       y       z     vdW  Elec       q    Type
REMARK                         _______ _______ _______ _____ _____    ______ ____
ROOT
ATOM      1  N   UNL     1      36.471 -22.088 -17.258  0.00  0.00    -0.247 N 
ATOM      2  N   UNL     1      34.312 -22.658 -16.538  0.00  0.00    -0.336 NA
ATOM      3  N   UNL     1      36.259 -23.465 -15.370  0.00  0.00    -0.170 NA
ATOM      4  C   UNL     1      33.552 -23.322 -15.645  0.00  0.00    +0.161 C 
ATOM      5  C   UNL     1      35.640 -22.770 -16.344  0.00  0.00    +0.149 C 
ATOM      6  C   UNL     1      34.059 -24.068 -14.604  0.00  0.00    +0.056 C 
ATOM      7  C   UNL     1      35.435 -24.104 -14.514  0.00  0.00    +0.114 C 
ATOM      8  H   UNL     1      37.433 -22.198 -17.078  0.00  0.00    +0.165 HD
ENDROOT
BRANCH   4  11
ATOM      9  N   UNL     1      31.167 -23.870 -15.148  0.00  0.00    -0.246 N 
ATOM     10  N   UNL     1      30.086 -22.601 -16.639  0.00  0.00    -0.227 NA
ATOM     11  C   UNL     1      32.130 -23.199 -15.858  0.00  0.00    +0.107 C 
ATOM     12  C   UNL     1      29.936 -23.472 -15.662  0.00  0.00    +0.139 C 
ATOM     13  C   UNL     1      31.441 -22.428 -16.764  0.00  0.00    +0.118 C 
ATOM     14  C   UNL     1      31.309 -24.784 -14.107  0.00  0.00    +0.071 C 
ATOM     15  C   UNL     1      28.772 -24.046 -15.072  0.00  0.00    +0.035 C 
ATOM     16  C   UNL     1      30.208 -25.321 -13.557  0.00  0.00    +0.017 C 
ATOM     17  C   UNL     1      28.902 -24.932 -14.065  0.00  0.00    +0.004 C 
ENDBRANCH   4  11
BRANCH   1  18
ATOM     18  C   UNL     1      36.195 -21.279 -18.377  0.00  0.00    +0.058 C 
ATOM     19  C   UNL     1      35.648 -19.675 -20.596  0.00  0.00    +0.122 C 
ATOM     20  C   UNL     1      34.959 -21.371 -19.020  0.00  0.00    +0.017 C 
ATOM     21  C   UNL     1      37.157 -20.382 -18.847  0.00  0.00    +0.017 C 
ATOM     22  C   UNL     1      34.686 -20.570 -20.128  0.00  0.00    +0.021 C 
ATOM     23  C   UNL     1      36.884 -19.582 -19.955  0.00  0.00    +0.021 C 
BRANCH  19  24
ATOM     24  S   UNL     1      35.307 -18.672 -21.984  0.00  0.00    +0.057 S 
ATOM     25  O   UNL     1      34.780 -19.520 -23.044  0.00  0.00    -0.153 OA
ATOM     26  O   UNL     1      34.548 -17.512 -21.542  0.00  0.00    -0.153 OA
BRANCH  24  27
ATOM     27  N   UNL     1      36.882 -18.165 -22.415  0.00  0.00    -0.203 NA
ATOM     28  H   UNL     1      36.821 -17.346 -23.018  0.00  0.00    +0.144 HD
ATOM     29  H   UNL     1      37.358 -18.919 -22.911  0.00  0.00    +0.144 HD
ENDBRANCH  24  27
ENDBRANCH  19  24
ENDBRANCH   1  18
TORSDOF 4
ENDMDL
MODEL 7
REMARK VINA RESULT:      -9.6      1.833      2.937
REMARK  Name = 5288527
REMARK  4 active torsions:
REMARK  status: ('A' for Active; 'I' for Inactive)
REMARK    1  A    between atoms: N_1  and  C_18
REMARK    2  A    between atoms: C_4  and  C_11
REMARK    3  A    between atoms: C_19  and  S_24
REMARK    4  A    between atoms: S_24  and  N_27
REMARK                            x       y       z     vdW  Elec       q    Type
REMARK                         _______ _______ _______ _____ _____    ______ ____
ROOT
ATOM      1  N   UNL     1      34.483 -23.621 -14.377  0.00  0.00    -0.247 N 
ATOM      2  N   UNL     1      35.378 -22.476 -16.218  0.00  0.00    -0.336 NA
ATOM      3  N   UNL     1      36.817 -23.521 -14.593  0.00  0.00    -0.170 NA
ATOM      4  C   UNL     1      36.483 -22.078 -16.879  0.00  0.00    +0.161 C 
ATOM      5  C   UNL     1      35.615 -23.184 -15.098  0.00  0.00    +0.149 C 
ATOM      6  C   UNL     1      37.769 -22.356 -16.471  0.00  0.00    +0.056 C 
ATOM      7  C   UNL     1      37.876 -23.089 -15.307  0.00  0.00    +0.114 C 
ATOM      8  H   UNL     1      34.703 -24.134 -13.566  0.00  0.00    +0.165 HD
ENDROOT
BRANCH   4  11
ATOM      9  N   UNL     1      34.991 -21.162 -18.660  0.00  0.00    -0.246 N 
ATOM     10  N   UNL     1      36.440 -20.026 -19.931  0.00  0.00    -0.227 NA
ATOM     11  C   UNL     1      36.224 -21.318 -18.079  0.00  0.00    +0.107 C 
ATOM     12  C   UNL     1      35.176 -20.365 -19.788  0.00  0.00    +0.139 C 
ATOM     13  C   UNL     1      37.093 -20.612 -18.877  0.00  0.00    +0.118 C 
ATOM     14  C   UNL     1      33.755 -21.665 -18.266  0.00  0.00    +0.071 C 
ATOM     15  C   UNL     1      34.018 -20.064 -20.563  0.00  0.00    +0.035 C 
ATOM     16  C   UNL     1      32.669 -21.377 -19.001  0.00  0.00    +0.017 C 
ATOM     17  C   UNL     1      32.818 -20.548 -20.188  0.00  0.00    +0.004 C 
ENDBRANCH   4  11
BRANCH   1  18
ATOM     18  C   UNL     1      33.100 -23.466 -14.589  0.00  0.00    +0.058 C 
ATOM     19  C   UNL     1      30.356 -23.160 -15.012  0.00  0.00    +0.122 C 
ATOM     20  C   UNL     1      32.236 -23.314 -13.502  0.00  0.00    +0.017 C 
ATOM     21  C   UNL     1      32.587 -23.464 -15.888  0.00  0.00    +0.017 C 
ATOM     22  C   UNL     1      30.867 -23.161 -13.714  0.00  0.00    +0.021 C 
ATOM     23  C   UNL     1      31.217 -23.311 -16.099  0.00  0.00    +0.021 C 
BRANCH  19  24
ATOM     24  S   UNL     1      28.641 -22.969 -15.277  0.00  0.00    +0.057 S 
ATOM     25  O   UNL     1      27.994 -24.250 -15.032  0.00  0.00    -0.153 OA
ATOM     26  O   UNL     1      28.191 -21.783 -14.563  0.00  0.00    -0.153 OA
BRANCH  24  27
ATOM     27  N   UNL     1      28.605 -22.645 -16.955  0.00  0.00    -0.203 NA
ATOM     28  H   UNL     1      27.976 -23.303 -17.414  0.00  0.00    +0.144 HD
ATOM     29  H   UNL     1      29.544 -22.745 -17.341  0.00  0.00    +0.144 HD
ENDBRANCH  24  27
ENDBRANCH  19  24
ENDBRANCH   1  18
TORSDOF 4
ENDMDL
MODEL 8
REMARK VINA RESULT:      -9.6     11.283     14.148
REMARK  Name = 5288527
REMARK  4 active torsions:
REMARK  status: ('A' for Active; 'I' for Inactive)
REMARK    1  A    between atoms: N_1  and  C_18
REMARK    2  A    between atoms: C_4  and  C_11
REMARK    3  A    between atoms: C_19  and  S_24
REMARK    4  A    between atoms: S_24  and  N_27
REMARK                            x       y       z     vdW  Elec       q    Type
REMARK                         _______ _______ _______ _____ _____    ______ ____
ROOT
ATOM      1  N   UNL     1      33.123 -11.292 -24.486  0.00  0.00    -0.247 N 
ATOM      2  N   UNL     1      33.836 -13.232 -23.378  0.00  0.00    -0.336 NA
ATOM      3  N   UNL     1      33.523 -13.216 -25.767  0.00  0.00    -0.170 NA
ATOM      4  C   UNL     1      34.205 -14.525 -23.477  0.00  0.00    +0.161 C 
ATOM      5  C   UNL     1      33.513 -12.647 -24.546  0.00  0.00    +0.149 C 
ATOM      6  C   UNL     1      34.258 -15.224 -24.662  0.00  0.00    +0.056 C 
ATOM      7  C   UNL     1      33.902 -14.511 -25.788  0.00  0.00    +0.114 C 
ATOM      8  H   UNL     1      32.895 -10.905 -25.363  0.00  0.00    +0.165 HD
ENDROOT
BRANCH   4  11
ATOM      9  N   UNL     1      34.996 -16.438 -22.080  0.00  0.00    -0.246 N 
ATOM     10  N   UNL     1      34.928 -15.561 -20.023  0.00  0.00    -0.227 NA
ATOM     11  C   UNL     1      34.550 -15.148 -22.221  0.00  0.00    +0.107 C 
ATOM     12  C   UNL     1      35.213 -16.642 -20.719  0.00  0.00    +0.139 C 
ATOM     13  C   UNL     1      34.518 -14.634 -20.947  0.00  0.00    +0.118 C 
ATOM     14  C   UNL     1      35.215 -17.412 -23.050  0.00  0.00    +0.071 C 
ATOM     15  C   UNL     1      35.685 -17.928 -20.326  0.00  0.00    +0.035 C 
ATOM     16  C   UNL     1      35.659 -18.621 -22.672  0.00  0.00    +0.017 C 
ATOM     17  C   UNL     1      35.898 -18.876 -21.259  0.00  0.00    +0.004 C 
ENDBRANCH   4  11
BRANCH   1  18
ATOM     18  C   UNL     1      32.995 -10.384 -23.418  0.00  0.00    +0.058 C 
ATOM     19  C   UNL     1      32.742  -8.581 -21.300  0.00  0.00    +0.122 C 
ATOM     20  C   UNL     1      32.163 -10.685 -22.338  0.00  0.00    +0.017 C 
ATOM     21  C   UNL     1      33.700  -9.178 -23.436  0.00  0.00    +0.017 C 
ATOM     22  C   UNL     1      32.036  -9.785 -21.281  0.00  0.00    +0.021 C 
ATOM     23  C   UNL     1      33.574  -8.279 -22.378  0.00  0.00    +0.021 C 
BRANCH  19  24
ATOM     24  S   UNL     1      32.584  -7.454 -19.976  0.00  0.00    +0.057 S 
ATOM     25  O   UNL     1      31.801  -8.088 -18.925  0.00  0.00    -0.153 OA
ATOM     26  O   UNL     1      33.899  -6.910 -19.671  0.00  0.00    -0.153 OA
BRANCH  24  27
ATOM     27  N   UNL     1      31.640  -6.228 -20.703  0.00  0.00    -0.203 NA
ATOM     28  H   UNL     1      30.925  -5.917 -20.047  0.00  0.00    +0.144 HD
ATOM     29  H   UNL     1      31.193  -6.597 -21.544  0.00  0.00    +0.144 HD
ENDBRANCH  24  27
ENDBRANCH  19  24
ENDBRANCH   1  18
TORSDOF 4
ENDMDL
MODEL 9
REMARK VINA RESULT:      -9.4      2.674      4.279
REMARK  Name = 5288527
REMARK  4 active torsions:
REMARK  status: ('A' for Active; 'I' for Inactive)
REMARK    1  A    between atoms: N_1  and  C_18
REMARK    2  A    between atoms: C_4  and  C_11
REMARK    3  A    between atoms: C_19  and  S_24
REMARK    4  A    between atoms: S_24  and  N_27
REMARK                            x       y       z     vdW  Elec       q    Type
REMARK                         _______ _______ _______ _____ _____    ______ ____
ROOT
ATOM      1  N   UNL     1      34.366 -23.327 -15.363  0.00  0.00    -0.247 N 
ATOM      2  N   UNL     1      34.621 -22.063 -17.323  0.00  0.00    -0.336 NA
ATOM      3  N   UNL     1      36.534 -22.692 -15.999  0.00  0.00    -0.170 NA
ATOM      4  C   UNL     1      35.465 -21.439 -18.170  0.00  0.00    +0.161 C 
ATOM      5  C   UNL     1      35.216 -22.661 -16.274  0.00  0.00    +0.149 C 
ATOM      6  C   UNL     1      36.832 -21.396 -18.005  0.00  0.00    +0.056 C 
ATOM      7  C   UNL     1      37.316 -22.047 -16.889  0.00  0.00    +0.114 C 
ATOM      8  H   UNL     1      34.843 -23.749 -14.612  0.00  0.00    +0.165 HD
ENDROOT
BRANCH   4  11
ATOM      9  N   UNL     1      35.445 -19.956 -20.179  0.00  0.00    -0.246 N 
ATOM     10  N   UNL     1      33.313 -20.108 -20.839  0.00  0.00    -0.227 NA
ATOM     11  C   UNL     1      34.823 -20.799 -19.293  0.00  0.00    +0.107 C 
ATOM     12  C   UNL     1      34.482 -19.560 -21.103  0.00  0.00    +0.139 C 
ATOM     13  C   UNL     1      33.519 -20.875 -19.721  0.00  0.00    +0.118 C 
ATOM     14  C   UNL     1      36.770 -19.530 -20.216  0.00  0.00    +0.071 C 
ATOM     15  C   UNL     1      34.902 -18.670 -22.134  0.00  0.00    +0.035 C 
ATOM     16  C   UNL     1      37.158 -18.691 -21.189  0.00  0.00    +0.017 C 
ATOM     17  C   UNL     1      36.182 -18.253 -22.176  0.00  0.00    +0.004 C 
ENDBRANCH   4  11
BRANCH   1  18
ATOM     18  C   UNL     1      32.971 -23.506 -15.319  0.00  0.00    +0.058 C 
ATOM     19  C   UNL     1      30.203 -23.863 -15.230  0.00  0.00    +0.122 C 
ATOM     20  C   UNL     1      32.175 -23.077 -16.383  0.00  0.00    +0.017 C 
ATOM     21  C   UNL     1      32.378 -24.114 -14.210  0.00  0.00    +0.017 C 
ATOM     22  C   UNL     1      30.793 -23.255 -16.339  0.00  0.00    +0.021 C 
ATOM     23  C   UNL     1      30.996 -24.292 -14.166  0.00  0.00    +0.021 C 
BRANCH  19  24
ATOM     24  S   UNL     1      28.472 -24.085 -15.173  0.00  0.00    +0.057 S 
ATOM     25  O   UNL     1      27.875 -22.893 -14.587  0.00  0.00    -0.153 OA
ATOM     26  O   UNL     1      28.022 -24.553 -16.476  0.00  0.00    -0.153 OA
BRANCH  24  27
ATOM     27  N   UNL     1      28.345 -25.371 -14.055  0.00  0.00    -0.203 NA
ATOM     28  H   UNL     1      28.459 -25.010 -13.108  0.00  0.00    +0.144 HD
ATOM     29  H   UNL     1      29.072 -26.062 -14.247  0.00  0.00    +0.144 HD
ENDBRANCH  24  27
ENDBRANCH  19  24
ENDBRANCH   1  18
TORSDOF 4
ENDMDL
