MODEL 1
REMARK VINA RESULT:     -11.3      0.000      0.000
REMARK  Name = 25134248
REMARK  7 active torsions:
REMARK  status: ('A' for Active; 'I' for Inactive)
REMARK    1  A    between atoms: N_2  and  C_20
REMARK    2  A    between atoms: C_3  and  C_7
REMARK    3  A    between atoms: C_11  and  C_12
REMARK    4  A    between atoms: C_12  and  C_13
REMARK    5  A    between atoms: C_13  and  C_14
REMARK    6  A    between atoms: C_20  and  C_21
REMARK    7  A    between atoms: C_26  and  C_29
REMARK                            x       y       z     vdW  Elec       q    Type
REMARK                         _______ _______ _______ _____ _____    ______ ____
ROOT
ATOM      1  O   UNL     1      35.095 -23.873 -12.603  0.00  0.00    -0.273 OA
ATOM      2  N   UNL     1      33.567 -25.022 -13.931  0.00  0.00    -0.299 N 
ATOM      3  C   UNL     1      34.814 -24.512 -13.614  0.00  0.00    +0.241 C 
ATOM      4  H   UNL     1      33.466 -25.520 -14.775  0.00  0.00    +0.150 HD
ENDROOT
BRANCH   3   7
ATOM      5  O   UNL     1      37.019 -21.655 -16.048  0.00  0.00    -0.275 OA
ATOM      6  N   UNL     1      36.615 -23.635 -14.927  0.00  0.00    -0.273 N 
ATOM      7  C   UNL     1      35.844 -24.844 -14.651  0.00  0.00    +0.152 C 
ATOM      8  C   UNL     1      36.868 -25.831 -14.097  0.00  0.00    +0.031 C 
ATOM      9  C   UNL     1      37.943 -23.712 -14.331  0.00  0.00    +0.094 C 
ATOM     10  C   UNL     1      37.900 -24.930 -13.423  0.00  0.00    +0.024 C 
ATOM     11  C   UNL     1      36.262 -22.583 -15.756  0.00  0.00    +0.226 C 
BRANCH  11  12
ATOM     12  C   UNL     1      34.860 -22.617 -16.311  0.00  0.00    +0.085 C 
BRANCH  12  13
ATOM     13  C   UNL     1      34.891 -22.741 -17.825  0.00  0.00    +0.010 C 
BRANCH  13  14
ATOM     14  C   UNL     1      34.583 -21.424 -18.535  0.00  0.00    +0.000 C 
ATOM     15  C   UNL     1      35.693 -21.073 -19.533  0.00  0.00    +0.000 C 
ATOM     16  C   UNL     1      33.219 -21.492 -19.235  0.00  0.00    +0.000 C 
ATOM     17  C   UNL     1      35.382 -19.787 -20.295  0.00  0.00    +0.000 C 
ATOM     18  C   UNL     1      32.912 -20.205 -19.996  0.00  0.00    +0.000 C 
ATOM     19  C   UNL     1      34.022 -19.854 -20.982  0.00  0.00    +0.000 C 
ENDBRANCH  13  14
ENDBRANCH  12  13
ENDBRANCH  11  12
ENDBRANCH   3   7
BRANCH   2  20
ATOM     20  C   UNL     1      32.408 -24.861 -13.084  0.00  0.00    +0.116 C 
BRANCH  20  21
ATOM     21  C   UNL     1      31.209 -24.390 -13.856  0.00  0.00    -0.003 C 
ATOM     22  C   UNL     1      31.235 -23.151 -14.496  0.00  0.00    -0.003 C 
ATOM     23  C   UNL     1      30.071 -25.191 -13.935  0.00  0.00    -0.003 C 
ATOM     24  C   UNL     1      30.123 -22.713 -15.214  0.00  0.00    +0.002 C 
ATOM     25  C   UNL     1      28.958 -24.754 -14.653  0.00  0.00    +0.002 C 
ATOM     26  C   UNL     1      28.984 -23.515 -15.293  0.00  0.00    +0.031 C 
BRANCH  26  29
ATOM     27  N   UNL     1      26.883 -22.202 -15.473  0.00  0.00    -0.343 N 
ATOM     28  N   UNL     1      27.646 -23.459 -17.289  0.00  0.00    -0.285 NA
ATOM     29  C   UNL     1      27.824 -23.058 -16.042  0.00  0.00    +0.117 C 
ATOM     30  H   UNL     1      26.106 -21.906 -15.999  0.00  0.00    +0.144 HD
ATOM     31  H   UNL     1      26.997 -21.895 -14.544  0.00  0.00    +0.144 HD
ATOM     32  H   UNL     1      26.863 -23.151 -17.798  0.00  0.00    +0.188 HD
ENDBRANCH  26  29
ENDBRANCH  20  21
ENDBRANCH   2  20
TORSDOF 7
ENDMDL
MODEL 2
REMARK VINA RESULT:     -11.3      2.741      6.458
REMARK  Name = 25134248
REMARK  7 active torsions:
REMARK  status: ('A' for Active; 'I' for Inactive)
REMARK    1  A    between atoms: N_2  and  C_20
REMARK    2  A    between atoms: C_3  and  C_7
REMARK    3  A    between atoms: C_11  and  C_12
REMARK    4  A    between atoms: C_12  and  C_13
REMARK    5  A    between atoms: C_13  and  C_14
REMARK    6  A    between atoms: C_20  and  C_21
REMARK    7  A    between atoms: C_26  and  C_29
REMARK                            x       y       z     vdW  Elec       q    Type
REMARK                         _______ _______ _______ _____ _____    ______ ____
ROOT
ATOM      1  O   UNL     1      34.929 -24.729 -15.632  0.00  0.00    -0.273 OA
ATOM      2  N   UNL     1      34.631 -22.555 -16.408  0.00  0.00    -0.299 N 
ATOM      3  C   UNL     1      35.043 -23.514 -15.499  0.00  0.00    +0.241 C 
ATOM      4  H   UNL     1      34.777 -21.606 -16.187  0.00  0.00    +0.150 HD
ENDROOT
BRANCH   3   7
ATOM      5  O   UNL     1      34.703 -24.959 -11.407  0.00  0.00    -0.275 OA
ATOM      6  N   UNL     1      35.669 -23.900 -13.219  0.00  0.00    -0.273 N 
ATOM      7  C   UNL     1      35.692 -22.908 -14.290  0.00  0.00    +0.152 C 
ATOM      8  C   UNL     1      37.175 -22.656 -14.545  0.00  0.00    +0.031 C 
ATOM      9  C   UNL     1      36.993 -24.469 -13.003  0.00  0.00    +0.094 C 
ATOM     10  C   UNL     1      37.829 -23.985 -14.176  0.00  0.00    +0.024 C 
ATOM     11  C   UNL     1      34.611 -24.205 -12.377  0.00  0.00    +0.226 C 
BRANCH  11  12
ATOM     12  C   UNL     1      33.293 -23.552 -12.705  0.00  0.00    +0.085 C 
BRANCH  12  13
ATOM     13  C   UNL     1      32.213 -24.604 -12.899  0.00  0.00    +0.010 C 
BRANCH  13  14
ATOM     14  C   UNL     1      31.423 -24.412 -14.192  0.00  0.00    +0.000 C 
ATOM     15  C   UNL     1      29.958 -24.826 -13.998  0.00  0.00    +0.000 C 
ATOM     16  C   UNL     1      31.520 -22.959 -14.676  0.00  0.00    +0.000 C 
ATOM     17  C   UNL     1      29.135 -24.593 -15.263  0.00  0.00    +0.000 C 
ATOM     18  C   UNL     1      30.694 -22.729 -15.939  0.00  0.00    +0.000 C 
ATOM     19  C   UNL     1      29.241 -23.151 -15.745  0.00  0.00    +0.000 C 
ENDBRANCH  13  14
ENDBRANCH  12  13
ENDBRANCH  11  12
ENDBRANCH   3   7
BRANCH   2  20
ATOM     20  C   UNL     1      33.998 -22.879 -17.666  0.00  0.00    +0.116 C 
BRANCH  20  21
ATOM     21  C   UNL     1      34.224 -21.814 -18.700  0.00  0.00    -0.003 C 
ATOM     22  C   UNL     1      35.523 -21.486 -19.089  0.00  0.00    -0.003 C 
ATOM     23  C   UNL     1      33.137 -21.154 -19.273  0.00  0.00    -0.003 C 
ATOM     24  C   UNL     1      35.734 -20.497 -20.051  0.00  0.00    +0.002 C 
ATOM     25  C   UNL     1      33.348 -20.166 -20.234  0.00  0.00    +0.002 C 
ATOM     26  C   UNL     1      34.647 -19.838 -20.623  0.00  0.00    +0.031 C 
BRANCH  26  29
ATOM     27  N   UNL     1      35.398 -17.565 -21.285  0.00  0.00    -0.343 N 
ATOM     28  N   UNL     1      34.559 -19.042 -22.890  0.00  0.00    -0.285 NA
ATOM     29  C   UNL     1      34.867 -18.808 -21.626  0.00  0.00    +0.117 C 
ATOM     30  H   UNL     1      35.540 -16.883 -21.980  0.00  0.00    +0.144 HD
ATOM     31  H   UNL     1      35.631 -17.370 -20.349  0.00  0.00    +0.144 HD
ATOM     32  H   UNL     1      34.708 -18.347 -23.570  0.00  0.00    +0.188 HD
ENDBRANCH  26  29
ENDBRANCH  20  21
ENDBRANCH   2  20
TORSDOF 7
ENDMDL
MODEL 3
REMARK VINA RESULT:     -10.6      3.125      7.317
REMARK  Name = 25134248
REMARK  7 active torsions:
REMARK  status: ('A' for Active; 'I' for Inactive)
REMARK    1  A    between atoms: N_2  and  C_20
REMARK    2  A    between atoms: C_3  and  C_7
REMARK    3  A    between atoms: C_11  and  C_12
REMARK    4  A    between atoms: C_12  and  C_13
REMARK    5  A    between atoms: C_13  and  C_14
REMARK    6  A    between atoms: C_20  and  C_21
REMARK    7  A    between atoms: C_26  and  C_29
REMARK                            x       y       z     vdW  Elec       q    Type
REMARK                         _______ _______ _______ _____ _____    ______ ____
ROOT
ATOM      1  O   UNL     1      34.335 -23.565 -16.745  0.00  0.00    -0.273 OA
ATOM      2  N   UNL     1      35.704 -21.878 -17.579  0.00  0.00    -0.299 N 
ATOM      3  C   UNL     1      35.146 -22.658 -16.581  0.00  0.00    +0.241 C 
ATOM      4  H   UNL     1      36.346 -21.177 -17.322  0.00  0.00    +0.150 HD
ENDROOT
BRANCH   3   7
ATOM      5  O   UNL     1      34.265 -24.741 -12.861  0.00  0.00    -0.275 OA
ATOM      6  N   UNL     1      35.477 -23.448 -14.345  0.00  0.00    -0.273 N 
ATOM      7  C   UNL     1      35.662 -22.295 -15.221  0.00  0.00    +0.152 C 
ATOM      8  C   UNL     1      37.173 -22.082 -15.258  0.00  0.00    +0.031 C 
ATOM      9  C   UNL     1      36.746 -24.114 -14.078  0.00  0.00    +0.094 C 
ATOM     10  C   UNL     1      37.734 -23.486 -15.049  0.00  0.00    +0.024 C 
ATOM     11  C   UNL     1      34.316 -23.832 -13.693  0.00  0.00    +0.226 C 
BRANCH  11  12
ATOM     12  C   UNL     1      33.068 -23.066 -14.054  0.00  0.00    +0.085 C 
BRANCH  12  13
ATOM     13  C   UNL     1      32.026 -23.202 -12.957  0.00  0.00    +0.010 C 
BRANCH  13  14
ATOM     14  C   UNL     1      30.618 -23.434 -13.502  0.00  0.00    +0.000 C 
ATOM     15  C   UNL     1      30.397 -22.631 -14.791  0.00  0.00    +0.000 C 
ATOM     16  C   UNL     1      30.367 -24.929 -13.739  0.00  0.00    +0.000 C 
ATOM     17  C   UNL     1      29.014 -22.888 -15.384  0.00  0.00    +0.000 C 
ATOM     18  C   UNL     1      28.985 -25.181 -14.334  0.00  0.00    +0.000 C 
ATOM     19  C   UNL     1      28.765 -24.375 -15.610  0.00  0.00    +0.000 C 
ENDBRANCH  13  14
ENDBRANCH  12  13
ENDBRANCH  11  12
ENDBRANCH   3   7
BRANCH   2  20
ATOM     20  C   UNL     1      35.390 -22.042 -18.980  0.00  0.00    +0.116 C 
BRANCH  20  21
ATOM     21  C   UNL     1      35.396 -20.733 -19.715  0.00  0.00    -0.003 C 
ATOM     22  C   UNL     1      36.596 -20.046 -19.906  0.00  0.00    -0.003 C 
ATOM     23  C   UNL     1      34.205 -20.203 -20.209  0.00  0.00    -0.003 C 
ATOM     24  C   UNL     1      36.603 -18.831 -20.589  0.00  0.00    +0.002 C 
ATOM     25  C   UNL     1      34.211 -18.988 -20.892  0.00  0.00    +0.002 C 
ATOM     26  C   UNL     1      35.410 -18.301 -21.083  0.00  0.00    +0.031 C 
BRANCH  26  29
ATOM     27  N   UNL     1      35.122 -15.836 -21.149  0.00  0.00    -0.343 N 
ATOM     28  N   UNL     1      35.707 -17.006 -23.085  0.00  0.00    -0.285 NA
ATOM     29  C   UNL     1      35.418 -17.034 -21.796  0.00  0.00    +0.117 C 
ATOM     30  H   UNL     1      35.134 -14.990 -21.651  0.00  0.00    +0.144 HD
ATOM     31  H   UNL     1      34.901 -15.837 -20.190  0.00  0.00    +0.144 HD
ATOM     32  H   UNL     1      35.713 -16.149 -23.570  0.00  0.00    +0.188 HD
ENDBRANCH  26  29
ENDBRANCH  20  21
ENDBRANCH   2  20
TORSDOF 7
ENDMDL
MODEL 4
REMARK VINA RESULT:     -10.5      8.492     12.365
REMARK  Name = 25134248
REMARK  7 active torsions:
REMARK  status: ('A' for Active; 'I' for Inactive)
REMARK    1  A    between atoms: N_2  and  C_20
REMARK    2  A    between atoms: C_3  and  C_7
REMARK    3  A    between atoms: C_11  and  C_12
REMARK    4  A    between atoms: C_12  and  C_13
REMARK    5  A    between atoms: C_13  and  C_14
REMARK    6  A    between atoms: C_20  and  C_21
REMARK    7  A    between atoms: C_26  and  C_29
REMARK                            x       y       z     vdW  Elec       q    Type
REMARK                         _______ _______ _______ _____ _____    ______ ____
ROOT
ATOM      1  O   UNL     1      34.349 -14.823 -20.610  0.00  0.00    -0.273 OA
ATOM      2  N   UNL     1      32.955 -13.559 -21.979  0.00  0.00    -0.299 N 
ATOM      3  C   UNL     1      34.040 -14.375 -21.710  0.00  0.00    +0.241 C 
ATOM      4  H   UNL     1      32.810 -13.262 -22.907  0.00  0.00    +0.150 HD
ENDROOT
BRANCH   3   7
ATOM      5  O   UNL     1      34.308 -18.267 -23.643  0.00  0.00    -0.275 OA
ATOM      6  N   UNL     1      34.333 -15.962 -23.481  0.00  0.00    -0.273 N 
ATOM      7  C   UNL     1      34.828 -14.697 -22.945  0.00  0.00    +0.152 C 
ATOM      8  C   UNL     1      34.544 -13.679 -24.046  0.00  0.00    +0.031 C 
ATOM      9  C   UNL     1      33.530 -15.746 -24.677  0.00  0.00    +0.094 C 
ATOM     10  C   UNL     1      33.307 -14.243 -24.740  0.00  0.00    +0.024 C 
ATOM     11  C   UNL     1      34.660 -17.240 -23.058  0.00  0.00    +0.226 C 
BRANCH  11  12
ATOM     12  C   UNL     1      35.496 -17.332 -21.806  0.00  0.00    +0.085 C 
BRANCH  12  13
ATOM     13  C   UNL     1      35.985 -18.755 -21.597  0.00  0.00    +0.010 C 
BRANCH  13  14
ATOM     14  C   UNL     1      35.353 -19.427 -20.380  0.00  0.00    +0.000 C 
ATOM     15  C   UNL     1      33.941 -19.929 -20.711  0.00  0.00    +0.000 C 
ATOM     16  C   UNL     1      36.236 -20.576 -19.875  0.00  0.00    +0.000 C 
ATOM     17  C   UNL     1      33.308 -20.653 -19.525  0.00  0.00    +0.000 C 
ATOM     18  C   UNL     1      35.599 -21.298 -18.691  0.00  0.00    +0.000 C 
ATOM     19  C   UNL     1      34.192 -21.787 -19.020  0.00  0.00    +0.000 C 
ENDBRANCH  13  14
ENDBRANCH  12  13
ENDBRANCH  11  12
ENDBRANCH   3   7
BRANCH   2  20
ATOM     20  C   UNL     1      32.023 -13.123 -20.965  0.00  0.00    +0.116 C 
BRANCH  20  21
ATOM     21  C   UNL     1      32.107 -11.643 -20.724  0.00  0.00    -0.003 C 
ATOM     22  C   UNL     1      32.286 -10.771 -21.798  0.00  0.00    -0.003 C 
ATOM     23  C   UNL     1      32.003 -11.139 -19.428  0.00  0.00    -0.003 C 
ATOM     24  C   UNL     1      32.362  -9.396 -21.576  0.00  0.00    +0.002 C 
ATOM     25  C   UNL     1      32.080  -9.765 -19.205  0.00  0.00    +0.002 C 
ATOM     26  C   UNL     1      32.259  -8.893 -20.279  0.00  0.00    +0.031 C 
BRANCH  26  29
ATOM     27  N   UNL     1      31.402  -6.584 -20.595  0.00  0.00    -0.343 N 
ATOM     28  N   UNL     1      33.315  -6.965 -19.309  0.00  0.00    -0.285 NA
ATOM     29  C   UNL     1      32.338  -7.459 -20.048  0.00  0.00    +0.117 C 
ATOM     30  H   UNL     1      31.474  -5.617 -20.425  0.00  0.00    +0.144 HD
ATOM     31  H   UNL     1      30.668  -6.933 -21.151  0.00  0.00    +0.144 HD
ATOM     32  H   UNL     1      33.370  -5.994 -19.150  0.00  0.00    +0.188 HD
ENDBRANCH  26  29
ENDBRANCH  20  21
ENDBRANCH   2  20
TORSDOF 7
ENDMDL
MODEL 5
REMARK VINA RESULT:     -10.1     10.294     14.307
REMARK  Name = 25134248
REMARK  7 active torsions:
REMARK  status: ('A' for Active; 'I' for Inactive)
REMARK    1  A    between atoms: N_2  and  C_20
REMARK    2  A    between atoms: C_3  and  C_7
REMARK    3  A    between atoms: C_11  and  C_12
REMARK    4  A    between atoms: C_12  and  C_13
REMARK    5  A    between atoms: C_13  and  C_14
REMARK    6  A    between atoms: C_20  and  C_21
REMARK    7  A    between atoms: C_26  and  C_29
REMARK                            x       y       z     vdW  Elec       q    Type
REMARK                         _______ _______ _______ _____ _____    ______ ____
ROOT
ATOM      1  O   UNL     1      32.737 -13.685 -22.154  0.00  0.00    -0.273 OA
ATOM      2  N   UNL     1      32.979 -11.383 -22.400  0.00  0.00    -0.299 N 
ATOM      3  C   UNL     1      33.226 -12.708 -22.715  0.00  0.00    +0.241 C 
ATOM      4  H   UNL     1      33.434 -10.684 -22.924  0.00  0.00    +0.150 HD
ENDROOT
BRANCH   3   7
ATOM      5  O   UNL     1      33.552 -16.153 -25.355  0.00  0.00    -0.275 OA
ATOM      6  N   UNL     1      33.689 -13.936 -24.718  0.00  0.00    -0.273 N 
ATOM      7  C   UNL     1      34.171 -12.850 -23.870  0.00  0.00    +0.152 C 
ATOM      8  C   UNL     1      34.117 -11.615 -24.765  0.00  0.00    +0.031 C 
ATOM      9  C   UNL     1      33.090 -13.420 -25.942  0.00  0.00    +0.094 C 
ATOM     10  C   UNL     1      32.969 -11.920 -25.722  0.00  0.00    +0.024 C 
ATOM     11  C   UNL     1      33.872 -15.297 -24.529  0.00  0.00    +0.226 C 
BRANCH  11  12
ATOM     12  C   UNL     1      34.502 -15.705 -23.221  0.00  0.00    +0.085 C 
BRANCH  12  13
ATOM     13  C   UNL     1      35.097 -17.100 -23.332  0.00  0.00    +0.010 C 
BRANCH  13  14
ATOM     14  C   UNL     1      35.191 -17.812 -21.984  0.00  0.00    +0.000 C 
ATOM     15  C   UNL     1      34.228 -19.006 -21.933  0.00  0.00    +0.000 C 
ATOM     16  C   UNL     1      36.633 -18.261 -21.708  0.00  0.00    +0.000 C 
ATOM     17  C   UNL     1      34.343 -19.767 -20.615  0.00  0.00    +0.000 C 
ATOM     18  C   UNL     1      36.743 -19.023 -20.390  0.00  0.00    +0.000 C 
ATOM     19  C   UNL     1      35.778 -20.203 -20.340  0.00  0.00    +0.000 C 
ENDBRANCH  13  14
ENDBRANCH  12  13
ENDBRANCH  11  12
ENDBRANCH   3   7
BRANCH   2  20
ATOM     20  C   UNL     1      32.085 -10.976 -21.340  0.00  0.00    +0.116 C 
BRANCH  20  21
ATOM     21  C   UNL     1      31.856  -9.492 -21.337  0.00  0.00    -0.003 C 
ATOM     22  C   UNL     1      32.004  -8.767 -20.154  0.00  0.00    -0.003 C 
ATOM     23  C   UNL     1      31.498  -8.838 -22.515  0.00  0.00    -0.003 C 
ATOM     24  C   UNL     1      31.792  -7.388 -20.150  0.00  0.00    +0.002 C 
ATOM     25  C   UNL     1      31.287  -7.460 -22.512  0.00  0.00    +0.002 C 
ATOM     26  C   UNL     1      31.434  -6.734 -21.330  0.00  0.00    +0.031 C 
BRANCH  26  29
ATOM     27  N   UNL     1      29.943  -4.757 -21.512  0.00  0.00    -0.343 N 
ATOM     28  N   UNL     1      32.234  -4.475 -21.145  0.00  0.00    -0.285 NA
ATOM     29  C   UNL     1      31.215  -5.297 -21.326  0.00  0.00    +0.117 C 
ATOM     30  H   UNL     1      29.818  -3.781 -21.506  0.00  0.00    +0.144 HD
ATOM     31  H   UNL     1      29.172  -5.352 -21.652  0.00  0.00    +0.144 HD
ATOM     32  H   UNL     1      32.087  -3.502 -21.142  0.00  0.00    +0.188 HD
ENDBRANCH  26  29
ENDBRANCH  20  21
ENDBRANCH   2  20
TORSDOF 7
ENDMDL
MODEL 6
REMARK VINA RESULT:     -10.1      7.443     11.490
REMARK  Name = 25134248
REMARK  7 active torsions:
REMARK  status: ('A' for Active; 'I' for Inactive)
REMARK    1  A    between atoms: N_2  and  C_20
REMARK    2  A    between atoms: C_3  and  C_7
REMARK    3  A    between atoms: C_11  and  C_12
REMARK    4  A    between atoms: C_12  and  C_13
REMARK    5  A    between atoms: C_13  and  C_14
REMARK    6  A    between atoms: C_20  and  C_21
REMARK    7  A    between atoms: C_26  and  C_29
REMARK                            x       y       z     vdW  Elec       q    Type
REMARK                         _______ _______ _______ _____ _____    ______ ____
ROOT
ATOM      1  O   UNL     1      35.596 -14.712 -22.468  0.00  0.00    -0.273 OA
ATOM      2  N   UNL     1      34.940 -16.941 -22.604  0.00  0.00    -0.299 N 
ATOM      3  C   UNL     1      34.796 -15.579 -22.808  0.00  0.00    +0.241 C 
ATOM      4  H   UNL     1      34.226 -17.541 -22.923  0.00  0.00    +0.150 HD
ENDROOT
BRANCH   3   7
ATOM      5  O   UNL     1      33.491 -11.600 -23.996  0.00  0.00    -0.275 OA
ATOM      6  N   UNL     1      33.665 -13.902 -24.091  0.00  0.00    -0.273 N 
ATOM      7  C   UNL     1      33.527 -15.245 -23.534  0.00  0.00    +0.152 C 
ATOM      8  C   UNL     1      33.350 -16.147 -24.752  0.00  0.00    +0.031 C 
ATOM      9  C   UNL     1      33.867 -13.951 -25.533  0.00  0.00    +0.094 C 
ATOM     10  C   UNL     1      34.120 -15.416 -25.849  0.00  0.00    +0.024 C 
ATOM     11  C   UNL     1      33.490 -12.696 -23.432  0.00  0.00    +0.226 C 
BRANCH  11  12
ATOM     12  C   UNL     1      33.290 -12.778 -21.939  0.00  0.00    +0.085 C 
BRANCH  12  13
ATOM     13  C   UNL     1      31.813 -12.674 -21.595  0.00  0.00    +0.010 C 
BRANCH  13  14
ATOM     14  C   UNL     1      31.480 -11.425 -20.783  0.00  0.00    +0.000 C 
ATOM     15  C   UNL     1      32.181 -11.463 -19.418  0.00  0.00    +0.000 C 
ATOM     16  C   UNL     1      31.862 -10.156 -21.557  0.00  0.00    +0.000 C 
ATOM     17  C   UNL     1      31.906 -10.199 -18.607  0.00  0.00    +0.000 C 
ATOM     18  C   UNL     1      31.588  -8.894 -20.743  0.00  0.00    +0.000 C 
ATOM     19  C   UNL     1      32.278  -8.940 -19.384  0.00  0.00    +0.000 C 
ENDBRANCH  13  14
ENDBRANCH  12  13
ENDBRANCH  11  12
ENDBRANCH   3   7
BRANCH   2  20
ATOM     20  C   UNL     1      36.087 -17.525 -21.948  0.00  0.00    +0.116 C 
BRANCH  20  21
ATOM     21  C   UNL     1      35.706 -18.697 -21.089  0.00  0.00    -0.003 C 
ATOM     22  C   UNL     1      34.375 -19.107 -21.020  0.00  0.00    -0.003 C 
ATOM     23  C   UNL     1      36.683 -19.377 -20.362  0.00  0.00    -0.003 C 
ATOM     24  C   UNL     1      34.021 -20.196 -20.223  0.00  0.00    +0.002 C 
ATOM     25  C   UNL     1      36.330 -20.465 -19.565  0.00  0.00    +0.002 C 
ATOM     26  C   UNL     1      34.998 -20.875 -19.496  0.00  0.00    +0.031 C 
BRANCH  26  29
ATOM     27  N   UNL     1      33.486 -22.763 -18.933  0.00  0.00    -0.343 N 
ATOM     28  N   UNL     1      35.383 -22.345 -17.634  0.00  0.00    -0.285 NA
ATOM     29  C   UNL     1      34.629 -22.011 -18.666  0.00  0.00    +0.117 C 
ATOM     30  H   UNL     1      33.255 -23.527 -18.359  0.00  0.00    +0.144 HD
ATOM     31  H   UNL     1      32.909 -22.527 -19.696  0.00  0.00    +0.144 HD
ATOM     32  H   UNL     1      35.135 -23.114 -17.071  0.00  0.00    +0.188 HD
ENDBRANCH  26  29
ENDBRANCH  20  21
ENDBRANCH   2  20
TORSDOF 7
ENDMDL
MODEL 7
REMARK VINA RESULT:     -10.0      2.809      6.776
REMARK  Name = 25134248
REMARK  7 active torsions:
REMARK  status: ('A' for Active; 'I' for Inactive)
REMARK    1  A    between atoms: N_2  and  C_20
REMARK    2  A    between atoms: C_3  and  C_7
REMARK    3  A    between atoms: C_11  and  C_12
REMARK    4  A    between atoms: C_12  and  C_13
REMARK    5  A    between atoms: C_13  and  C_14
REMARK    6  A    between atoms: C_20  and  C_21
REMARK    7  A    between atoms: C_26  and  C_29
REMARK                            x       y       z     vdW  Elec       q    Type
REMARK                         _______ _______ _______ _____ _____    ______ ____
ROOT
ATOM      1  O   UNL     1      35.121 -24.695 -15.861  0.00  0.00    -0.273 OA
ATOM      2  N   UNL     1      33.926 -22.816 -16.536  0.00  0.00    -0.299 N 
ATOM      3  C   UNL     1      34.559 -23.632 -15.614  0.00  0.00    +0.241 C 
ATOM      4  H   UNL     1      33.509 -21.983 -16.215  0.00  0.00    +0.150 HD
ENDROOT
BRANCH   3   7
ATOM      5  O   UNL     1      32.079 -25.056 -12.333  0.00  0.00    -0.275 OA
ATOM      6  N   UNL     1      33.893 -24.052 -13.352  0.00  0.00    -0.273 N 
ATOM      7  C   UNL     1      34.515 -23.063 -14.228  0.00  0.00    +0.152 C 
ATOM      8  C   UNL     1      35.926 -22.893 -13.670  0.00  0.00    +0.031 C 
ATOM      9  C   UNL     1      34.885 -24.694 -12.498  0.00  0.00    +0.094 C 
ATOM     10  C   UNL     1      36.230 -24.256 -13.055  0.00  0.00    +0.024 C 
ATOM     11  C   UNL     1      32.540 -24.298 -13.188  0.00  0.00    +0.226 C 
BRANCH  11  12
ATOM     12  C   UNL     1      31.614 -23.573 -14.133  0.00  0.00    +0.085 C 
BRANCH  12  13
ATOM     13  C   UNL     1      30.307 -23.232 -13.438  0.00  0.00    +0.010 C 
BRANCH  13  14
ATOM     14  C   UNL     1      29.087 -23.444 -14.333  0.00  0.00    +0.000 C 
ATOM     15  C   UNL     1      28.367 -22.114 -14.591  0.00  0.00    +0.000 C 
ATOM     16  C   UNL     1      29.492 -24.111 -15.654  0.00  0.00    +0.000 C 
ATOM     17  C   UNL     1      27.174 -22.290 -15.527  0.00  0.00    +0.000 C 
ATOM     18  C   UNL     1      28.298 -24.285 -16.587  0.00  0.00    +0.000 C 
ATOM     19  C   UNL     1      27.579 -22.962 -16.835  0.00  0.00    +0.000 C 
ENDBRANCH  13  14
ENDBRANCH  12  13
ENDBRANCH  11  12
ENDBRANCH   3   7
BRANCH   2  20
ATOM     20  C   UNL     1      33.848 -23.126 -17.945  0.00  0.00    +0.116 C 
BRANCH  20  21
ATOM     21  C   UNL     1      34.181 -21.938 -18.801  0.00  0.00    -0.003 C 
ATOM     22  C   UNL     1      33.158 -21.188 -19.381  0.00  0.00    -0.003 C 
ATOM     23  C   UNL     1      35.513 -21.583 -19.015  0.00  0.00    -0.003 C 
ATOM     24  C   UNL     1      33.466 -20.084 -20.176  0.00  0.00    +0.002 C 
ATOM     25  C   UNL     1      35.822 -20.480 -19.810  0.00  0.00    +0.002 C 
ATOM     26  C   UNL     1      34.798 -19.730 -20.390  0.00  0.00    +0.031 C 
BRANCH  26  29
ATOM     27  N   UNL     1      35.590 -17.391 -20.658  0.00  0.00    -0.343 N 
ATOM     28  N   UNL     1      34.964 -18.645 -22.528  0.00  0.00    -0.285 NA
ATOM     29  C   UNL     1      35.120 -18.578 -21.218  0.00  0.00    +0.117 C 
ATOM     30  H   UNL     1      35.801 -16.624 -21.237  0.00  0.00    +0.144 HD
ATOM     31  H   UNL     1      35.709 -17.321 -19.684  0.00  0.00    +0.144 HD
ATOM     32  H   UNL     1      35.181 -17.867 -23.090  0.00  0.00    +0.188 HD
ENDBRANCH  26  29
ENDBRANCH  20  21
ENDBRANCH   2  20
TORSDOF 7
ENDMDL
MODEL 8
REMARK VINA RESULT:      -9.6      2.286      6.485
REMARK  Name = 25134248
REMARK  7 active torsions:
REMARK  status: ('A' for Active; 'I' for Inactive)
REMARK    1  A    between atoms: N_2  and  C_20
REMARK    2  A    between atoms: C_3  and  C_7
REMARK    3  A    between atoms: C_11  and  C_12
REMARK    4  A    between atoms: C_12  and  C_13
REMARK    5  A    between atoms: C_13  and  C_14
REMARK    6  A    between atoms: C_20  and  C_21
REMARK    7  A    between atoms: C_26  and  C_29
REMARK                            x       y       z     vdW  Elec       q    Type
REMARK                         _______ _______ _______ _____ _____    ______ ____
ROOT
ATOM      1  O   UNL     1      33.200 -25.011 -13.874  0.00  0.00    -0.273 OA
ATOM      2  N   UNL     1      34.073 -23.436 -12.400  0.00  0.00    -0.299 N 
ATOM      3  C   UNL     1      33.289 -23.859 -13.460  0.00  0.00    +0.241 C 
ATOM      4  H   UNL     1      34.061 -22.480 -12.161  0.00  0.00    +0.150 HD
ENDROOT
BRANCH   3   7
ATOM      5  O   UNL     1      32.351 -23.383 -17.684  0.00  0.00    -0.275 OA
ATOM      6  N   UNL     1      32.075 -23.155 -15.401  0.00  0.00    -0.273 N 
ATOM      7  C   UNL     1      32.506 -22.735 -14.071  0.00  0.00    +0.152 C 
ATOM      8  C   UNL     1      31.207 -22.506 -13.304  0.00  0.00    +0.031 C 
ATOM      9  C   UNL     1      30.652 -23.466 -15.418  0.00  0.00    +0.094 C 
ATOM     10  C   UNL     1      30.233 -23.482 -13.957  0.00  0.00    +0.024 C 
ATOM     11  C   UNL     1      32.820 -23.141 -16.570  0.00  0.00    +0.226 C 
BRANCH  11  12
ATOM     12  C   UNL     1      34.282 -22.804 -16.422  0.00  0.00    +0.085 C 
BRANCH  12  13
ATOM     13  C   UNL     1      34.976 -22.847 -17.773  0.00  0.00    +0.010 C 
BRANCH  13  14
ATOM     14  C   UNL     1      35.053 -21.477 -18.444  0.00  0.00    +0.000 C 
ATOM     15  C   UNL     1      36.424 -21.273 -19.102  0.00  0.00    +0.000 C 
ATOM     16  C   UNL     1      33.925 -21.312 -19.470  0.00  0.00    +0.000 C 
ATOM     17  C   UNL     1      36.508 -19.931 -19.827  0.00  0.00    +0.000 C 
ATOM     18  C   UNL     1      34.012 -19.971 -20.194  0.00  0.00    +0.000 C 
ATOM     19  C   UNL     1      35.379 -19.767 -20.839  0.00  0.00    +0.000 C 
ENDBRANCH  13  14
ENDBRANCH  12  13
ENDBRANCH  11  12
ENDBRANCH   3   7
BRANCH   2  20
ATOM     20  C   UNL     1      34.905 -24.329 -11.627  0.00  0.00    +0.116 C 
BRANCH  20  21
ATOM     21  C   UNL     1      36.207 -24.622 -12.317  0.00  0.00    -0.003 C 
ATOM     22  C   UNL     1      36.988 -25.701 -11.902  0.00  0.00    -0.003 C 
ATOM     23  C   UNL     1      36.633 -23.818 -13.374  0.00  0.00    -0.003 C 
ATOM     24  C   UNL     1      38.196 -25.974 -12.543  0.00  0.00    +0.002 C 
ATOM     25  C   UNL     1      37.841 -24.091 -14.015  0.00  0.00    +0.002 C 
ATOM     26  C   UNL     1      38.623 -25.170 -13.600  0.00  0.00    +0.031 C 
BRANCH  26  29
ATOM     27  N   UNL     1      40.724 -26.474 -13.824  0.00  0.00    -0.343 N 
ATOM     28  N   UNL     1      40.247 -24.742 -15.318  0.00  0.00    -0.285 NA
ATOM     29  C   UNL     1      39.882 -25.456 -14.268  0.00  0.00    +0.117 C 
ATOM     30  H   UNL     1      41.572 -26.651 -14.291  0.00  0.00    +0.144 HD
ATOM     31  H   UNL     1      40.471 -27.015 -13.041  0.00  0.00    +0.144 HD
ATOM     32  H   UNL     1      41.099 -24.934 -15.773  0.00  0.00    +0.188 HD
ENDBRANCH  26  29
ENDBRANCH  20  21
ENDBRANCH   2  20
TORSDOF 7
ENDMDL
MODEL 9
REMARK VINA RESULT:      -9.5      4.947      8.476
REMARK  Name = 25134248
REMARK  7 active torsions:
REMARK  status: ('A' for Active; 'I' for Inactive)
REMARK    1  A    between atoms: N_2  and  C_20
REMARK    2  A    between atoms: C_3  and  C_7
REMARK    3  A    between atoms: C_11  and  C_12
REMARK    4  A    between atoms: C_12  and  C_13
REMARK    5  A    between atoms: C_13  and  C_14
REMARK    6  A    between atoms: C_20  and  C_21
REMARK    7  A    between atoms: C_26  and  C_29
REMARK                            x       y       z     vdW  Elec       q    Type
REMARK                         _______ _______ _______ _____ _____    ______ ____
ROOT
ATOM      1  O   UNL     1      36.783 -18.379 -20.463  0.00  0.00    -0.273 OA
ATOM      2  N   UNL     1      35.556 -20.286 -19.938  0.00  0.00    -0.299 N 
ATOM      3  C   UNL     1      35.759 -19.052 -20.534  0.00  0.00    +0.241 C 
ATOM      4  H   UNL     1      34.687 -20.731 -20.067  0.00  0.00    +0.150 HD
ENDROOT
BRANCH   3   7
ATOM      5  O   UNL     1      35.427 -15.340 -22.783  0.00  0.00    -0.275 OA
ATOM      6  N   UNL     1      35.004 -17.545 -22.235  0.00  0.00    -0.273 N 
ATOM      7  C   UNL     1      34.569 -18.603 -21.328  0.00  0.00    +0.152 C 
ATOM      8  C   UNL     1      34.084 -19.719 -22.249  0.00  0.00    +0.031 C 
ATOM      9  C   UNL     1      35.085 -18.030 -23.607  0.00  0.00    +0.094 C 
ATOM     10  C   UNL     1      34.935 -19.539 -23.503  0.00  0.00    +0.024 C 
ATOM     11  C   UNL     1      35.188 -16.204 -21.937  0.00  0.00    +0.226 C 
BRANCH  11  12
ATOM     12  C   UNL     1      35.078 -15.827 -20.481  0.00  0.00    +0.085 C 
BRANCH  12  13
ATOM     13  C   UNL     1      34.983 -14.318 -20.329  0.00  0.00    +0.010 C 
BRANCH  13  14
ATOM     14  C   UNL     1      33.721 -13.737 -20.964  0.00  0.00    +0.000 C 
ATOM     15  C   UNL     1      32.791 -13.159 -19.889  0.00  0.00    +0.000 C 
ATOM     16  C   UNL     1      34.081 -12.670 -22.006  0.00  0.00    +0.000 C 
ATOM     17  C   UNL     1      31.546 -12.523 -20.503  0.00  0.00    +0.000 C 
ATOM     18  C   UNL     1      32.834 -12.035 -22.617  0.00  0.00    +0.000 C 
ATOM     19  C   UNL     1      31.907 -11.470 -21.545  0.00  0.00    +0.000 C 
ENDBRANCH  13  14
ENDBRANCH  12  13
ENDBRANCH  11  12
ENDBRANCH   3   7
BRANCH   2  20
ATOM     20  C   UNL     1      36.558 -20.951 -19.137  0.00  0.00    +0.116 C 
BRANCH  20  21
ATOM     21  C   UNL     1      35.954 -21.670 -17.966  0.00  0.00    -0.003 C 
ATOM     22  C   UNL     1      34.651 -22.163 -18.046  0.00  0.00    -0.003 C 
ATOM     23  C   UNL     1      36.695 -21.849 -16.798  0.00  0.00    -0.003 C 
ATOM     24  C   UNL     1      34.090 -22.832 -16.959  0.00  0.00    +0.002 C 
ATOM     25  C   UNL     1      36.134 -22.518 -15.710  0.00  0.00    +0.002 C 
ATOM     26  C   UNL     1      34.832 -23.010 -15.791  0.00  0.00    +0.031 C 
BRANCH  26  29
ATOM     27  N   UNL     1      34.723 -24.953 -14.248  0.00  0.00    -0.343 N 
ATOM     28  N   UNL     1      33.239 -23.166 -13.998  0.00  0.00    -0.285 NA
ATOM     29  C   UNL     1      34.246 -23.709 -14.658  0.00  0.00    +0.117 C 
ATOM     30  H   UNL     1      34.312 -25.408 -13.478  0.00  0.00    +0.144 HD
ATOM     31  H   UNL     1      35.471 -25.376 -14.729  0.00  0.00    +0.144 HD
ATOM     32  H   UNL     1      32.841 -23.637 -13.231  0.00  0.00    +0.188 HD
ENDBRANCH  26  29
ENDBRANCH  20  21
ENDBRANCH   2  20
TORSDOF 7
ENDMDL
