MODEL 1
REMARK VINA RESULT:     -12.6      0.000      0.000
REMARK  Name = 11476460
REMARK  8 active torsions:
REMARK  status: ('A' for Active; 'I' for Inactive)
REMARK    1  A    between atoms: C_2  and  N_10
REMARK    2  A    between atoms: C_5  and  C_23
REMARK    3  A    between atoms: C_11  and  C_14
REMARK    4  A    between atoms: C_14  and  O_15
REMARK    5  A    between atoms: O_15  and  P_16
REMARK    6  A    between atoms: P_16  and  O_18
REMARK    7  A    between atoms: P_16  and  O_20
REMARK    8  A    between atoms: C_27  and  C_32
REMARK                            x       y       z     vdW  Elec       q    Type
REMARK                         _______ _______ _______ _____ _____    ______ ____
ROOT
ATOM      1  F   UNL     1      33.233 -22.432 -17.886  0.00  0.00    -0.204 F 
ATOM      2  C   UNL     1      36.002 -23.112 -15.624  0.00  0.00    +0.059 C 
ATOM      3  C   UNL     1      34.726 -23.133 -16.197  0.00  0.00    +0.045 C 
ATOM      4  C   UNL     1      37.013 -22.351 -16.220  0.00  0.00    +0.015 C 
ATOM      5  C   UNL     1      35.476 -21.642 -17.944  0.00  0.00    +0.029 C 
ATOM      6  C   UNL     1      34.464 -22.399 -17.354  0.00  0.00    +0.141 C 
ATOM      7  C   UNL     1      36.750 -21.618 -17.377  0.00  0.00    +0.004 C 
ENDROOT
BRANCH   2  10
ATOM      8  O   UNL     1      36.502 -25.560 -12.975  0.00  0.00    -0.434 OA
ATOM      9  O   UNL     1      35.787 -26.093 -15.060  0.00  0.00    -0.226 OA
ATOM     10  N   UNL     1      36.270 -23.860 -14.443  0.00  0.00    -0.221 N 
ATOM     11  C   UNL     1      37.079 -24.408 -12.345  0.00  0.00    +0.221 C 
ATOM     12  C   UNL     1      36.608 -23.243 -13.189  0.00  0.00    +0.148 C 
ATOM     13  C   UNL     1      36.154 -25.237 -14.268  0.00  0.00    +0.409 C 
BRANCH  11  14
ATOM     14  C   UNL     1      38.594 -24.564 -12.330  0.00  0.00    +0.199 C 
BRANCH  14  15
ATOM     15  O   UNL     1      39.058 -24.605 -13.668  0.00  0.00    -0.269 OA
BRANCH  15  16
ATOM     16  P   UNL     1      39.884 -25.907 -14.160  0.00  0.00    +0.473 P 
ATOM     17  O   UNL     1      41.059 -26.276 -13.300  0.00  0.00    -0.227 OA
BRANCH  16  18
ATOM     18  O   UNL     1      40.233 -25.581 -15.704  0.00  0.00    -0.303 OA
ATOM     19  H   UNL     1      40.302 -26.411 -16.203  0.00  0.00    +0.222 HD
ENDBRANCH  16  18
BRANCH  16  20
ATOM     20  O   UNL     1      38.737 -27.043 -14.271  0.00  0.00    -0.303 OA
ATOM     21  H   UNL     1      39.134 -27.875 -14.571  0.00  0.00    +0.222 HD
ENDBRANCH  16  20
ENDBRANCH  15  16
ENDBRANCH  14  15
ENDBRANCH  11  14
ENDBRANCH   2  10
BRANCH   5  23
ATOM     22  N   UNL     1      36.056 -19.560 -20.981  0.00  0.00    -0.234 NA
ATOM     23  C   UNL     1      35.208 -20.879 -19.144  0.00  0.00    +0.021 C 
ATOM     24  C   UNL     1      33.911 -20.718 -19.613  0.00  0.00    +0.004 C 
ATOM     25  C   UNL     1      36.236 -20.287 -19.855  0.00  0.00    +0.100 C 
ATOM     26  C   UNL     1      33.684 -19.977 -20.768  0.00  0.00    +0.029 C 
ATOM     27  C   UNL     1      34.781 -19.424 -21.409  0.00  0.00    +0.146 C 
BRANCH  27  32
ATOM     28  N   UNL     1      34.988 -17.375 -22.716  0.00  0.00    -0.105 NA
ATOM     29  N   UNL     1      34.606 -17.147 -23.980  0.00  0.00    -0.113 N 
ATOM     30  N   UNL     1      34.030 -19.160 -23.728  0.00  0.00    -0.085 NA
ATOM     31  N   UNL     1      34.034 -18.177 -24.619  0.00  0.00    -0.018 NA
ATOM     32  C   UNL     1      34.606 -18.649 -22.604  0.00  0.00    +0.092 C 
ATOM     33  C   UNL     1      34.798 -15.869 -24.617  0.00  0.00    +0.163 C 
ENDBRANCH  27  32
ENDBRANCH   5  23
TORSDOF 8
ENDMDL
MODEL 2
REMARK VINA RESULT:     -11.6      7.243     11.155
REMARK  Name = 11476460
REMARK  8 active torsions:
REMARK  status: ('A' for Active; 'I' for Inactive)
REMARK    1  A    between atoms: C_2  and  N_10
REMARK    2  A    between atoms: C_5  and  C_23
REMARK    3  A    between atoms: C_11  and  C_14
REMARK    4  A    between atoms: C_14  and  O_15
REMARK    5  A    between atoms: O_15  and  P_16
REMARK    6  A    between atoms: P_16  and  O_18
REMARK    7  A    between atoms: P_16  and  O_20
REMARK    8  A    between atoms: C_27  and  C_32
REMARK                            x       y       z     vdW  Elec       q    Type
REMARK                         _______ _______ _______ _____ _____    ______ ____
ROOT
ATOM      1  F   UNL     1      32.958 -20.838 -19.669  0.00  0.00    -0.204 F 
ATOM      2  C   UNL     1      34.965 -18.796 -21.916  0.00  0.00    +0.059 C 
ATOM      3  C   UNL     1      33.863 -19.433 -21.337  0.00  0.00    +0.045 C 
ATOM      4  C   UNL     1      36.234 -18.968 -21.354  0.00  0.00    +0.015 C 
ATOM      5  C   UNL     1      35.296 -20.403 -19.651  0.00  0.00    +0.029 C 
ATOM      6  C   UNL     1      34.028 -20.235 -20.208  0.00  0.00    +0.141 C 
ATOM      7  C   UNL     1      36.399 -19.770 -20.224  0.00  0.00    +0.004 C 
ENDROOT
BRANCH   2  10
ATOM      8  O   UNL     1      34.219 -17.244 -25.124  0.00  0.00    -0.434 OA
ATOM      9  O   UNL     1      33.624 -19.366 -24.586  0.00  0.00    -0.226 OA
ATOM     10  N   UNL     1      34.797 -17.979 -23.069  0.00  0.00    -0.221 N 
ATOM     11  C   UNL     1      34.707 -16.097 -24.414  0.00  0.00    +0.221 C 
ATOM     12  C   UNL     1      35.390 -16.675 -23.193  0.00  0.00    +0.148 C 
ATOM     13  C   UNL     1      34.156 -18.314 -24.260  0.00  0.00    +0.409 C 
BRANCH  11  14
ATOM     14  C   UNL     1      33.529 -15.194 -24.070  0.00  0.00    +0.199 C 
BRANCH  14  15
ATOM     15  O   UNL     1      33.924 -13.846 -24.251  0.00  0.00    -0.269 OA
BRANCH  15  16
ATOM     16  P   UNL     1      33.893 -12.854 -22.972  0.00  0.00    +0.473 P 
ATOM     17  O   UNL     1      32.544 -12.678 -22.338  0.00  0.00    -0.227 OA
BRANCH  16  18
ATOM     18  O   UNL     1      34.581 -11.497 -23.521  0.00  0.00    -0.303 OA
ATOM     19  H   UNL     1      34.215 -10.734 -23.047  0.00  0.00    +0.222 HD
ENDBRANCH  16  18
BRANCH  16  20
ATOM     20  O   UNL     1      35.027 -13.479 -22.002  0.00  0.00    -0.303 OA
ATOM     21  H   UNL     1      35.359 -14.306 -22.385  0.00  0.00    +0.222 HD
ENDBRANCH  16  20
ENDBRANCH  15  16
ENDBRANCH  14  15
ENDBRANCH  11  14
ENDBRANCH   2  10
BRANCH   5  23
ATOM     22  N   UNL     1      34.565 -22.886 -16.969  0.00  0.00    -0.234 NA
ATOM     23  C   UNL     1      35.472 -21.235 -18.480  0.00  0.00    +0.021 C 
ATOM     24  C   UNL     1      36.653 -21.201 -17.751  0.00  0.00    +0.004 C 
ATOM     25  C   UNL     1      34.467 -22.085 -18.053  0.00  0.00    +0.100 C 
ATOM     26  C   UNL     1      36.793 -22.010 -16.629  0.00  0.00    +0.029 C 
ATOM     27  C   UNL     1      35.729 -22.828 -16.283  0.00  0.00    +0.146 C 
BRANCH  27  32
ATOM     28  N   UNL     1      36.818 -24.542 -14.933  0.00  0.00    -0.105 NA
ATOM     29  N   UNL     1      36.422 -25.063 -13.764  0.00  0.00    -0.113 N 
ATOM     30  N   UNL     1      34.875 -23.683 -14.150  0.00  0.00    -0.085 NA
ATOM     31  N   UNL     1      35.275 -24.584 -13.262  0.00  0.00    -0.018 NA
ATOM     32  C   UNL     1      35.817 -23.683 -15.134  0.00  0.00    +0.092 C 
ATOM     33  C   UNL     1      37.183 -26.080 -13.084  0.00  0.00    +0.163 C 
ENDBRANCH  27  32
ENDBRANCH   5  23
TORSDOF 8
ENDMDL
MODEL 3
REMARK VINA RESULT:     -11.3      1.838      2.486
REMARK  Name = 11476460
REMARK  8 active torsions:
REMARK  status: ('A' for Active; 'I' for Inactive)
REMARK    1  A    between atoms: C_2  and  N_10
REMARK    2  A    between atoms: C_5  and  C_23
REMARK    3  A    between atoms: C_11  and  C_14
REMARK    4  A    between atoms: C_14  and  O_15
REMARK    5  A    between atoms: O_15  and  P_16
REMARK    6  A    between atoms: P_16  and  O_18
REMARK    7  A    between atoms: P_16  and  O_20
REMARK    8  A    between atoms: C_27  and  C_32
REMARK                            x       y       z     vdW  Elec       q    Type
REMARK                         _______ _______ _______ _____ _____    ______ ____
ROOT
ATOM      1  F   UNL     1      36.994 -20.931 -17.804  0.00  0.00    -0.204 F 
ATOM      2  C   UNL     1      34.836 -23.173 -15.915  0.00  0.00    +0.059 C 
ATOM      3  C   UNL     1      35.951 -22.419 -16.296  0.00  0.00    +0.045 C 
ATOM      4  C   UNL     1      33.683 -23.145 -16.707  0.00  0.00    +0.015 C 
ATOM      5  C   UNL     1      34.761 -21.622 -18.242  0.00  0.00    +0.029 C 
ATOM      6  C   UNL     1      35.914 -21.646 -17.456  0.00  0.00    +0.141 C 
ATOM      7  C   UNL     1      33.646 -22.373 -17.867  0.00  0.00    +0.004 C 
ENDROOT
BRANCH   2  10
ATOM      8  O   UNL     1      35.443 -25.515 -13.194  0.00  0.00    -0.434 OA
ATOM      9  O   UNL     1      36.632 -25.497 -15.125  0.00  0.00    -0.226 OA
ATOM     10  N   UNL     1      34.874 -23.962 -14.731  0.00  0.00    -0.221 N 
ATOM     11  C   UNL     1      34.512 -24.636 -12.547  0.00  0.00    +0.221 C 
ATOM     12  C   UNL     1      33.903 -23.836 -13.679  0.00  0.00    +0.148 C 
ATOM     13  C   UNL     1      35.742 -25.012 -14.441  0.00  0.00    +0.409 C 
BRANCH  11  14
ATOM     14  C   UNL     1      35.265 -23.776 -11.542  0.00  0.00    +0.199 C 
BRANCH  14  15
ATOM     15  O   UNL     1      36.336 -23.132 -12.209  0.00  0.00    -0.269 OA
BRANCH  15  16
ATOM     16  P   UNL     1      37.846 -23.414 -11.698  0.00  0.00    +0.473 P 
ATOM     17  O   UNL     1      38.639 -22.186 -11.354  0.00  0.00    -0.227 OA
BRANCH  16  18
ATOM     18  O   UNL     1      38.479 -24.342 -12.861  0.00  0.00    -0.303 OA
ATOM     19  H   UNL     1      39.386 -24.588 -12.621  0.00  0.00    +0.222 HD
ENDBRANCH  16  18
BRANCH  16  20
ATOM     20  O   UNL     1      37.626 -24.450 -10.475  0.00  0.00    -0.303 OA
ATOM     21  H   UNL     1      37.418 -25.328 -10.830  0.00  0.00    +0.222 HD
ENDBRANCH  16  20
ENDBRANCH  15  16
ENDBRANCH  14  15
ENDBRANCH  11  14
ENDBRANCH   2  10
BRANCH   5  23
ATOM     22  N   UNL     1      33.401 -19.761 -21.171  0.00  0.00    -0.234 NA
ATOM     23  C   UNL     1      34.718 -20.823 -19.447  0.00  0.00    +0.021 C 
ATOM     24  C   UNL     1      35.886 -20.359 -20.039  0.00  0.00    +0.004 C 
ATOM     25  C   UNL     1      33.513 -20.501 -20.045  0.00  0.00    +0.100 C 
ATOM     26  C   UNL     1      35.813 -19.595 -21.198  0.00  0.00    +0.029 C 
ATOM     27  C   UNL     1      34.558 -19.326 -21.719  0.00  0.00    +0.146 C 
BRANCH  27  32
ATOM     28  N   UNL     1      34.859 -17.286 -23.022  0.00  0.00    -0.105 NA
ATOM     29  N   UNL     1      34.495 -17.041 -24.288  0.00  0.00    -0.113 N 
ATOM     30  N   UNL     1      33.832 -19.028 -24.042  0.00  0.00    -0.085 NA
ATOM     31  N   UNL     1      33.883 -18.045 -24.932  0.00  0.00    -0.018 NA
ATOM     32  C   UNL     1      34.423 -18.543 -22.914  0.00  0.00    +0.092 C 
ATOM     33  C   UNL     1      34.745 -15.772 -24.922  0.00  0.00    +0.163 C 
ENDBRANCH  27  32
ENDBRANCH   5  23
TORSDOF 8
ENDMDL
MODEL 4
REMARK VINA RESULT:     -11.0      3.082      4.745
REMARK  Name = 11476460
REMARK  8 active torsions:
REMARK  status: ('A' for Active; 'I' for Inactive)
REMARK    1  A    between atoms: C_2  and  N_10
REMARK    2  A    between atoms: C_5  and  C_23
REMARK    3  A    between atoms: C_11  and  C_14
REMARK    4  A    between atoms: C_14  and  O_15
REMARK    5  A    between atoms: O_15  and  P_16
REMARK    6  A    between atoms: P_16  and  O_18
REMARK    7  A    between atoms: P_16  and  O_20
REMARK    8  A    between atoms: C_27  and  C_32
REMARK                            x       y       z     vdW  Elec       q    Type
REMARK                         _______ _______ _______ _____ _____    ______ ____
ROOT
ATOM      1  F   UNL     1      37.191 -19.712 -20.191  0.00  0.00    -0.204 F 
ATOM      2  C   UNL     1      35.087 -21.755 -18.036  0.00  0.00    +0.059 C 
ATOM      3  C   UNL     1      36.221 -21.170 -18.608  0.00  0.00    +0.045 C 
ATOM      4  C   UNL     1      33.819 -21.419 -18.523  0.00  0.00    +0.015 C 
ATOM      5  C   UNL     1      34.823 -19.928 -20.137  0.00  0.00    +0.029 C 
ATOM      6  C   UNL     1      36.090 -20.260 -19.656  0.00  0.00    +0.141 C 
ATOM      7  C   UNL     1      33.688 -20.508 -19.571  0.00  0.00    +0.004 C 
ENDROOT
BRANCH   2  10
ATOM      8  O   UNL     1      36.050 -23.872 -15.235  0.00  0.00    -0.434 OA
ATOM      9  O   UNL     1      37.410 -22.306 -16.153  0.00  0.00    -0.226 OA
ATOM     10  N   UNL     1      35.220 -22.685 -16.967  0.00  0.00    -0.221 N 
ATOM     11  C   UNL     1      34.657 -24.202 -15.313  0.00  0.00    +0.221 C 
ATOM     12  C   UNL     1      34.220 -23.671 -16.661  0.00  0.00    +0.148 C 
ATOM     13  C   UNL     1      36.325 -22.870 -16.139  0.00  0.00    +0.409 C 
BRANCH  11  14
ATOM     14  C   UNL     1      33.931 -23.545 -14.146  0.00  0.00    +0.199 C 
BRANCH  14  15
ATOM     15  O   UNL     1      32.539 -23.565 -14.410  0.00  0.00    -0.269 OA
BRANCH  15  16
ATOM     16  P   UNL     1      31.571 -24.374 -13.394  0.00  0.00    +0.473 P 
ATOM     17  O   UNL     1      30.433 -25.102 -14.048  0.00  0.00    -0.227 OA
BRANCH  16  18
ATOM     18  O   UNL     1      31.144 -23.260 -12.302  0.00  0.00    -0.303 OA
ATOM     19  H   UNL     1      31.678 -22.460 -12.430  0.00  0.00    +0.222 HD
ENDBRANCH  16  18
BRANCH  16  20
ATOM     20  O   UNL     1      32.607 -25.314 -12.581  0.00  0.00    -0.303 OA
ATOM     21  H   UNL     1      32.374 -26.245 -12.720  0.00  0.00    +0.222 HD
ENDBRANCH  16  20
ENDBRANCH  15  16
ENDBRANCH  14  15
ENDBRANCH  11  14
ENDBRANCH   2  10
BRANCH   5  23
ATOM     22  N   UNL     1      34.809 -16.702 -22.005  0.00  0.00    -0.234 NA
ATOM     23  C   UNL     1      34.682 -18.984 -21.226  0.00  0.00    +0.021 C 
ATOM     24  C   UNL     1      34.296 -19.406 -22.491  0.00  0.00    +0.004 C 
ATOM     25  C   UNL     1      34.924 -17.636 -21.034  0.00  0.00    +0.100 C 
ATOM     26  C   UNL     1      34.167 -18.476 -23.516  0.00  0.00    +0.029 C 
ATOM     27  C   UNL     1      34.433 -17.148 -23.224  0.00  0.00    +0.146 C 
BRANCH  27  32
ATOM     28  N   UNL     1      33.691 -14.980 -24.058  0.00  0.00    -0.105 NA
ATOM     29  N   UNL     1      33.866 -14.446 -25.275  0.00  0.00    -0.113 N 
ATOM     30  N   UNL     1      34.834 -16.307 -25.491  0.00  0.00    -0.085 NA
ATOM     31  N   UNL     1      34.539 -15.198 -26.158  0.00  0.00    -0.018 NA
ATOM     32  C   UNL     1      34.314 -16.144 -24.243  0.00  0.00    +0.092 C 
ATOM     33  C   UNL     1      33.362 -13.141 -25.617  0.00  0.00    +0.163 C 
ENDBRANCH  27  32
ENDBRANCH   5  23
TORSDOF 8
ENDMDL
MODEL 5
REMARK VINA RESULT:     -10.9      2.377      3.460
REMARK  Name = 11476460
REMARK  8 active torsions:
REMARK  status: ('A' for Active; 'I' for Inactive)
REMARK    1  A    between atoms: C_2  and  N_10
REMARK    2  A    between atoms: C_5  and  C_23
REMARK    3  A    between atoms: C_11  and  C_14
REMARK    4  A    between atoms: C_14  and  O_15
REMARK    5  A    between atoms: O_15  and  P_16
REMARK    6  A    between atoms: P_16  and  O_18
REMARK    7  A    between atoms: P_16  and  O_20
REMARK    8  A    between atoms: C_27  and  C_32
REMARK                            x       y       z     vdW  Elec       q    Type
REMARK                         _______ _______ _______ _____ _____    ______ ____
ROOT
ATOM      1  F   UNL     1      37.498 -19.593 -19.635  0.00  0.00    -0.204 F 
ATOM      2  C   UNL     1      35.619 -21.931 -17.573  0.00  0.00    +0.059 C 
ATOM      3  C   UNL     1      36.679 -21.175 -18.086  0.00  0.00    +0.045 C 
ATOM      4  C   UNL     1      34.347 -21.808 -18.141  0.00  0.00    +0.015 C 
ATOM      5  C   UNL     1      35.198 -20.189 -19.720  0.00  0.00    +0.029 C 
ATOM      6  C   UNL     1      36.469 -20.307 -19.157  0.00  0.00    +0.141 C 
ATOM      7  C   UNL     1      34.137 -20.939 -19.213  0.00  0.00    +0.004 C 
ENDROOT
BRANCH   2  10
ATOM      8  O   UNL     1      36.805 -23.972 -14.801  0.00  0.00    -0.434 OA
ATOM      9  O   UNL     1      38.124 -22.533 -15.956  0.00  0.00    -0.226 OA
ATOM     10  N   UNL     1      35.834 -22.817 -16.481  0.00  0.00    -0.221 N 
ATOM     11  C   UNL     1      35.397 -24.222 -14.693  0.00  0.00    +0.221 C 
ATOM     12  C   UNL     1      34.827 -23.728 -16.006  0.00  0.00    +0.148 C 
ATOM     13  C   UNL     1      37.020 -23.030 -15.782  0.00  0.00    +0.409 C 
BRANCH  11  14
ATOM     14  C   UNL     1      34.856 -23.471 -13.484  0.00  0.00    +0.199 C 
BRANCH  14  15
ATOM     15  O   UNL     1      35.909 -23.292 -12.554  0.00  0.00    -0.269 OA
BRANCH  15  16
ATOM     16  P   UNL     1      36.076 -24.373 -11.359  0.00  0.00    +0.473 P 
ATOM     17  O   UNL     1      36.615 -23.818 -10.073  0.00  0.00    -0.227 OA
BRANCH  16  18
ATOM     18  O   UNL     1      36.958 -25.551 -12.027  0.00  0.00    -0.303 OA
ATOM     19  H   UNL     1      36.447 -25.976 -12.734  0.00  0.00    +0.222 HD
ENDBRANCH  16  18
BRANCH  16  20
ATOM     20  O   UNL     1      34.600 -25.027 -11.255  0.00  0.00    -0.303 OA
ATOM     21  H   UNL     1      34.170 -24.726 -10.439  0.00  0.00    +0.222 HD
ENDBRANCH  16  20
ENDBRANCH  15  16
ENDBRANCH  14  15
ENDBRANCH  11  14
ENDBRANCH   2  10
BRANCH   5  23
ATOM     22  N   UNL     1      34.872 -17.025 -21.663  0.00  0.00    -0.234 NA
ATOM     23  C   UNL     1      34.975 -19.290 -20.832  0.00  0.00    +0.021 C 
ATOM     24  C   UNL     1      34.658 -19.778 -22.093  0.00  0.00    +0.004 C 
ATOM     25  C   UNL     1      35.070 -17.919 -20.670  0.00  0.00    +0.100 C 
ATOM     26  C   UNL     1      34.447 -18.890 -23.141  0.00  0.00    +0.029 C 
ATOM     27  C   UNL     1      34.566 -17.535 -22.877  0.00  0.00    +0.146 C 
BRANCH  27  32
ATOM     28  N   UNL     1      33.989 -15.311 -23.694  0.00  0.00    -0.105 NA
ATOM     29  N   UNL     1      33.941 -14.871 -24.960  0.00  0.00    -0.113 N 
ATOM     30  N   UNL     1      34.523 -16.878 -25.238  0.00  0.00    -0.085 NA
ATOM     31  N   UNL     1      34.250 -15.765 -25.908  0.00  0.00    -0.018 NA
ATOM     32  C   UNL     1      34.358 -16.573 -23.922  0.00  0.00    +0.092 C 
ATOM     33  C   UNL     1      33.578 -13.515 -25.283  0.00  0.00    +0.163 C 
ENDBRANCH  27  32
ENDBRANCH   5  23
TORSDOF 8
ENDMDL
MODEL 6
REMARK VINA RESULT:     -10.4      1.828      2.766
REMARK  Name = 11476460
REMARK  8 active torsions:
REMARK  status: ('A' for Active; 'I' for Inactive)
REMARK    1  A    between atoms: C_2  and  N_10
REMARK    2  A    between atoms: C_5  and  C_23
REMARK    3  A    between atoms: C_11  and  C_14
REMARK    4  A    between atoms: C_14  and  O_15
REMARK    5  A    between atoms: O_15  and  P_16
REMARK    6  A    between atoms: P_16  and  O_18
REMARK    7  A    between atoms: P_16  and  O_20
REMARK    8  A    between atoms: C_27  and  C_32
REMARK                            x       y       z     vdW  Elec       q    Type
REMARK                         _______ _______ _______ _____ _____    ______ ____
ROOT
ATOM      1  F   UNL     1      37.306 -19.740 -19.684  0.00  0.00    -0.204 F 
ATOM      2  C   UNL     1      35.227 -21.920 -17.642  0.00  0.00    +0.059 C 
ATOM      3  C   UNL     1      36.348 -21.252 -18.145  0.00  0.00    +0.045 C 
ATOM      4  C   UNL     1      33.974 -21.695 -18.221  0.00  0.00    +0.015 C 
ATOM      5  C   UNL     1      34.966 -20.149 -19.790  0.00  0.00    +0.029 C 
ATOM      6  C   UNL     1      36.218 -20.369 -19.216  0.00  0.00    +0.141 C 
ATOM      7  C   UNL     1      33.844 -20.812 -19.293  0.00  0.00    +0.004 C 
ENDROOT
BRANCH   2  10
ATOM      8  O   UNL     1      35.056 -24.560 -15.140  0.00  0.00    -0.434 OA
ATOM      9  O   UNL     1      33.698 -24.457 -16.954  0.00  0.00    -0.226 OA
ATOM     10  N   UNL     1      35.360 -22.821 -16.548  0.00  0.00    -0.221 N 
ATOM     11  C   UNL     1      36.261 -23.909 -14.715  0.00  0.00    +0.221 C 
ATOM     12  C   UNL     1      36.247 -22.582 -15.443  0.00  0.00    +0.148 C 
ATOM     13  C   UNL     1      34.619 -23.977 -16.309  0.00  0.00    +0.409 C 
BRANCH  11  14
ATOM     14  C   UNL     1      37.450 -24.784 -15.087  0.00  0.00    +0.199 C 
BRANCH  14  15
ATOM     15  O   UNL     1      38.619 -24.231 -14.509  0.00  0.00    -0.269 OA
BRANCH  15  16
ATOM     16  P   UNL     1      39.885 -25.204 -14.244  0.00  0.00    +0.473 P 
ATOM     17  O   UNL     1      41.050 -24.556 -13.553  0.00  0.00    -0.227 OA
BRANCH  16  18
ATOM     18  O   UNL     1      40.205 -25.825 -15.702  0.00  0.00    -0.303 OA
ATOM     19  H   UNL     1      39.561 -25.488 -16.345  0.00  0.00    +0.222 HD
ENDBRANCH  16  18
BRANCH  16  20
ATOM     20  O   UNL     1      39.225 -26.448 -13.447  0.00  0.00    -0.303 OA
ATOM     21  H   UNL     1      39.506 -26.423 -12.519  0.00  0.00    +0.222 HD
ENDBRANCH  16  20
ENDBRANCH  15  16
ENDBRANCH  14  15
ENDBRANCH  11  14
ENDBRANCH   2  10
BRANCH   5  23
ATOM     22  N   UNL     1      34.828 -16.960 -21.716  0.00  0.00    -0.234 NA
ATOM     23  C   UNL     1      34.826 -19.234 -20.903  0.00  0.00    +0.021 C 
ATOM     24  C   UNL     1      34.562 -19.703 -22.184  0.00  0.00    +0.004 C 
ATOM     25  C   UNL     1      34.949 -17.868 -20.722  0.00  0.00    +0.100 C 
ATOM     26  C   UNL     1      34.432 -18.800 -23.233  0.00  0.00    +0.029 C 
ATOM     27  C   UNL     1      34.572 -17.451 -22.949  0.00  0.00    +0.146 C 
BRANCH  27  32
ATOM     28  N   UNL     1      33.979 -15.240 -23.791  0.00  0.00    -0.105 NA
ATOM     29  N   UNL     1      34.068 -14.770 -25.043  0.00  0.00    -0.113 N 
ATOM     30  N   UNL     1      34.795 -16.736 -25.283  0.00  0.00    -0.085 NA
ATOM     31  N   UNL     1      34.547 -15.622 -25.961  0.00  0.00    -0.018 NA
ATOM     32  C   UNL     1      34.446 -16.474 -23.993  0.00  0.00    +0.092 C 
ATOM     33  C   UNL     1      33.673 -13.428 -25.385  0.00  0.00    +0.163 C 
ENDBRANCH  27  32
ENDBRANCH   5  23
TORSDOF 8
ENDMDL
MODEL 7
REMARK VINA RESULT:     -10.3      6.069      8.917
REMARK  Name = 11476460
REMARK  8 active torsions:
REMARK  status: ('A' for Active; 'I' for Inactive)
REMARK    1  A    between atoms: C_2  and  N_10
REMARK    2  A    between atoms: C_5  and  C_23
REMARK    3  A    between atoms: C_11  and  C_14
REMARK    4  A    between atoms: C_14  and  O_15
REMARK    5  A    between atoms: O_15  and  P_16
REMARK    6  A    between atoms: P_16  and  O_18
REMARK    7  A    between atoms: P_16  and  O_20
REMARK    8  A    between atoms: C_27  and  C_32
REMARK                            x       y       z     vdW  Elec       q    Type
REMARK                         _______ _______ _______ _____ _____    ______ ____
ROOT
ATOM      1  F   UNL     1      34.268 -15.087 -24.073  0.00  0.00    -0.204 F 
ATOM      2  C   UNL     1      35.152 -17.168 -21.221  0.00  0.00    +0.059 C 
ATOM      3  C   UNL     1      34.919 -16.758 -22.537  0.00  0.00    +0.045 C 
ATOM      4  C   UNL     1      34.950 -16.264 -20.172  0.00  0.00    +0.015 C 
ATOM      5  C   UNL     1      34.287 -14.562 -21.754  0.00  0.00    +0.029 C 
ATOM      6  C   UNL     1      34.487 -15.459 -22.803  0.00  0.00    +0.141 C 
ATOM      7  C   UNL     1      34.518 -14.965 -20.438  0.00  0.00    +0.004 C 
ENDROOT
BRANCH   2  10
ATOM      8  O   UNL     1      36.900 -20.296 -20.577  0.00  0.00    -0.434 OA
ATOM      9  O   UNL     1      37.953 -18.326 -20.970  0.00  0.00    -0.226 OA
ATOM     10  N   UNL     1      35.592 -18.494 -20.949  0.00  0.00    -0.221 N 
ATOM     11  C   UNL     1      35.559 -20.708 -20.276  0.00  0.00    +0.221 C 
ATOM     12  C   UNL     1      34.692 -19.610 -20.854  0.00  0.00    +0.148 C 
ATOM     13  C   UNL     1      36.906 -18.945 -20.840  0.00  0.00    +0.409 C 
BRANCH  11  14
ATOM     14  C   UNL     1      35.417 -20.854 -18.767  0.00  0.00    +0.199 C 
BRANCH  14  15
ATOM     15  O   UNL     1      35.327 -22.232 -18.451  0.00  0.00    -0.269 OA
BRANCH  15  16
ATOM     16  P   UNL     1      33.860 -22.882 -18.240  0.00  0.00    +0.473 P 
ATOM     17  O   UNL     1      32.710 -21.953 -18.503  0.00  0.00    -0.227 OA
BRANCH  16  18
ATOM     18  O   UNL     1      33.923 -23.499 -16.747  0.00  0.00    -0.303 OA
ATOM     19  H   UNL     1      34.679 -24.103 -16.679  0.00  0.00    +0.222 HD
ENDBRANCH  16  18
BRANCH  16  20
ATOM     20  O   UNL     1      33.907 -24.194 -19.186  0.00  0.00    -0.303 OA
ATOM     21  H   UNL     1      34.830 -24.424 -19.373  0.00  0.00    +0.222 HD
ENDBRANCH  16  20
ENDBRANCH  15  16
ENDBRANCH  14  15
ENDBRANCH  11  14
ENDBRANCH   2  10
BRANCH   5  23
ATOM     22  N   UNL     1      32.400 -11.363 -21.441  0.00  0.00    -0.234 NA
ATOM     23  C   UNL     1      33.839 -13.213 -22.024  0.00  0.00    +0.021 C 
ATOM     24  C   UNL     1      34.370 -12.481 -23.078  0.00  0.00    +0.004 C 
ATOM     25  C   UNL     1      32.866 -12.616 -21.242  0.00  0.00    +0.100 C 
ATOM     26  C   UNL     1      33.918 -11.188 -23.315  0.00  0.00    +0.029 C 
ATOM     27  C   UNL     1      32.940 -10.679 -22.475  0.00  0.00    +0.146 C 
BRANCH  27  32
ATOM     28  N   UNL     1      33.128  -8.385 -23.279  0.00  0.00    -0.105 NA
ATOM     29  N   UNL     1      32.230  -7.394 -23.199  0.00  0.00    -0.113 N 
ATOM     30  N   UNL     1      31.197  -8.970 -22.253  0.00  0.00    -0.085 NA
ATOM     31  N   UNL     1      31.070  -7.695 -22.599  0.00  0.00    -0.018 NA
ATOM     32  C   UNL     1      32.435  -9.351 -22.673  0.00  0.00    +0.092 C 
ATOM     33  C   UNL     1      32.493  -6.080 -23.727  0.00  0.00    +0.163 C 
ENDBRANCH  27  32
ENDBRANCH   5  23
TORSDOF 8
ENDMDL
MODEL 8
REMARK VINA RESULT:     -10.2      2.641      3.947
REMARK  Name = 11476460
REMARK  8 active torsions:
REMARK  status: ('A' for Active; 'I' for Inactive)
REMARK    1  A    between atoms: C_2  and  N_10
REMARK    2  A    between atoms: C_5  and  C_23
REMARK    3  A    between atoms: C_11  and  C_14
REMARK    4  A    between atoms: C_14  and  O_15
REMARK    5  A    between atoms: O_15  and  P_16
REMARK    6  A    between atoms: P_16  and  O_18
REMARK    7  A    between atoms: P_16  and  O_20
REMARK    8  A    between atoms: C_27  and  C_32
REMARK                            x       y       z     vdW  Elec       q    Type
REMARK                         _______ _______ _______ _____ _____    ______ ____
ROOT
ATOM      1  F   UNL     1      37.425 -20.381 -18.529  0.00  0.00    -0.204 F 
ATOM      2  C   UNL     1      35.612 -22.731 -16.423  0.00  0.00    +0.059 C 
ATOM      3  C   UNL     1      36.637 -21.922 -16.923  0.00  0.00    +0.045 C 
ATOM      4  C   UNL     1      34.375 -22.759 -17.076  0.00  0.00    +0.015 C 
ATOM      5  C   UNL     1      35.193 -21.180 -18.713  0.00  0.00    +0.029 C 
ATOM      6  C   UNL     1      36.429 -21.149 -18.065  0.00  0.00    +0.141 C 
ATOM      7  C   UNL     1      34.167 -21.986 -18.218  0.00  0.00    +0.004 C 
ENDROOT
BRANCH   2  10
ATOM      8  O   UNL     1      36.705 -24.363 -13.358  0.00  0.00    -0.434 OA
ATOM      9  O   UNL     1      37.811 -22.635 -14.324  0.00  0.00    -0.226 OA
ATOM     10  N   UNL     1      35.825 -23.521 -15.258  0.00  0.00    -0.221 N 
ATOM     11  C   UNL     1      35.417 -24.977 -13.506  0.00  0.00    +0.221 C 
ATOM     12  C   UNL     1      35.014 -24.662 -14.930  0.00  0.00    +0.148 C 
ATOM     13  C   UNL     1      36.861 -23.406 -14.335  0.00  0.00    +0.409 C 
BRANCH  11  14
ATOM     14  C   UNL     1      34.470 -24.387 -12.470  0.00  0.00    +0.199 C 
BRANCH  14  15
ATOM     15  O   UNL     1      33.533 -23.557 -13.133  0.00  0.00    -0.269 OA
BRANCH  15  16
ATOM     16  P   UNL     1      31.978 -24.007 -13.151  0.00  0.00    +0.473 P 
ATOM     17  O   UNL     1      31.078 -23.217 -12.246  0.00  0.00    -0.227 OA
BRANCH  16  18
ATOM     18  O   UNL     1      32.035 -25.596 -12.854  0.00  0.00    -0.303 OA
ATOM     19  H   UNL     1      31.202 -26.007 -13.136  0.00  0.00    +0.222 HD
ENDBRANCH  16  18
BRANCH  16  20
ATOM     20  O   UNL     1      31.600 -23.936 -14.722  0.00  0.00    -0.303 OA
ATOM     21  H   UNL     1      31.361 -24.822 -15.037  0.00  0.00    +0.222 HD
ENDBRANCH  16  20
ENDBRANCH  15  16
ENDBRANCH  14  15
ENDBRANCH  11  14
ENDBRANCH   2  10
BRANCH   5  23
ATOM     22  N   UNL     1      33.429 -19.505 -21.536  0.00  0.00    -0.234 NA
ATOM     23  C   UNL     1      34.972 -20.381 -19.899  0.00  0.00    +0.021 C 
ATOM     24  C   UNL     1      36.028 -19.741 -20.535  0.00  0.00    +0.004 C 
ATOM     25  C   UNL     1      33.704 -20.234 -20.432  0.00  0.00    +0.100 C 
ATOM     26  C   UNL     1      35.785 -18.981 -21.674  0.00  0.00    +0.029 C 
ATOM     27  C   UNL     1      34.479 -18.895 -22.130  0.00  0.00    +0.146 C 
BRANCH  27  32
ATOM     28  N   UNL     1      34.542 -16.854 -23.463  0.00  0.00    -0.105 NA
ATOM     29  N   UNL     1      34.018 -16.631 -24.677  0.00  0.00    -0.113 N 
ATOM     30  N   UNL     1      33.466 -18.640 -24.347  0.00  0.00    -0.085 NA
ATOM     31  N   UNL     1      33.371 -17.661 -25.239  0.00  0.00    -0.018 NA
ATOM     32  C   UNL     1      34.170 -18.126 -23.301  0.00  0.00    +0.092 C 
ATOM     33  C   UNL     1      34.141 -15.358 -25.339  0.00  0.00    +0.163 C 
ENDBRANCH  27  32
ENDBRANCH   5  23
TORSDOF 8
ENDMDL
MODEL 9
REMARK VINA RESULT:      -9.8      5.548      6.542
REMARK  Name = 11476460
REMARK  8 active torsions:
REMARK  status: ('A' for Active; 'I' for Inactive)
REMARK    1  A    between atoms: C_2  and  N_10
REMARK    2  A    between atoms: C_5  and  C_23
REMARK    3  A    between atoms: C_11  and  C_14
REMARK    4  A    between atoms: C_14  and  O_15
REMARK    5  A    between atoms: O_15  and  P_16
REMARK    6  A    between atoms: P_16  and  O_18
REMARK    7  A    between atoms: P_16  and  O_20
REMARK    8  A    between atoms: C_27  and  C_32
REMARK                            x       y       z     vdW  Elec       q    Type
REMARK                         _______ _______ _______ _____ _____    ______ ____
ROOT
ATOM      1  F   UNL     1      33.379 -23.985 -15.960  0.00  0.00    -0.204 F 
ATOM      2  C   UNL     1      34.807 -23.850 -12.615  0.00  0.00    +0.059 C 
ATOM      3  C   UNL     1      34.685 -24.048 -13.994  0.00  0.00    +0.045 C 
ATOM      4  C   UNL     1      33.707 -23.387 -11.885  0.00  0.00    +0.015 C 
ATOM      5  C   UNL     1      32.381 -23.325 -13.904  0.00  0.00    +0.029 C 
ATOM      6  C   UNL     1      33.475 -23.787 -14.637  0.00  0.00    +0.141 C 
ATOM      7  C   UNL     1      32.497 -23.126 -12.529  0.00  0.00    +0.004 C 
ENDROOT
BRANCH   2  10
ATOM      8  O   UNL     1      37.579 -24.847 -10.475  0.00  0.00    -0.434 OA
ATOM      9  O   UNL     1      35.409 -25.336 -10.030  0.00  0.00    -0.226 OA
ATOM     10  N   UNL     1      36.041 -24.117 -11.958  0.00  0.00    -0.221 N 
ATOM     11  C   UNL     1      38.316 -24.353 -11.602  0.00  0.00    +0.221 C 
ATOM     12  C   UNL     1      37.296 -23.575 -12.405  0.00  0.00    +0.148 C 
ATOM     13  C   UNL     1      36.235 -24.819 -10.771  0.00  0.00    +0.409 C 
BRANCH  11  14
ATOM     14  C   UNL     1      38.902 -25.536 -12.362  0.00  0.00    +0.199 C 
BRANCH  14  15
ATOM     15  O   UNL     1      39.813 -25.046 -13.330  0.00  0.00    -0.269 OA
BRANCH  15  16
ATOM     16  P   UNL     1      39.353 -25.026 -14.882  0.00  0.00    +0.473 P 
ATOM     17  O   UNL     1      39.112 -23.659 -15.454  0.00  0.00    -0.227 OA
BRANCH  16  18
ATOM     18  O   UNL     1      38.083 -26.025 -14.920  0.00  0.00    -0.303 OA
ATOM     19  H   UNL     1      38.352 -26.876 -15.301  0.00  0.00    +0.222 HD
ENDBRANCH  16  18
BRANCH  16  20
ATOM     20  O   UNL     1      40.518 -25.878 -15.615  0.00  0.00    -0.303 OA
ATOM     21  H   UNL     1      40.788 -25.422 -16.427  0.00  0.00    +0.222 HD
ENDBRANCH  16  20
ENDBRANCH  15  16
ENDBRANCH  14  15
ENDBRANCH  11  14
ENDBRANCH   2  10
BRANCH   5  23
ATOM     22  N   UNL     1      29.948 -22.430 -16.582  0.00  0.00    -0.234 NA
ATOM     23  C   UNL     1      31.124 -23.054 -14.567  0.00  0.00    +0.021 C 
ATOM     24  C   UNL     1      29.921 -23.140 -13.879  0.00  0.00    +0.004 C 
ATOM     25  C   UNL     1      31.086 -22.698 -15.904  0.00  0.00    +0.100 C 
ATOM     26  C   UNL     1      28.729 -22.872 -14.542  0.00  0.00    +0.029 C 
ATOM     27  C   UNL     1      28.796 -22.524 -15.882  0.00  0.00    +0.146 C 
BRANCH  27  32
ATOM     28  N   UNL     1      27.478 -22.422 -17.931  0.00  0.00    -0.105 NA
ATOM     29  N   UNL     1      26.213 -22.010 -18.093  0.00  0.00    -0.113 N 
ATOM     30  N   UNL     1      26.477 -21.742 -16.018  0.00  0.00    -0.085 NA
ATOM     31  N   UNL     1      25.580 -21.598 -16.986  0.00  0.00    -0.018 NA
ATOM     32  C   UNL     1      27.597 -22.235 -16.615  0.00  0.00    +0.092 C 
ATOM     33  C   UNL     1      25.569 -22.009 -19.381  0.00  0.00    +0.163 C 
ENDBRANCH  27  32
ENDBRANCH   5  23
TORSDOF 8
ENDMDL
