MODEL 1
REMARK VINA RESULT:     -12.0      0.000      0.000
REMARK  Name = 2267
REMARK  3 active torsions:
REMARK  status: ('A' for Active; 'I' for Inactive)
REMARK    1  A    between atoms: N_2  and  C_13
REMARK    2  A    between atoms: C_6  and  C_21
REMARK    3  A    between atoms: C_21  and  C_23
REMARK                            x       y       z     vdW  Elec       q    Type
REMARK                         _______ _______ _______ _____ _____    ______ ____
ROOT
ATOM      1  O   UNL     1      33.897 -23.431 -12.748  0.00  0.00    -0.266 OA
ATOM      2  N   UNL     1      34.834 -23.693 -14.855  0.00  0.00    -0.219 N 
ATOM      3  N   UNL     1      34.694 -23.706 -16.213  0.00  0.00    -0.171 NA
ATOM      4  C   UNL     1      33.784 -23.446 -13.972  0.00  0.00    +0.276 A 
ATOM      5  C   UNL     1      32.460 -23.189 -14.568  0.00  0.00    +0.059 A 
ATOM      6  C   UNL     1      33.533 -23.481 -16.742  0.00  0.00    +0.083 A 
ATOM      7  C   UNL     1      32.322 -23.204 -15.951  0.00  0.00    +0.020 A 
ATOM      8  C   UNL     1      31.352 -22.933 -13.754  0.00  0.00    +0.005 C 
ATOM      9  C   UNL     1      31.073 -22.964 -16.533  0.00  0.00    +0.001 C 
ATOM     10  C   UNL     1      30.106 -22.693 -14.334  0.00  0.00    +0.000 C 
ATOM     11  C   UNL     1      29.968 -22.709 -15.720  0.00  0.00    +0.000 C 
ENDROOT
BRANCH   2  13
ATOM     12  N   UNL     1      38.878 -25.078 -13.762  0.00  0.00    +0.386 N 
ATOM     13  C   UNL     1      36.177 -23.959 -14.381  0.00  0.00    +0.106 C 
ATOM     14  C   UNL     1      36.357 -23.306 -13.007  0.00  0.00    +0.022 C 
ATOM     15  C   UNL     1      36.409 -25.472 -14.323  0.00  0.00    +0.002 C 
ATOM     16  C   UNL     1      37.785 -23.297 -12.467  0.00  0.00    -0.021 C 
ATOM     17  C   UNL     1      37.874 -25.903 -14.443  0.00  0.00    -0.075 C 
ATOM     18  C   UNL     1      38.492 -24.653 -12.416  0.00  0.00    -0.077 C 
ATOM     19  C   UNL     1      40.168 -25.770 -13.754  0.00  0.00    -0.101 C 
ATOM     20  H   UNL     1      38.955 -24.214 -14.298  0.00  0.00    -0.080 HD
ENDBRANCH   2  13
BRANCH   6  21
ATOM     21  C   UNL     1      33.439 -23.509 -18.249  0.00  0.00    +0.074 C 
BRANCH  21  23
ATOM     22 CL   UNL     1      35.769 -18.505 -20.605  0.00  0.00    -0.082 Cl
ATOM     23  C   UNL     1      34.020 -22.262 -18.835  0.00  0.00    -0.016 C 
ATOM     24  C   UNL     1      33.179 -21.301 -19.392  0.00  0.00    -0.003 C 
ATOM     25  C   UNL     1      35.399 -22.066 -18.823  0.00  0.00    -0.003 C 
ATOM     26  C   UNL     1      33.720 -20.138 -19.939  0.00  0.00    +0.011 C 
ATOM     27  C   UNL     1      35.940 -20.904 -19.371  0.00  0.00    +0.011 C 
ATOM     28  C   UNL     1      35.101 -19.939 -19.929  0.00  0.00    +0.058 C 
ENDBRANCH  21  23
ENDBRANCH   6  21
TORSDOF 3
ENDMDL
MODEL 2
REMARK VINA RESULT:     -11.7      3.050      6.735
REMARK  Name = 2267
REMARK  3 active torsions:
REMARK  status: ('A' for Active; 'I' for Inactive)
REMARK    1  A    between atoms: N_2  and  C_13
REMARK    2  A    between atoms: C_6  and  C_21
REMARK    3  A    between atoms: C_21  and  C_23
REMARK                            x       y       z     vdW  Elec       q    Type
REMARK                         _______ _______ _______ _____ _____    ______ ____
ROOT
ATOM      1  O   UNL     1      32.291 -22.436 -18.174  0.00  0.00    -0.266 OA
ATOM      2  N   UNL     1      33.746 -22.990 -16.453  0.00  0.00    -0.219 N 
ATOM      3  N   UNL     1      34.998 -22.947 -15.910  0.00  0.00    -0.171 NA
ATOM      4  C   UNL     1      33.413 -22.405 -17.673  0.00  0.00    +0.276 A 
ATOM      5  C   UNL     1      34.494 -21.708 -18.394  0.00  0.00    +0.059 A 
ATOM      6  C   UNL     1      35.952 -22.336 -16.539  0.00  0.00    +0.083 A 
ATOM      7  C   UNL     1      35.767 -21.667 -17.838  0.00  0.00    +0.020 A 
ATOM      8  C   UNL     1      34.246 -21.094 -19.627  0.00  0.00    +0.005 C 
ATOM      9  C   UNL     1      36.804 -21.012 -18.509  0.00  0.00    +0.001 C 
ATOM     10  C   UNL     1      35.280 -20.440 -20.296  0.00  0.00    +0.000 C 
ATOM     11  C   UNL     1      36.556 -20.400 -19.738  0.00  0.00    +0.000 C 
ENDROOT
BRANCH   2  13
ATOM     12  N   UNL     1      30.300 -24.839 -14.410  0.00  0.00    +0.386 N 
ATOM     13  C   UNL     1      32.765 -23.702 -15.659  0.00  0.00    +0.106 C 
ATOM     14  C   UNL     1      33.337 -23.934 -14.257  0.00  0.00    +0.022 C 
ATOM     15  C   UNL     1      31.463 -22.898 -15.612  0.00  0.00    +0.002 C 
ATOM     16  C   UNL     1      32.524 -24.868 -13.363  0.00  0.00    -0.021 C 
ATOM     17  C   UNL     1      30.201 -23.731 -15.366  0.00  0.00    -0.075 C 
ATOM     18  C   UNL     1      31.045 -24.516 -13.193  0.00  0.00    -0.077 C 
ATOM     19  C   UNL     1      28.963 -25.348 -14.099  0.00  0.00    -0.101 C 
ATOM     20  H   UNL     1      30.847 -25.568 -14.867  0.00  0.00    -0.080 HD
ENDBRANCH   2  13
BRANCH   6  21
ATOM     21  C   UNL     1      37.315 -22.322 -15.889  0.00  0.00    +0.074 C 
BRANCH  21  23
ATOM     22 CL   UNL     1      37.499 -26.170 -11.287  0.00  0.00    -0.082 Cl
ATOM     23  C   UNL     1      37.360 -23.281 -14.743  0.00  0.00    -0.016 C 
ATOM     24  C   UNL     1      36.816 -22.918 -13.513  0.00  0.00    -0.003 C 
ATOM     25  C   UNL     1      37.948 -24.533 -14.908  0.00  0.00    -0.003 C 
ATOM     26  C   UNL     1      36.858 -23.812 -12.444  0.00  0.00    +0.011 C 
ATOM     27  C   UNL     1      37.992 -25.427 -13.839  0.00  0.00    +0.011 C 
ATOM     28  C   UNL     1      37.446 -25.067 -12.606  0.00  0.00    +0.058 C 
ENDBRANCH  21  23
ENDBRANCH   6  21
TORSDOF 3
ENDMDL
MODEL 3
REMARK VINA RESULT:     -10.9      2.704      5.933
REMARK  Name = 2267
REMARK  3 active torsions:
REMARK  status: ('A' for Active; 'I' for Inactive)
REMARK    1  A    between atoms: N_2  and  C_13
REMARK    2  A    between atoms: C_6  and  C_21
REMARK    3  A    between atoms: C_21  and  C_23
REMARK                            x       y       z     vdW  Elec       q    Type
REMARK                         _______ _______ _______ _____ _____    ______ ____
ROOT
ATOM      1  O   UNL     1      31.493 -22.604 -17.209  0.00  0.00    -0.266 OA
ATOM      2  N   UNL     1      33.485 -22.802 -16.035  0.00  0.00    -0.219 N 
ATOM      3  N   UNL     1      34.170 -23.261 -14.946  0.00  0.00    -0.171 NA
ATOM      4  C   UNL     1      32.122 -23.011 -16.234  0.00  0.00    +0.276 A 
ATOM      5  C   UNL     1      31.407 -23.774 -15.194  0.00  0.00    +0.059 A 
ATOM      6  C   UNL     1      33.547 -23.932 -14.030  0.00  0.00    +0.083 A 
ATOM      7  C   UNL     1      32.108 -24.238 -14.088  0.00  0.00    +0.020 A 
ATOM      8  C   UNL     1      30.036 -24.028 -15.315  0.00  0.00    +0.005 C 
ATOM      9  C   UNL     1      31.445 -24.962 -13.092  0.00  0.00    +0.001 C 
ATOM     10  C   UNL     1      29.375 -24.750 -14.322  0.00  0.00    +0.000 C 
ATOM     11  C   UNL     1      30.078 -25.215 -13.213  0.00  0.00    +0.000 C 
ENDROOT
BRANCH   2  13
ATOM     12  N   UNL     1      35.404 -20.622 -19.356  0.00  0.00    +0.386 N 
ATOM     13  C   UNL     1      34.288 -22.065 -16.989  0.00  0.00    +0.106 C 
ATOM     14  C   UNL     1      35.767 -22.378 -16.739  0.00  0.00    +0.022 C 
ATOM     15  C   UNL     1      33.864 -22.440 -18.412  0.00  0.00    +0.002 C 
ATOM     16  C   UNL     1      36.760 -21.511 -17.509  0.00  0.00    -0.021 C 
ATOM     17  C   UNL     1      34.146 -21.368 -19.471  0.00  0.00    -0.075 C 
ATOM     18  C   UNL     1      36.564 -21.449 -19.025  0.00  0.00    -0.077 C 
ATOM     19  C   UNL     1      35.633 -19.845 -20.576  0.00  0.00    -0.101 C 
ATOM     20  H   UNL     1      35.295 -19.992 -18.562  0.00  0.00    -0.080 HD
ENDBRANCH   2  13
BRANCH   6  21
ATOM     21  C   UNL     1      34.357 -24.413 -12.849  0.00  0.00    +0.074 C 
BRANCH  21  23
ATOM     22 CL   UNL     1      40.010 -25.563 -14.505  0.00  0.00    -0.082 Cl
ATOM     23  C   UNL     1      35.766 -24.701 -13.261  0.00  0.00    -0.016 C 
ATOM     24  C   UNL     1      36.815 -23.981 -12.693  0.00  0.00    -0.003 C 
ATOM     25  C   UNL     1      36.023 -25.686 -14.212  0.00  0.00    -0.003 C 
ATOM     26  C   UNL     1      38.128 -24.248 -13.078  0.00  0.00    +0.011 C 
ATOM     27  C   UNL     1      37.337 -25.952 -14.597  0.00  0.00    +0.011 C 
ATOM     28  C   UNL     1      38.390 -25.234 -14.030  0.00  0.00    +0.058 C 
ENDBRANCH  21  23
ENDBRANCH   6  21
TORSDOF 3
ENDMDL
MODEL 4
REMARK VINA RESULT:     -10.4      2.830      5.146
REMARK  Name = 2267
REMARK  3 active torsions:
REMARK  status: ('A' for Active; 'I' for Inactive)
REMARK    1  A    between atoms: N_2  and  C_13
REMARK    2  A    between atoms: C_6  and  C_21
REMARK    3  A    between atoms: C_21  and  C_23
REMARK                            x       y       z     vdW  Elec       q    Type
REMARK                         _______ _______ _______ _____ _____    ______ ____
ROOT
ATOM      1  O   UNL     1      37.587 -22.055 -16.788  0.00  0.00    -0.266 OA
ATOM      2  N   UNL     1      35.632 -22.961 -15.927  0.00  0.00    -0.219 N 
ATOM      3  N   UNL     1      34.285 -23.163 -16.025  0.00  0.00    -0.171 NA
ATOM      4  C   UNL     1      36.375 -22.244 -16.863  0.00  0.00    +0.276 A 
ATOM      5  C   UNL     1      35.638 -21.684 -18.010  0.00  0.00    +0.059 A 
ATOM      6  C   UNL     1      33.632 -22.674 -17.031  0.00  0.00    +0.083 A 
ATOM      7  C   UNL     1      34.267 -21.892 -18.105  0.00  0.00    +0.020 A 
ATOM      8  C   UNL     1      36.307 -20.950 -18.996  0.00  0.00    +0.005 C 
ATOM      9  C   UNL     1      33.552 -21.366 -19.186  0.00  0.00    +0.001 C 
ATOM     10  C   UNL     1      35.594 -20.426 -20.074  0.00  0.00    +0.000 C 
ATOM     11  C   UNL     1      34.220 -20.634 -20.168  0.00  0.00    +0.000 C 
ENDROOT
BRANCH   2  13
ATOM     12  N   UNL     1      37.511 -25.342 -12.722  0.00  0.00    +0.386 N 
ATOM     13  C   UNL     1      36.251 -23.555 -14.759  0.00  0.00    +0.106 C 
ATOM     14  C   UNL     1      35.765 -22.813 -13.510  0.00  0.00    +0.022 C 
ATOM     15  C   UNL     1      35.908 -25.046 -14.700  0.00  0.00    +0.002 C 
ATOM     16  C   UNL     1      36.493 -23.162 -12.215  0.00  0.00    -0.021 C 
ATOM     17  C   UNL     1      36.921 -25.909 -13.940  0.00  0.00    -0.075 C 
ATOM     18  C   UNL     1      36.554 -24.649 -11.859  0.00  0.00    -0.077 C 
ATOM     19  C   UNL     1      38.236 -26.382 -11.990  0.00  0.00    -0.101 C 
ATOM     20  H   UNL     1      38.162 -24.618 -13.026  0.00  0.00    -0.080 HD
ENDBRANCH   2  13
BRANCH   6  21
ATOM     21  C   UNL     1      32.144 -22.929 -17.084  0.00  0.00    +0.074 C 
BRANCH  21  23
ATOM     22 CL   UNL     1      30.037 -24.270 -11.627  0.00  0.00    -0.082 Cl
ATOM     23  C   UNL     1      31.620 -23.264 -15.724  0.00  0.00    -0.016 C 
ATOM     24  C   UNL     1      30.556 -24.153 -15.591  0.00  0.00    -0.003 C 
ATOM     25  C   UNL     1      32.196 -22.684 -14.596  0.00  0.00    -0.003 C 
ATOM     26  C   UNL     1      30.066 -24.465 -14.323  0.00  0.00    +0.011 C 
ATOM     27  C   UNL     1      31.706 -22.995 -13.328  0.00  0.00    +0.011 C 
ATOM     28  C   UNL     1      30.641 -23.886 -13.191  0.00  0.00    +0.058 C 
ENDBRANCH  21  23
ENDBRANCH   6  21
TORSDOF 3
ENDMDL
MODEL 5
REMARK VINA RESULT:     -10.3      2.711      6.497
REMARK  Name = 2267
REMARK  3 active torsions:
REMARK  status: ('A' for Active; 'I' for Inactive)
REMARK    1  A    between atoms: N_2  and  C_13
REMARK    2  A    between atoms: C_6  and  C_21
REMARK    3  A    between atoms: C_21  and  C_23
REMARK                            x       y       z     vdW  Elec       q    Type
REMARK                         _______ _______ _______ _____ _____    ______ ____
ROOT
ATOM      1  O   UNL     1      37.274 -22.131 -14.973  0.00  0.00    -0.266 OA
ATOM      2  N   UNL     1      35.063 -22.780 -15.250  0.00  0.00    -0.219 N 
ATOM      3  N   UNL     1      33.961 -23.438 -14.782  0.00  0.00    -0.171 NA
ATOM      4  C   UNL     1      36.275 -22.719 -14.564  0.00  0.00    +0.276 A 
ATOM      5  C   UNL     1      36.340 -23.414 -13.266  0.00  0.00    +0.059 A 
ATOM      6  C   UNL     1      34.013 -24.049 -13.642  0.00  0.00    +0.083 A 
ATOM      7  C   UNL     1      35.217 -24.083 -12.794  0.00  0.00    +0.020 A 
ATOM      8  C   UNL     1      37.520 -23.404 -12.512  0.00  0.00    +0.005 C 
ATOM      9  C   UNL     1      35.262 -24.748 -11.565  0.00  0.00    +0.001 C 
ATOM     10  C   UNL     1      37.565 -24.067 -11.286  0.00  0.00    +0.000 C 
ATOM     11  C   UNL     1      36.438 -24.738 -10.815  0.00  0.00    +0.000 C 
ENDROOT
BRANCH   2  13
ATOM     12  N   UNL     1      33.882 -21.032 -19.125  0.00  0.00    +0.386 N 
ATOM     13  C   UNL     1      34.884 -22.136 -16.535  0.00  0.00    +0.106 C 
ATOM     14  C   UNL     1      36.208 -22.188 -17.304  0.00  0.00    +0.022 C 
ATOM     15  C   UNL     1      33.757 -22.830 -17.304  0.00  0.00    +0.002 C 
ATOM     16  C   UNL     1      36.259 -21.356 -18.583  0.00  0.00    -0.021 C 
ATOM     17  C   UNL     1      33.051 -21.952 -18.342  0.00  0.00    -0.075 C 
ATOM     18  C   UNL     1      35.140 -21.613 -19.595  0.00  0.00    -0.077 C 
ATOM     19  C   UNL     1      33.103 -20.477 -20.234  0.00  0.00    -0.101 C 
ATOM     20  H   UNL     1      34.160 -20.282 -18.492  0.00  0.00    -0.080 HD
ENDBRANCH   2  13
BRANCH   6  21
ATOM     21  C   UNL     1      32.764 -24.760 -13.177  0.00  0.00    +0.074 C 
BRANCH  21  23
ATOM     22 CL   UNL     1      27.940 -22.642 -16.052  0.00  0.00    -0.082 Cl
ATOM     23  C   UNL     1      31.562 -24.233 -13.894  0.00  0.00    -0.016 C 
ATOM     24  C   UNL     1      31.280 -22.869 -13.864  0.00  0.00    -0.003 C 
ATOM     25  C   UNL     1      30.729 -25.107 -14.589  0.00  0.00    -0.003 C 
ATOM     26  C   UNL     1      30.159 -22.376 -14.532  0.00  0.00    +0.011 C 
ATOM     27  C   UNL     1      29.608 -24.614 -15.256  0.00  0.00    +0.011 C 
ATOM     28  C   UNL     1      29.323 -23.249 -15.228  0.00  0.00    +0.058 C 
ENDBRANCH  21  23
ENDBRANCH   6  21
TORSDOF 3
ENDMDL
MODEL 6
REMARK VINA RESULT:      -9.9      1.940      5.770
REMARK  Name = 2267
REMARK  3 active torsions:
REMARK  status: ('A' for Active; 'I' for Inactive)
REMARK    1  A    between atoms: N_2  and  C_13
REMARK    2  A    between atoms: C_6  and  C_21
REMARK    3  A    between atoms: C_21  and  C_23
REMARK                            x       y       z     vdW  Elec       q    Type
REMARK                         _______ _______ _______ _____ _____    ______ ____
ROOT
ATOM      1  O   UNL     1      32.710 -24.262 -12.297  0.00  0.00    -0.266 OA
ATOM      2  N   UNL     1      33.136 -23.782 -14.528  0.00  0.00    -0.219 N 
ATOM      3  N   UNL     1      34.017 -23.427 -15.508  0.00  0.00    -0.171 NA
ATOM      4  C   UNL     1      33.493 -23.943 -13.190  0.00  0.00    +0.276 A 
ATOM      5  C   UNL     1      34.907 -23.709 -12.846  0.00  0.00    +0.059 A 
ATOM      6  C   UNL     1      35.261 -23.221 -15.212  0.00  0.00    +0.083 A 
ATOM      7  C   UNL     1      35.800 -23.347 -13.848  0.00  0.00    +0.020 A 
ATOM      8  C   UNL     1      35.350 -23.848 -11.526  0.00  0.00    +0.005 C 
ATOM      9  C   UNL     1      37.145 -23.120 -13.539  0.00  0.00    +0.001 C 
ATOM     10  C   UNL     1      36.691 -23.622 -11.218  0.00  0.00    +0.000 C 
ATOM     11  C   UNL     1      37.586 -23.259 -12.222  0.00  0.00    +0.000 C 
ENDROOT
BRANCH   2  13
ATOM     12  N   UNL     1      29.002 -23.745 -16.070  0.00  0.00    +0.386 N 
ATOM     13  C   UNL     1      31.774 -23.984 -14.980  0.00  0.00    +0.106 C 
ATOM     14  C   UNL     1      31.125 -25.078 -14.125  0.00  0.00    +0.022 C 
ATOM     15  C   UNL     1      31.003 -22.664 -14.889  0.00  0.00    +0.002 C 
ATOM     16  C   UNL     1      29.767 -25.573 -14.615  0.00  0.00    -0.021 C 
ATOM     17  C   UNL     1      29.817 -22.545 -15.851  0.00  0.00    -0.075 C 
ATOM     18  C   UNL     1      28.705 -24.497 -14.851  0.00  0.00    -0.077 C 
ATOM     19  C   UNL     1      27.778 -23.391 -16.790  0.00  0.00    -0.101 C 
ATOM     20  H   UNL     1      29.565 -24.378 -16.638  0.00  0.00    -0.080 HD
ENDBRANCH   2  13
BRANCH   6  21
ATOM     21  C   UNL     1      36.188 -22.829 -16.339  0.00  0.00    +0.074 C 
BRANCH  21  23
ATOM     22 CL   UNL     1      33.122 -20.180 -20.766  0.00  0.00    -0.082 Cl
ATOM     23  C   UNL     1      35.424 -22.170 -17.442  0.00  0.00    -0.016 C 
ATOM     24  C   UNL     1      36.091 -21.362 -18.361  0.00  0.00    -0.003 C 
ATOM     25  C   UNL     1      34.049 -22.365 -17.547  0.00  0.00    -0.003 C 
ATOM     26  C   UNL     1      35.379 -20.747 -19.390  0.00  0.00    +0.011 C 
ATOM     27  C   UNL     1      33.336 -21.748 -18.575  0.00  0.00    +0.011 C 
ATOM     28  C   UNL     1      34.001 -20.940 -19.497  0.00  0.00    +0.058 C 
ENDBRANCH  21  23
ENDBRANCH   6  21
TORSDOF 3
ENDMDL
MODEL 7
REMARK VINA RESULT:      -9.9      5.782      9.340
REMARK  Name = 2267
REMARK  3 active torsions:
REMARK  status: ('A' for Active; 'I' for Inactive)
REMARK    1  A    between atoms: N_2  and  C_13
REMARK    2  A    between atoms: C_6  and  C_21
REMARK    3  A    between atoms: C_21  and  C_23
REMARK                            x       y       z     vdW  Elec       q    Type
REMARK                         _______ _______ _______ _____ _____    ______ ____
ROOT
ATOM      1  O   UNL     1      34.373 -19.644 -23.498  0.00  0.00    -0.266 OA
ATOM      2  N   UNL     1      34.893 -18.584 -21.500  0.00  0.00    -0.219 N 
ATOM      3  N   UNL     1      35.117 -17.433 -20.801  0.00  0.00    -0.171 NA
ATOM      4  C   UNL     1      34.577 -18.616 -22.857  0.00  0.00    +0.276 A 
ATOM      5  C   UNL     1      34.487 -17.317 -23.549  0.00  0.00    +0.059 A 
ATOM      6  C   UNL     1      35.039 -16.289 -21.404  0.00  0.00    +0.083 A 
ATOM      7  C   UNL     1      34.717 -16.147 -22.834  0.00  0.00    +0.020 A 
ATOM      8  C   UNL     1      34.176 -17.258 -24.912  0.00  0.00    +0.005 C 
ATOM      9  C   UNL     1      34.637 -14.907 -23.475  0.00  0.00    +0.001 C 
ATOM     10  C   UNL     1      34.097 -16.021 -25.552  0.00  0.00    +0.000 C 
ATOM     11  C   UNL     1      34.327 -14.849 -24.834  0.00  0.00    +0.000 C 
ENDROOT
BRANCH   2  13
ATOM     12  N   UNL     1      34.574 -22.290 -19.126  0.00  0.00    +0.386 N 
ATOM     13  C   UNL     1      35.009 -19.800 -20.719  0.00  0.00    +0.106 C 
ATOM     14  C   UNL     1      36.286 -19.726 -19.875  0.00  0.00    +0.022 C 
ATOM     15  C   UNL     1      33.763 -19.968 -19.845  0.00  0.00    +0.002 C 
ATOM     16  C   UNL     1      36.679 -21.019 -19.166  0.00  0.00    -0.021 C 
ATOM     17  C   UNL     1      33.444 -21.414 -19.453  0.00  0.00    -0.075 C 
ATOM     18  C   UNL     1      35.599 -21.660 -18.292  0.00  0.00    -0.077 C 
ATOM     19  C   UNL     1      34.084 -23.531 -18.524  0.00  0.00    -0.101 C 
ATOM     20  H   UNL     1      35.044 -22.497 -20.007  0.00  0.00    -0.080 HD
ENDBRANCH   2  13
BRANCH   6  21
ATOM     21  C   UNL     1      35.297 -15.050 -20.580  0.00  0.00    +0.074 C 
BRANCH  21  23
ATOM     22 CL   UNL     1      30.666 -11.252 -20.971  0.00  0.00    -0.082 Cl
ATOM     23  C   UNL     1      34.142 -14.104 -20.678  0.00  0.00    -0.016 C 
ATOM     24  C   UNL     1      34.196 -13.035 -21.570  0.00  0.00    -0.003 C 
ATOM     25  C   UNL     1      33.019 -14.294 -19.876  0.00  0.00    -0.003 C 
ATOM     26  C   UNL     1      33.120 -12.153 -21.661  0.00  0.00    +0.011 C 
ATOM     27  C   UNL     1      31.944 -13.411 -19.967  0.00  0.00    +0.011 C 
ATOM     28  C   UNL     1      31.994 -12.340 -20.860  0.00  0.00    +0.058 C 
ENDBRANCH  21  23
ENDBRANCH   6  21
TORSDOF 3
ENDMDL
MODEL 8
REMARK VINA RESULT:      -9.7     11.611     15.094
REMARK  Name = 2267
REMARK  3 active torsions:
REMARK  status: ('A' for Active; 'I' for Inactive)
REMARK    1  A    between atoms: N_2  and  C_13
REMARK    2  A    between atoms: C_6  and  C_21
REMARK    3  A    between atoms: C_21  and  C_23
REMARK                            x       y       z     vdW  Elec       q    Type
REMARK                         _______ _______ _______ _____ _____    ______ ____
ROOT
ATOM      1  O   UNL     1      31.652 -12.843 -20.867  0.00  0.00    -0.266 OA
ATOM      2  N   UNL     1      32.947 -11.908 -22.551  0.00  0.00    -0.219 N 
ATOM      3  N   UNL     1      33.553 -10.814 -23.101  0.00  0.00    -0.171 NA
ATOM      4  C   UNL     1      32.202 -11.867 -21.373  0.00  0.00    +0.276 A 
ATOM      5  C   UNL     1      32.079 -10.557 -20.709  0.00  0.00    +0.059 A 
ATOM      6  C   UNL     1      33.448  -9.661 -22.521  0.00  0.00    +0.083 A 
ATOM      7  C   UNL     1      32.696  -9.447 -21.273  0.00  0.00    +0.020 A 
ATOM      8  C   UNL     1      31.348 -10.427 -19.523  0.00  0.00    +0.005 C 
ATOM      9  C   UNL     1      32.588  -8.196 -20.656  0.00  0.00    +0.001 C 
ATOM     10  C   UNL     1      31.240  -9.180 -18.908  0.00  0.00    +0.000 C 
ATOM     11  C   UNL     1      31.859  -8.068 -19.474  0.00  0.00    +0.000 C 
ENDROOT
BRANCH   2  13
ATOM     12  N   UNL     1      33.861 -15.870 -24.262  0.00  0.00    +0.386 N 
ATOM     13  C   UNL     1      33.134 -13.140 -23.289  0.00  0.00    +0.106 C 
ATOM     14  C   UNL     1      33.166 -12.820 -24.787  0.00  0.00    +0.022 C 
ATOM     15  C   UNL     1      34.425 -13.822 -22.829  0.00  0.00    +0.002 C 
ATOM     16  C   UNL     1      33.129 -14.029 -25.718  0.00  0.00    -0.021 C 
ATOM     17  C   UNL     1      34.458 -15.341 -23.031  0.00  0.00    -0.075 C 
ATOM     18  C   UNL     1      34.188 -15.104 -25.465  0.00  0.00    -0.077 C 
ATOM     19  C   UNL     1      34.212 -17.283 -24.417  0.00  0.00    -0.101 C 
ATOM     20  H   UNL     1      32.851 -15.777 -24.158  0.00  0.00    -0.080 HD
ENDBRANCH   2  13
BRANCH   6  21
ATOM     21  C   UNL     1      34.139  -8.488 -23.176  0.00  0.00    +0.074 C 
BRANCH  21  23
ATOM     22 CL   UNL     1      30.367  -3.849 -23.698  0.00  0.00    -0.082 Cl
ATOM     23  C   UNL     1      33.199  -7.332 -23.307  0.00  0.00    -0.016 C 
ATOM     24  C   UNL     1      33.649  -6.040 -23.048  0.00  0.00    -0.003 C 
ATOM     25  C   UNL     1      31.877  -7.552 -23.687  0.00  0.00    -0.003 C 
ATOM     26  C   UNL     1      32.773  -4.961 -23.169  0.00  0.00    +0.011 C 
ATOM     27  C   UNL     1      31.000  -6.474 -23.807  0.00  0.00    +0.011 C 
ATOM     28  C   UNL     1      31.448  -5.178 -23.549  0.00  0.00    +0.058 C 
ENDBRANCH  21  23
ENDBRANCH   6  21
TORSDOF 3
ENDMDL
MODEL 9
REMARK VINA RESULT:      -9.2      3.147      7.406
REMARK  Name = 2267
REMARK  3 active torsions:
REMARK  status: ('A' for Active; 'I' for Inactive)
REMARK    1  A    between atoms: N_2  and  C_13
REMARK    2  A    between atoms: C_6  and  C_21
REMARK    3  A    between atoms: C_21  and  C_23
REMARK                            x       y       z     vdW  Elec       q    Type
REMARK                         _______ _______ _______ _____ _____    ______ ____
ROOT
ATOM      1  O   UNL     1      33.014 -22.635 -17.842  0.00  0.00    -0.266 OA
ATOM      2  N   UNL     1      32.947 -23.428 -15.662  0.00  0.00    -0.219 N 
ATOM      3  N   UNL     1      33.579 -23.664 -14.475  0.00  0.00    -0.171 NA
ATOM      4  C   UNL     1      33.570 -22.853 -16.768  0.00  0.00    +0.276 A 
ATOM      5  C   UNL     1      34.992 -22.492 -16.618  0.00  0.00    +0.059 A 
ATOM      6  C   UNL     1      34.827 -23.348 -14.337  0.00  0.00    +0.083 A 
ATOM      7  C   UNL     1      35.631 -22.735 -15.408  0.00  0.00    +0.020 A 
ATOM      8  C   UNL     1      35.694 -21.912 -17.680  0.00  0.00    +0.005 C 
ATOM      9  C   UNL     1      36.979 -22.400 -15.248  0.00  0.00    +0.001 C 
ATOM     10  C   UNL     1      37.039 -21.577 -17.520  0.00  0.00    +0.000 C 
ATOM     11  C   UNL     1      37.679 -21.822 -16.308  0.00  0.00    +0.000 C 
ENDROOT
BRANCH   2  13
ATOM     12  N   UNL     1      28.594 -24.034 -16.051  0.00  0.00    +0.386 N 
ATOM     13  C   UNL     1      31.553 -23.824 -15.697  0.00  0.00    +0.106 C 
ATOM     14  C   UNL     1      31.272 -24.750 -14.509  0.00  0.00    +0.022 C 
ATOM     15  C   UNL     1      30.665 -22.577 -15.663  0.00  0.00    +0.002 C 
ATOM     16  C   UNL     1      29.910 -25.440 -14.523  0.00  0.00    -0.021 C 
ATOM     17  C   UNL     1      29.278 -22.758 -16.287  0.00  0.00    -0.075 C 
ATOM     18  C   UNL     1      28.695 -24.523 -14.676  0.00  0.00    -0.077 C 
ATOM     19  C   UNL     1      27.197 -23.937 -16.481  0.00  0.00    -0.101 C 
ATOM     20  H   UNL     1      29.079 -24.732 -16.614  0.00  0.00    -0.080 HD
ENDBRANCH   2  13
BRANCH   6  21
ATOM     21  C   UNL     1      35.473 -23.634 -13.001  0.00  0.00    +0.074 C 
BRANCH  21  23
ATOM     22 CL   UNL     1      40.648 -26.580 -13.749  0.00  0.00    -0.082 Cl
ATOM     23  C   UNL     1      36.763 -24.367 -13.188  0.00  0.00    -0.016 C 
ATOM     24  C   UNL     1      36.817 -25.469 -14.039  0.00  0.00    -0.003 C 
ATOM     25  C   UNL     1      37.905 -23.947 -12.510  0.00  0.00    -0.003 C 
ATOM     26  C   UNL     1      38.020 -26.153 -14.213  0.00  0.00    +0.011 C 
ATOM     27  C   UNL     1      39.107 -24.632 -12.683  0.00  0.00    +0.011 C 
ATOM     28  C   UNL     1      39.165 -25.735 -13.535  0.00  0.00    +0.058 C 
ENDBRANCH  21  23
ENDBRANCH   6  21
TORSDOF 3
ENDMDL
