MODEL 1
REMARK VINA RESULT:     -11.9      0.000      0.000
REMARK  Name = 10453870
REMARK  8 active torsions:
REMARK  status: ('A' for Active; 'I' for Inactive)
REMARK    1  A    between atoms: C_2  and  C_12
REMARK    2  A    between atoms: C_5  and  C_23
REMARK    3  A    between atoms: C_9  and  O_14
REMARK    4  A    between atoms: C_10  and  O_16
REMARK    5  A    between atoms: C_11  and  O_18
REMARK    6  A    between atoms: C_13  and  C_20
REMARK    7  A    between atoms: C_20  and  O_21
REMARK    8  A    between atoms: C_23  and  C_25
REMARK                            x       y       z     vdW  Elec       q    Type
REMARK                         _______ _______ _______ _____ _____    ______ ____
ROOT
ATOM      1  F   UNL     1      30.929 -22.592 -16.892  0.00  0.00    -0.204 F 
ATOM      2  C   UNL     1      34.101 -23.472 -14.401  0.00  0.00    +0.007 C 
ATOM      3  C   UNL     1      34.249 -23.599 -15.782  0.00  0.00    -0.004 C 
ATOM      4  C   UNL     1      32.887 -23.050 -13.863  0.00  0.00    +0.000 C 
ATOM      5  C   UNL     1      33.179 -23.302 -16.626  0.00  0.00    +0.010 C 
ATOM      6  C   UNL     1      31.817 -22.753 -14.708  0.00  0.00    +0.029 C 
ATOM      7  C   UNL     1      31.963 -22.880 -16.090  0.00  0.00    +0.136 C 
ENDROOT
BRANCH   2  12
ATOM      8  O   UNL     1      36.033 -24.830 -14.103  0.00  0.00    -0.347 OA
ATOM      9  C   UNL     1      34.790 -24.228 -12.088  0.00  0.00    +0.171 C 
ATOM     10  C   UNL     1      35.969 -24.701 -11.232  0.00  0.00    +0.169 C 
ATOM     11  C   UNL     1      36.841 -25.701 -11.991  0.00  0.00    +0.169 C 
ATOM     12  C   UNL     1      35.263 -23.795 -13.484  0.00  0.00    +0.167 C 
ATOM     13  C   UNL     1      37.214 -25.156 -13.371  0.00  0.00    +0.174 C 
BRANCH   9  14
ATOM     14  O   UNL     1      34.171 -23.112 -11.448  0.00  0.00    -0.379 OA
ATOM     15  H   UNL     1      34.095 -22.379 -12.078  0.00  0.00    +0.211 HD
ENDBRANCH   9  14
BRANCH  10  16
ATOM     16  O   UNL     1      35.474 -25.350 -10.059  0.00  0.00    -0.379 OA
ATOM     17  H   UNL     1      34.550 -25.093  -9.912  0.00  0.00    +0.211 HD
ENDBRANCH  10  16
BRANCH  11  18
ATOM     18  O   UNL     1      38.030 -25.948 -11.245  0.00  0.00    -0.379 OA
ATOM     19  H   UNL     1      37.810 -26.440 -10.439  0.00  0.00    +0.211 HD
ENDBRANCH  11  18
BRANCH  13  20
ATOM     20  C   UNL     1      37.994 -26.180 -14.190  0.00  0.00    +0.169 C 
BRANCH  20  21
ATOM     21  O   UNL     1      37.218 -26.538 -15.320  0.00  0.00    -0.379 OA
ATOM     22  H   UNL     1      36.736 -25.760 -15.640  0.00  0.00    +0.211 HD
ENDBRANCH  20  21
ENDBRANCH  13  20
ENDBRANCH   2  12
BRANCH   5  23
ATOM     23  C   UNL     1      33.339 -23.438 -18.103  0.00  0.00    +0.061 C 
BRANCH  23  25
ATOM     24  S   UNL     1      33.099 -21.098 -19.532  0.00  0.00    -0.091 S 
ATOM     25  C   UNL     1      34.039 -22.258 -18.747  0.00  0.00    +0.012 C 
ATOM     26  C   UNL     1      35.367 -22.009 -18.772  0.00  0.00    +0.003 C 
ATOM     27  C   UNL     1      35.666 -20.794 -19.473  0.00  0.00    +0.006 C 
ATOM     28  C   UNL     1      34.500 -20.184 -19.949  0.00  0.00    +0.029 C 
ATOM     29  C   UNL     1      36.906 -20.163 -19.735  0.00  0.00    +0.001 C 
ATOM     30  C   UNL     1      34.544 -18.975 -20.671  0.00  0.00    +0.006 C 
ATOM     31  C   UNL     1      36.952 -18.964 -20.452  0.00  0.00    +0.000 C 
ATOM     32  C   UNL     1      35.782 -18.378 -20.914  0.00  0.00    +0.001 C 
ENDBRANCH  23  25
ENDBRANCH   5  23
TORSDOF 8
ENDMDL
MODEL 2
REMARK VINA RESULT:     -11.0      2.818      4.852
REMARK  Name = 10453870
REMARK  8 active torsions:
REMARK  status: ('A' for Active; 'I' for Inactive)
REMARK    1  A    between atoms: C_2  and  C_12
REMARK    2  A    between atoms: C_5  and  C_23
REMARK    3  A    between atoms: C_9  and  O_14
REMARK    4  A    between atoms: C_10  and  O_16
REMARK    5  A    between atoms: C_11  and  O_18
REMARK    6  A    between atoms: C_13  and  C_20
REMARK    7  A    between atoms: C_20  and  O_21
REMARK    8  A    between atoms: C_23  and  C_25
REMARK                            x       y       z     vdW  Elec       q    Type
REMARK                         _______ _______ _______ _____ _____    ______ ____
ROOT
ATOM      1  F   UNL     1      33.298 -19.568 -21.264  0.00  0.00    -0.204 F 
ATOM      2  C   UNL     1      34.471 -21.965 -18.115  0.00  0.00    +0.007 C 
ATOM      3  C   UNL     1      35.431 -21.284 -18.861  0.00  0.00    -0.004 C 
ATOM      4  C   UNL     1      33.120 -21.838 -18.430  0.00  0.00    +0.000 C 
ATOM      5  C   UNL     1      35.038 -20.473 -19.926  0.00  0.00    +0.010 C 
ATOM      6  C   UNL     1      32.726 -21.027 -19.494  0.00  0.00    +0.029 C 
ATOM      7  C   UNL     1      33.686 -20.345 -20.243  0.00  0.00    +0.136 C 
ENDROOT
BRANCH   2  12
ATOM      8  O   UNL     1      33.798 -22.931 -16.046  0.00  0.00    -0.347 OA
ATOM      9  C   UNL     1      36.150 -22.303 -16.253  0.00  0.00    +0.171 C 
ATOM     10  C   UNL     1      36.467 -23.116 -14.995  0.00  0.00    +0.169 C 
ATOM     11  C   UNL     1      35.226 -23.299 -14.122  0.00  0.00    +0.169 C 
ATOM     12  C   UNL     1      34.898 -22.846 -16.958  0.00  0.00    +0.167 C 
ATOM     13  C   UNL     1      34.050 -23.815 -14.954  0.00  0.00    +0.174 C 
BRANCH   9  14
ATOM     14  O   UNL     1      37.255 -22.391 -17.152  0.00  0.00    -0.379 OA
ATOM     15  H   UNL     1      37.165 -21.716 -17.843  0.00  0.00    +0.211 HD
ENDBRANCH   9  14
BRANCH  10  16
ATOM     16  O   UNL     1      37.453 -22.429 -14.221  0.00  0.00    -0.379 OA
ATOM     17  H   UNL     1      37.056 -21.641 -13.818  0.00  0.00    +0.211 HD
ENDBRANCH  10  16
BRANCH  11  18
ATOM     18  O   UNL     1      35.513 -24.231 -13.084  0.00  0.00    -0.379 OA
ATOM     19  H   UNL     1      36.473 -24.285 -12.953  0.00  0.00    +0.211 HD
ENDBRANCH  11  18
BRANCH  13  20
ATOM     20  C   UNL     1      32.770 -23.901 -14.129  0.00  0.00    +0.169 C 
BRANCH  20  21
ATOM     21  O   UNL     1      32.802 -25.096 -13.369  0.00  0.00    -0.379 OA
ATOM     22  H   UNL     1      32.120 -25.704 -13.694  0.00  0.00    +0.211 HD
ENDBRANCH  20  21
ENDBRANCH  13  20
ENDBRANCH   2  12
BRANCH   5  23
ATOM     23  C   UNL     1      36.067 -19.745 -20.724  0.00  0.00    +0.061 C 
BRANCH  23  25
ATOM     24  S   UNL     1      35.570 -17.881 -22.688  0.00  0.00    -0.091 S 
ATOM     25  C   UNL     1      35.674 -18.321 -21.062  0.00  0.00    +0.012 C 
ATOM     26  C   UNL     1      35.386 -17.325 -20.196  0.00  0.00    +0.003 C 
ATOM     27  C   UNL     1      35.054 -16.108 -20.878  0.00  0.00    +0.006 C 
ATOM     28  C   UNL     1      35.115 -16.272 -22.266  0.00  0.00    +0.029 C 
ATOM     29  C   UNL     1      34.692 -14.836 -20.371  0.00  0.00    +0.001 C 
ATOM     30  C   UNL     1      34.829 -15.210 -23.147  0.00  0.00    +0.006 C 
ATOM     31  C   UNL     1      34.409 -13.781 -21.243  0.00  0.00    +0.000 C 
ATOM     32  C   UNL     1      34.477 -13.969 -22.616  0.00  0.00    +0.001 C 
ENDBRANCH  23  25
ENDBRANCH   5  23
TORSDOF 8
ENDMDL
MODEL 3
REMARK VINA RESULT:     -10.6      8.508     12.851
REMARK  Name = 10453870
REMARK  8 active torsions:
REMARK  status: ('A' for Active; 'I' for Inactive)
REMARK    1  A    between atoms: C_2  and  C_12
REMARK    2  A    between atoms: C_5  and  C_23
REMARK    3  A    between atoms: C_9  and  O_14
REMARK    4  A    between atoms: C_10  and  O_16
REMARK    5  A    between atoms: C_11  and  O_18
REMARK    6  A    between atoms: C_13  and  C_20
REMARK    7  A    between atoms: C_20  and  O_21
REMARK    8  A    between atoms: C_23  and  C_25
REMARK                            x       y       z     vdW  Elec       q    Type
REMARK                         _______ _______ _______ _____ _____    ______ ____
ROOT
ATOM      1  F   UNL     1      34.560 -17.791 -24.809  0.00  0.00    -0.204 F 
ATOM      2  C   UNL     1      34.022 -14.047 -23.154  0.00  0.00    +0.007 C 
ATOM      3  C   UNL     1      34.990 -14.904 -22.630  0.00  0.00    -0.004 C 
ATOM      4  C   UNL     1      33.238 -14.453 -24.232  0.00  0.00    +0.000 C 
ATOM      5  C   UNL     1      35.175 -16.169 -23.188  0.00  0.00    +0.010 C 
ATOM      6  C   UNL     1      33.423 -15.719 -24.789  0.00  0.00    +0.029 C 
ATOM      7  C   UNL     1      34.391 -16.577 -24.267  0.00  0.00    +0.136 C 
ENDROOT
BRANCH   2  12
ATOM      8  O   UNL     1      32.649 -12.724 -21.730  0.00  0.00    -0.347 OA
ATOM      9  C   UNL     1      33.688 -11.585 -23.625  0.00  0.00    +0.171 C 
ATOM     10  C   UNL     1      33.328 -10.235 -22.998  0.00  0.00    +0.169 C 
ATOM     11  C   UNL     1      32.158 -10.369 -22.023  0.00  0.00    +0.169 C 
ATOM     12  C   UNL     1      33.822 -12.673 -22.549  0.00  0.00    +0.167 C 
ATOM     13  C   UNL     1      32.409 -11.504 -21.029  0.00  0.00    +0.174 C 
BRANCH   9  14
ATOM     14  O   UNL     1      34.937 -11.461 -24.307  0.00  0.00    -0.379 OA
ATOM     15  H   UNL     1      34.777 -11.235 -25.236  0.00  0.00    +0.211 HD
ENDBRANCH   9  14
BRANCH  10  16
ATOM     16  O   UNL     1      32.941  -9.322 -24.027  0.00  0.00    -0.379 OA
ATOM     17  H   UNL     1      32.049  -9.541 -24.336  0.00  0.00    +0.211 HD
ENDBRANCH  10  16
BRANCH  11  18
ATOM     18  O   UNL     1      31.997  -9.146 -21.311  0.00  0.00    -0.379 OA
ATOM     19  H   UNL     1      31.390  -8.565 -21.797  0.00  0.00    +0.211 HD
ENDBRANCH  11  18
BRANCH  13  20
ATOM     20  C   UNL     1      31.209 -11.729 -20.115  0.00  0.00    +0.169 C 
BRANCH  20  21
ATOM     21  O   UNL     1      30.065 -11.152 -20.721  0.00  0.00    -0.379 OA
ATOM     22  H   UNL     1      30.320 -10.730 -21.556  0.00  0.00    +0.211 HD
ENDBRANCH  20  21
ENDBRANCH  13  20
ENDBRANCH   2  12
BRANCH   5  23
ATOM     23  C   UNL     1      36.210 -17.084 -22.627  0.00  0.00    +0.061 C 
BRANCH  23  25
ATOM     24  S   UNL     1      36.705 -19.080 -20.796  0.00  0.00    -0.091 S 
ATOM     25  C   UNL     1      35.640 -18.169 -21.736  0.00  0.00    +0.012 C 
ATOM     26  C   UNL     1      34.340 -18.512 -21.595  0.00  0.00    +0.003 C 
ATOM     27  C   UNL     1      34.174 -19.588 -20.661  0.00  0.00    +0.006 C 
ATOM     28  C   UNL     1      35.404 -20.002 -20.140  0.00  0.00    +0.029 C 
ATOM     29  C   UNL     1      33.003 -20.251 -20.218  0.00  0.00    +0.001 C 
ATOM     30  C   UNL     1      35.492 -21.049 -19.202  0.00  0.00    +0.006 C 
ATOM     31  C   UNL     1      33.088 -21.290 -19.287  0.00  0.00    +0.000 C 
ATOM     32  C   UNL     1      34.321 -21.683 -18.786  0.00  0.00    +0.001 C 
ENDBRANCH  23  25
ENDBRANCH   5  23
TORSDOF 8
ENDMDL
MODEL 4
REMARK VINA RESULT:     -10.5      8.354     12.708
REMARK  Name = 10453870
REMARK  8 active torsions:
REMARK  status: ('A' for Active; 'I' for Inactive)
REMARK    1  A    between atoms: C_2  and  C_12
REMARK    2  A    between atoms: C_5  and  C_23
REMARK    3  A    between atoms: C_9  and  O_14
REMARK    4  A    between atoms: C_10  and  O_16
REMARK    5  A    between atoms: C_11  and  O_18
REMARK    6  A    between atoms: C_13  and  C_20
REMARK    7  A    between atoms: C_20  and  O_21
REMARK    8  A    between atoms: C_23  and  C_25
REMARK                            x       y       z     vdW  Elec       q    Type
REMARK                         _______ _______ _______ _____ _____    ______ ____
ROOT
ATOM      1  F   UNL     1      35.021 -18.471 -24.006  0.00  0.00    -0.204 F 
ATOM      2  C   UNL     1      33.688 -14.573 -23.744  0.00  0.00    +0.007 C 
ATOM      3  C   UNL     1      34.601 -15.057 -22.809  0.00  0.00    -0.004 C 
ATOM      4  C   UNL     1      33.226 -15.402 -24.765  0.00  0.00    +0.000 C 
ATOM      5  C   UNL     1      35.054 -16.374 -22.895  0.00  0.00    +0.010 C 
ATOM      6  C   UNL     1      33.679 -16.718 -24.851  0.00  0.00    +0.029 C 
ATOM      7  C   UNL     1      34.592 -17.205 -23.915  0.00  0.00    +0.136 C 
ENDROOT
BRANCH   2  12
ATOM      8  O   UNL     1      34.243 -12.290 -24.126  0.00  0.00    -0.347 OA
ATOM      9  C   UNL     1      32.794 -12.765 -22.217  0.00  0.00    +0.171 C 
ATOM     10  C   UNL     1      32.454 -11.275 -22.117  0.00  0.00    +0.169 C 
ATOM     11  C   UNL     1      33.538 -10.413 -22.764  0.00  0.00    +0.169 C 
ATOM     12  C   UNL     1      33.196 -13.143 -23.651  0.00  0.00    +0.167 C 
ATOM     13  C   UNL     1      33.861 -10.916 -24.173  0.00  0.00    +0.174 C 
BRANCH   9  14
ATOM     14  O   UNL     1      31.644 -13.528 -21.849  0.00  0.00    -0.379 OA
ATOM     15  H   UNL     1      31.058 -12.985 -21.301  0.00  0.00    +0.211 HD
ENDBRANCH   9  14
BRANCH  10  16
ATOM     16  O   UNL     1      32.357 -10.902 -20.741  0.00  0.00    -0.379 OA
ATOM     17  H   UNL     1      32.425 -11.693 -20.185  0.00  0.00    +0.211 HD
ENDBRANCH  10  16
BRANCH  11  18
ATOM     18  O   UNL     1      33.085  -9.064 -22.838  0.00  0.00    -0.379 OA
ATOM     19  H   UNL     1      33.692  -8.491 -22.345  0.00  0.00    +0.211 HD
ENDBRANCH  11  18
BRANCH  13  20
ATOM     20  C   UNL     1      35.016 -10.140 -24.798  0.00  0.00    +0.169 C 
BRANCH  20  21
ATOM     21  O   UNL     1      35.899  -9.736 -23.767  0.00  0.00    -0.379 OA
ATOM     22  H   UNL     1      35.558 -10.040 -22.912  0.00  0.00    +0.211 HD
ENDBRANCH  20  21
ENDBRANCH  13  20
ENDBRANCH   2  12
BRANCH   5  23
ATOM     23  C   UNL     1      36.031 -16.890 -21.893  0.00  0.00    +0.061 C 
BRANCH  23  25
ATOM     24  S   UNL     1      36.712 -19.189 -20.541  0.00  0.00    -0.091 S 
ATOM     25  C   UNL     1      35.555 -18.135 -21.171  0.00  0.00    +0.012 C 
ATOM     26  C   UNL     1      34.277 -18.521 -20.961  0.00  0.00    +0.003 C 
ATOM     27  C   UNL     1      34.209 -19.758 -20.238  0.00  0.00    +0.006 C 
ATOM     28  C   UNL     1      35.486 -20.242 -19.939  0.00  0.00    +0.029 C 
ATOM     29  C   UNL     1      33.090 -20.513 -19.809  0.00  0.00    +0.001 C 
ATOM     30  C   UNL     1      35.671 -21.446 -19.233  0.00  0.00    +0.006 C 
ATOM     31  C   UNL     1      33.271 -21.709 -19.109  0.00  0.00    +0.000 C 
ATOM     32  C   UNL     1      34.549 -22.169 -18.825  0.00  0.00    +0.001 C 
ENDBRANCH  23  25
ENDBRANCH   5  23
TORSDOF 8
ENDMDL
MODEL 5
REMARK VINA RESULT:     -10.4      4.216      7.804
REMARK  Name = 10453870
REMARK  8 active torsions:
REMARK  status: ('A' for Active; 'I' for Inactive)
REMARK    1  A    between atoms: C_2  and  C_12
REMARK    2  A    between atoms: C_5  and  C_23
REMARK    3  A    between atoms: C_9  and  O_14
REMARK    4  A    between atoms: C_10  and  O_16
REMARK    5  A    between atoms: C_11  and  O_18
REMARK    6  A    between atoms: C_13  and  C_20
REMARK    7  A    between atoms: C_20  and  O_21
REMARK    8  A    between atoms: C_23  and  C_25
REMARK                            x       y       z     vdW  Elec       q    Type
REMARK                         _______ _______ _______ _____ _____    ______ ____
ROOT
ATOM      1  F   UNL     1      37.137 -23.160 -13.346  0.00  0.00    -0.204 F 
ATOM      2  C   UNL     1      35.882 -22.111 -17.137  0.00  0.00    +0.007 C 
ATOM      3  C   UNL     1      35.067 -22.907 -16.333  0.00  0.00    -0.004 C 
ATOM      4  C   UNL     1      37.116 -21.671 -16.663  0.00  0.00    +0.000 C 
ATOM      5  C   UNL     1      35.488 -23.263 -15.051  0.00  0.00    +0.010 C 
ATOM      6  C   UNL     1      37.537 -22.027 -15.381  0.00  0.00    +0.029 C 
ATOM      7  C   UNL     1      36.723 -22.823 -14.575  0.00  0.00    +0.136 C 
ENDROOT
BRANCH   2  12
ATOM      8  O   UNL     1      36.141 -20.546 -18.910  0.00  0.00    -0.347 OA
ATOM      9  C   UNL     1      33.909 -21.485 -18.590  0.00  0.00    +0.171 C 
ATOM     10  C   UNL     1      33.494 -20.941 -19.960  0.00  0.00    +0.169 C 
ATOM     11  C   UNL     1      34.381 -19.772 -20.386  0.00  0.00    +0.169 C 
ATOM     12  C   UNL     1      35.425 -21.725 -18.529  0.00  0.00    +0.167 C 
ATOM     13  C   UNL     1      35.861 -20.136 -20.249  0.00  0.00    +0.174 C 
BRANCH   9  14
ATOM     14  O   UNL     1      33.240 -22.726 -18.362  0.00  0.00    -0.379 OA
ATOM     15  H   UNL     1      32.425 -22.567 -17.861  0.00  0.00    +0.211 HD
ENDBRANCH   9  14
BRANCH  10  16
ATOM     16  O   UNL     1      32.146 -20.472 -19.897  0.00  0.00    -0.379 OA
ATOM     17  H   UNL     1      31.993 -20.041 -19.042  0.00  0.00    +0.211 HD
ENDBRANCH  10  16
BRANCH  11  18
ATOM     18  O   UNL     1      34.103 -19.440 -21.744  0.00  0.00    -0.379 OA
ATOM     19  H   UNL     1      34.523 -18.593 -21.963  0.00  0.00    +0.211 HD
ENDBRANCH  11  18
BRANCH  13  20
ATOM     20  C   UNL     1      36.766 -18.949 -20.564  0.00  0.00    +0.169 C 
BRANCH  20  21
ATOM     21  O   UNL     1      36.073 -17.756 -20.243  0.00  0.00    -0.379 OA
ATOM     22  H   UNL     1      36.711 -17.038 -20.109  0.00  0.00    +0.211 HD
ENDBRANCH  20  21
ENDBRANCH  13  20
ENDBRANCH   2  12
BRANCH   5  23
ATOM     23  C   UNL     1      34.615 -24.114 -14.192  0.00  0.00    +0.061 C 
BRANCH  23  25
ATOM     24  S   UNL     1      32.039 -24.900 -13.621  0.00  0.00    -0.091 S 
ATOM     25  C   UNL     1      33.137 -23.960 -14.491  0.00  0.00    +0.012 C 
ATOM     26  C   UNL     1      32.568 -23.135 -15.399  0.00  0.00    +0.003 C 
ATOM     27  C   UNL     1      31.139 -23.258 -15.405  0.00  0.00    +0.006 C 
ATOM     28  C   UNL     1      30.708 -24.202 -14.467  0.00  0.00    +0.029 C 
ATOM     29  C   UNL     1      30.161 -22.594 -16.184  0.00  0.00    +0.001 C 
ATOM     30  C   UNL     1      29.341 -24.495 -14.292  0.00  0.00    +0.006 C 
ATOM     31  C   UNL     1      28.804 -22.883 -16.012  0.00  0.00    +0.000 C 
ATOM     32  C   UNL     1      28.401 -23.824 -15.075  0.00  0.00    +0.001 C 
ENDBRANCH  23  25
ENDBRANCH   5  23
TORSDOF 8
ENDMDL
MODEL 6
REMARK VINA RESULT:     -10.3      7.618     12.001
REMARK  Name = 10453870
REMARK  8 active torsions:
REMARK  status: ('A' for Active; 'I' for Inactive)
REMARK    1  A    between atoms: C_2  and  C_12
REMARK    2  A    between atoms: C_5  and  C_23
REMARK    3  A    between atoms: C_9  and  O_14
REMARK    4  A    between atoms: C_10  and  O_16
REMARK    5  A    between atoms: C_11  and  O_18
REMARK    6  A    between atoms: C_13  and  C_20
REMARK    7  A    between atoms: C_20  and  O_21
REMARK    8  A    between atoms: C_23  and  C_25
REMARK                            x       y       z     vdW  Elec       q    Type
REMARK                         _______ _______ _______ _____ _____    ______ ____
ROOT
ATOM      1  F   UNL     1      34.946 -20.428 -23.422  0.00  0.00    -0.204 F 
ATOM      2  C   UNL     1      34.579 -16.320 -23.617  0.00  0.00    +0.007 C 
ATOM      3  C   UNL     1      35.400 -16.897 -22.650  0.00  0.00    -0.004 C 
ATOM      4  C   UNL     1      33.883 -17.127 -24.516  0.00  0.00    +0.000 C 
ATOM      5  C   UNL     1      35.527 -18.285 -22.581  0.00  0.00    +0.010 C 
ATOM      6  C   UNL     1      34.010 -18.515 -24.448  0.00  0.00    +0.029 C 
ATOM      7  C   UNL     1      34.832 -19.094 -23.480  0.00  0.00    +0.136 C 
ENDROOT
BRANCH   2  12
ATOM      8  O   UNL     1      33.732 -14.382 -22.526  0.00  0.00    -0.347 OA
ATOM      9  C   UNL     1      33.714 -14.365 -24.969  0.00  0.00    +0.171 C 
ATOM     10  C   UNL     1      33.445 -12.857 -24.946  0.00  0.00    +0.169 C 
ATOM     11  C   UNL     1      32.816 -12.424 -23.622  0.00  0.00    +0.169 C 
ATOM     12  C   UNL     1      34.441 -14.813 -23.692  0.00  0.00    +0.167 C 
ATOM     13  C   UNL     1      33.621 -12.962 -22.437  0.00  0.00    +0.174 C 
BRANCH   9  14
ATOM     14  O   UNL     1      34.536 -14.672 -26.094  0.00  0.00    -0.379 OA
ATOM     15  H   UNL     1      35.082 -15.448 -25.895  0.00  0.00    +0.211 HD
ENDBRANCH   9  14
BRANCH  10  16
ATOM     16  O   UNL     1      32.537 -12.521 -25.996  0.00  0.00    -0.379 OA
ATOM     17  H   UNL     1      31.724 -12.152 -25.616  0.00  0.00    +0.211 HD
ENDBRANCH  10  16
BRANCH  11  18
ATOM     18  O   UNL     1      32.780 -11.001 -23.560  0.00  0.00    -0.379 OA
ATOM     19  H   UNL     1      31.865 -10.696 -23.657  0.00  0.00    +0.211 HD
ENDBRANCH  11  18
BRANCH  13  20
ATOM     20  C   UNL     1      32.953 -12.636 -21.106  0.00  0.00    +0.169 C 
BRANCH  20  21
ATOM     21  O   UNL     1      31.549 -12.647 -21.291  0.00  0.00    -0.379 OA
ATOM     22  H   UNL     1      31.244 -11.753 -21.507  0.00  0.00    +0.211 HD
ENDBRANCH  20  21
ENDBRANCH  13  20
ENDBRANCH   2  12
BRANCH   5  23
ATOM     23  C   UNL     1      36.406 -18.900 -21.545  0.00  0.00    +0.061 C 
BRANCH  23  25
ATOM     24  S   UNL     1      33.973 -19.753 -20.580  0.00  0.00    -0.091 S 
ATOM     25  C   UNL     1      35.660 -19.785 -20.568  0.00  0.00    +0.012 C 
ATOM     26  C   UNL     1      36.194 -20.627 -19.655  0.00  0.00    +0.003 C 
ATOM     27  C   UNL     1      35.180 -21.305 -18.901  0.00  0.00    +0.006 C 
ATOM     28  C   UNL     1      33.900 -20.916 -19.310  0.00  0.00    +0.029 C 
ATOM     29  C   UNL     1      35.289 -22.260 -17.861  0.00  0.00    +0.001 C 
ATOM     30  C   UNL     1      32.742 -21.450 -18.711  0.00  0.00    +0.006 C 
ATOM     31  C   UNL     1      34.141 -22.791 -17.265  0.00  0.00    +0.000 C 
ATOM     32  C   UNL     1      32.882 -22.388 -17.688  0.00  0.00    +0.001 C 
ENDBRANCH  23  25
ENDBRANCH   5  23
TORSDOF 8
ENDMDL
MODEL 7
REMARK VINA RESULT:      -9.7      7.842     12.192
REMARK  Name = 10453870
REMARK  8 active torsions:
REMARK  status: ('A' for Active; 'I' for Inactive)
REMARK    1  A    between atoms: C_2  and  C_12
REMARK    2  A    between atoms: C_5  and  C_23
REMARK    3  A    between atoms: C_9  and  O_14
REMARK    4  A    between atoms: C_10  and  O_16
REMARK    5  A    between atoms: C_11  and  O_18
REMARK    6  A    between atoms: C_13  and  C_20
REMARK    7  A    between atoms: C_20  and  O_21
REMARK    8  A    between atoms: C_23  and  C_25
REMARK                            x       y       z     vdW  Elec       q    Type
REMARK                         _______ _______ _______ _____ _____    ______ ____
ROOT
ATOM      1  F   UNL     1      35.184 -20.132 -23.693  0.00  0.00    -0.204 F 
ATOM      2  C   UNL     1      33.966 -16.189 -23.797  0.00  0.00    +0.007 C 
ATOM      3  C   UNL     1      34.870 -16.609 -22.822  0.00  0.00    -0.004 C 
ATOM      4  C   UNL     1      33.476 -17.096 -24.734  0.00  0.00    +0.000 C 
ATOM      5  C   UNL     1      35.284 -17.941 -22.785  0.00  0.00    +0.010 C 
ATOM      6  C   UNL     1      33.889 -18.428 -24.697  0.00  0.00    +0.029 C 
ATOM      7  C   UNL     1      34.793 -18.850 -23.721  0.00  0.00    +0.136 C 
ENDROOT
BRANCH   2  12
ATOM      8  O   UNL     1      33.805 -14.234 -25.145  0.00  0.00    -0.347 OA
ATOM      9  C   UNL     1      34.207 -13.895 -22.759  0.00  0.00    +0.171 C 
ATOM     10  C   UNL     1      33.861 -12.412 -22.922  0.00  0.00    +0.169 C 
ATOM     11  C   UNL     1      34.051 -11.951 -24.367  0.00  0.00    +0.169 C 
ATOM     12  C   UNL     1      33.517 -14.742 -23.839  0.00  0.00    +0.167 C 
ATOM     13  C   UNL     1      33.339 -12.898 -25.335  0.00  0.00    +0.174 C 
BRANCH   9  14
ATOM     14  O   UNL     1      33.761 -14.337 -21.477  0.00  0.00    -0.379 OA
ATOM     15  H   UNL     1      32.996 -13.809 -21.201  0.00  0.00    +0.211 HD
ENDBRANCH   9  14
BRANCH  10  16
ATOM     16  O   UNL     1      34.723 -11.629 -22.093  0.00  0.00    -0.379 OA
ATOM     17  H   UNL     1      34.230 -10.876 -21.733  0.00  0.00    +0.211 HD
ENDBRANCH  10  16
BRANCH  11  18
ATOM     18  O   UNL     1      33.520 -10.638 -24.516  0.00  0.00    -0.379 OA
ATOM     19  H   UNL     1      34.061 -10.010 -24.012  0.00  0.00    +0.211 HD
ENDBRANCH  11  18
BRANCH  13  20
ATOM     20  C   UNL     1      33.604 -12.522 -26.790  0.00  0.00    +0.169 C 
BRANCH  20  21
ATOM     21  O   UNL     1      34.574 -13.411 -27.315  0.00  0.00    -0.379 OA
ATOM     22  H   UNL     1      35.460 -13.049 -27.164  0.00  0.00    +0.211 HD
ENDBRANCH  20  21
ENDBRANCH  13  20
ENDBRANCH   2  12
BRANCH   5  23
ATOM     23  C   UNL     1      36.250 -18.389 -21.741  0.00  0.00    +0.061 C 
BRANCH  23  25
ATOM     24  S   UNL     1      36.718 -20.253 -19.770  0.00  0.00    -0.091 S 
ATOM     25  C   UNL     1      35.664 -19.387 -20.763  0.00  0.00    +0.012 C 
ATOM     26  C   UNL     1      34.357 -19.681 -20.579  0.00  0.00    +0.003 C 
ATOM     27  C   UNL     1      34.176 -20.678 -19.563  0.00  0.00    +0.006 C 
ATOM     28  C   UNL     1      35.402 -21.085 -19.028  0.00  0.00    +0.029 C 
ATOM     29  C   UNL     1      32.994 -21.272 -19.057  0.00  0.00    +0.001 C 
ATOM     30  C   UNL     1      35.476 -22.060 -18.014  0.00  0.00    +0.006 C 
ATOM     31  C   UNL     1      33.065 -22.239 -18.050  0.00  0.00    +0.000 C 
ATOM     32  C   UNL     1      34.294 -22.627 -17.535  0.00  0.00    +0.001 C 
ENDBRANCH  23  25
ENDBRANCH   5  23
TORSDOF 8
ENDMDL
MODEL 8
REMARK VINA RESULT:      -9.6      6.000     10.082
REMARK  Name = 10453870
REMARK  8 active torsions:
REMARK  status: ('A' for Active; 'I' for Inactive)
REMARK    1  A    between atoms: C_2  and  C_12
REMARK    2  A    between atoms: C_5  and  C_23
REMARK    3  A    between atoms: C_9  and  O_14
REMARK    4  A    between atoms: C_10  and  O_16
REMARK    5  A    between atoms: C_11  and  O_18
REMARK    6  A    between atoms: C_13  and  C_20
REMARK    7  A    between atoms: C_20  and  O_21
REMARK    8  A    between atoms: C_23  and  C_25
REMARK                            x       y       z     vdW  Elec       q    Type
REMARK                         _______ _______ _______ _____ _____    ______ ____
ROOT
ATOM      1  F   UNL     1      36.977 -21.848 -19.115  0.00  0.00    -0.204 F 
ATOM      2  C   UNL     1      35.251 -18.515 -20.834  0.00  0.00    +0.007 C 
ATOM      3  C   UNL     1      34.448 -19.580 -20.429  0.00  0.00    -0.004 C 
ATOM      4  C   UNL     1      36.632 -18.575 -20.660  0.00  0.00    +0.000 C 
ATOM      5  C   UNL     1      35.028 -20.708 -19.847  0.00  0.00    +0.010 C 
ATOM      6  C   UNL     1      37.212 -19.703 -20.078  0.00  0.00    +0.029 C 
ATOM      7  C   UNL     1      36.410 -20.769 -19.672  0.00  0.00    +0.136 C 
ENDROOT
BRANCH   2  12
ATOM      8  O   UNL     1      34.915 -17.323 -22.866  0.00  0.00    -0.347 OA
ATOM      9  C   UNL     1      35.133 -15.989 -20.831  0.00  0.00    +0.171 C 
ATOM     10  C   UNL     1      34.608 -14.766 -21.588  0.00  0.00    +0.169 C 
ATOM     11  C   UNL     1      34.819 -14.912 -23.095  0.00  0.00    +0.169 C 
ATOM     12  C   UNL     1      34.621 -17.290 -21.466  0.00  0.00    +0.167 C 
ATOM     13  C   UNL     1      34.292 -16.260 -23.588  0.00  0.00    +0.174 C 
BRANCH   9  14
ATOM     14  O   UNL     1      34.676 -15.929 -19.480  0.00  0.00    -0.379 OA
ATOM     15  H   UNL     1      35.025 -16.686 -18.986  0.00  0.00    +0.211 HD
ENDBRANCH   9  14
BRANCH  10  16
ATOM     16  O   UNL     1      35.313 -13.600 -21.155  0.00  0.00    -0.379 OA
ATOM     17  H   UNL     1      34.679 -12.940 -20.833  0.00  0.00    +0.211 HD
ENDBRANCH  10  16
BRANCH  11  18
ATOM     18  O   UNL     1      34.132 -13.862 -23.771  0.00  0.00    -0.379 OA
ATOM     19  H   UNL     1      34.011 -14.102 -24.703  0.00  0.00    +0.211 HD
ENDBRANCH  11  18
BRANCH  13  20
ATOM     20  C   UNL     1      34.590 -16.476 -25.069  0.00  0.00    +0.169 C 
BRANCH  20  21
ATOM     21  O   UNL     1      33.663 -15.722 -25.830  0.00  0.00    -0.379 OA
ATOM     22  H   UNL     1      33.467 -16.190 -26.656  0.00  0.00    +0.211 HD
ENDBRANCH  20  21
ENDBRANCH  13  20
ENDBRANCH   2  12
BRANCH   5  23
ATOM     23  C   UNL     1      34.166 -21.846 -19.414  0.00  0.00    +0.061 C 
BRANCH  23  25
ATOM     24  S   UNL     1      33.163 -23.095 -17.176  0.00  0.00    -0.091 S 
ATOM     25  C   UNL     1      34.394 -22.264 -17.976  0.00  0.00    +0.012 C 
ATOM     26  C   UNL     1      35.498 -22.047 -17.226  0.00  0.00    +0.003 C 
ATOM     27  C   UNL     1      35.356 -22.586 -15.904  0.00  0.00    +0.006 C 
ATOM     28  C   UNL     1      34.109 -23.197 -15.737  0.00  0.00    +0.029 C 
ATOM     29  C   UNL     1      36.253 -22.586 -14.808  0.00  0.00    +0.001 C 
ATOM     30  C   UNL     1      33.741 -23.798 -14.518  0.00  0.00    +0.006 C 
ATOM     31  C   UNL     1      35.890 -23.182 -13.598  0.00  0.00    +0.000 C 
ATOM     32  C   UNL     1      34.646 -23.781 -13.456  0.00  0.00    +0.001 C 
ENDBRANCH  23  25
ENDBRANCH   5  23
TORSDOF 8
ENDMDL
MODEL 9
REMARK VINA RESULT:      -9.5      5.593      9.711
REMARK  Name = 10453870
REMARK  8 active torsions:
REMARK  status: ('A' for Active; 'I' for Inactive)
REMARK    1  A    between atoms: C_2  and  C_12
REMARK    2  A    between atoms: C_5  and  C_23
REMARK    3  A    between atoms: C_9  and  O_14
REMARK    4  A    between atoms: C_10  and  O_16
REMARK    5  A    between atoms: C_11  and  O_18
REMARK    6  A    between atoms: C_13  and  C_20
REMARK    7  A    between atoms: C_20  and  O_21
REMARK    8  A    between atoms: C_23  and  C_25
REMARK                            x       y       z     vdW  Elec       q    Type
REMARK                         _______ _______ _______ _____ _____    ______ ____
ROOT
ATOM      1  F   UNL     1      37.050 -22.265 -17.858  0.00  0.00    -0.204 F 
ATOM      2  C   UNL     1      35.262 -19.527 -20.377  0.00  0.00    +0.007 C 
ATOM      3  C   UNL     1      34.626 -20.737 -20.107  0.00  0.00    -0.004 C 
ATOM      4  C   UNL     1      36.497 -19.241 -19.799  0.00  0.00    +0.000 C 
ATOM      5  C   UNL     1      35.227 -21.665 -19.256  0.00  0.00    +0.010 C 
ATOM      6  C   UNL     1      37.099 -20.168 -18.948  0.00  0.00    +0.029 C 
ATOM      7  C   UNL     1      36.464 -21.381 -18.676  0.00  0.00    +0.136 C 
ENDROOT
BRANCH   2  12
ATOM      8  O   UNL     1      34.457 -19.138 -22.583  0.00  0.00    -0.347 OA
ATOM      9  C   UNL     1      35.431 -17.226 -21.415  0.00  0.00    +0.171 C 
ATOM     10  C   UNL     1      34.839 -16.291 -22.473  0.00  0.00    +0.169 C 
ATOM     11  C   UNL     1      34.563 -17.034 -23.780  0.00  0.00    +0.169 C 
ATOM     12  C   UNL     1      34.609 -18.519 -21.301  0.00  0.00    +0.167 C 
ATOM     13  C   UNL     1      33.765 -18.312 -23.519  0.00  0.00    +0.174 C 
BRANCH   9  14
ATOM     14  O   UNL     1      35.416 -16.563 -20.150  0.00  0.00    -0.379 OA
ATOM     15  H   UNL     1      34.555 -16.138 -20.018  0.00  0.00    +0.211 HD
ENDBRANCH   9  14
BRANCH  10  16
ATOM     16  O   UNL     1      35.766 -15.240 -22.750  0.00  0.00    -0.379 OA
ATOM     17  H   UNL     1      35.821 -15.101 -23.708  0.00  0.00    +0.211 HD
ENDBRANCH  10  16
BRANCH  11  18
ATOM     18  O   UNL     1      33.822 -16.187 -24.655  0.00  0.00    -0.379 OA
ATOM     19  H   UNL     1      33.684 -16.639 -25.502  0.00  0.00    +0.211 HD
ENDBRANCH  11  18
BRANCH  13  20
ATOM     20  C   UNL     1      33.571 -19.127 -24.794  0.00  0.00    +0.169 C 
BRANCH  20  21
ATOM     21  O   UNL     1      32.317 -18.789 -25.359  0.00  0.00    -0.379 OA
ATOM     22  H   UNL     1      32.317 -17.852 -25.609  0.00  0.00    +0.211 HD
ENDBRANCH  20  21
ENDBRANCH  13  20
ENDBRANCH   2  12
BRANCH   5  23
ATOM     23  C   UNL     1      34.545 -22.960 -18.968  0.00  0.00    +0.061 C 
BRANCH  23  25
ATOM     24  S   UNL     1      34.581 -23.256 -16.231  0.00  0.00    -0.091 S 
ATOM     25  C   UNL     1      33.758 -22.954 -17.673  0.00  0.00    +0.012 C 
ATOM     26  C   UNL     1      32.434 -22.730 -17.522  0.00  0.00    +0.003 C 
ATOM     27  C   UNL     1      32.037 -22.802 -16.146  0.00  0.00    +0.006 C 
ATOM     28  C   UNL     1      33.128 -23.088 -15.318  0.00  0.00    +0.029 C 
ATOM     29  C   UNL     1      30.766 -22.635 -15.543  0.00  0.00    +0.001 C 
ATOM     30  C   UNL     1      32.982 -23.209 -13.922  0.00  0.00    +0.006 C 
ATOM     31  C   UNL     1      30.619 -22.755 -14.159  0.00  0.00    +0.000 C 
ATOM     32  C   UNL     1      31.716 -23.039 -13.358  0.00  0.00    +0.001 C 
ENDBRANCH  23  25
ENDBRANCH   5  23
TORSDOF 8
ENDMDL
