MODEL 1
REMARK VINA RESULT:     -12.4      0.000      0.000
REMARK  Name = 23725625
REMARK  4 active torsions:
REMARK  status: ('A' for Active; 'I' for Inactive)
REMARK    1  A    between atoms: C_2  and  C_17
REMARK    2  A    between atoms: C_4  and  C_21
REMARK    3  A    between atoms: C_12  and  C_18
REMARK    4  A    between atoms: C_21  and  C_25
REMARK                            x       y       z     vdW  Elec       q    Type
REMARK                         _______ _______ _______ _____ _____    ______ ____
ROOT
ATOM      1  F   UNL     1      37.374 -18.158 -21.944  0.00  0.00    -0.204 F 
ATOM      2  C   UNL     1      35.454 -19.529 -21.674  0.00  0.00    +0.081 C 
ATOM      3  C   UNL     1      34.728 -20.437 -20.908  0.00  0.00    +0.003 C 
ATOM      4  C   UNL     1      35.220 -20.849 -19.670  0.00  0.00    -0.016 C 
ATOM      5  C   UNL     1      36.669 -19.030 -21.211  0.00  0.00    +0.144 C 
ATOM      6  C   UNL     1      36.437 -20.353 -19.202  0.00  0.00    -0.002 C 
ATOM      7  C   UNL     1      37.161 -19.444 -19.972  0.00  0.00    +0.029 C 
ENDROOT
BRANCH   2  17
ATOM      8  O   UNL     1      33.799 -13.309 -25.070  0.00  0.00    -0.275 OA
ATOM      9  O   UNL     1      34.966 -19.931 -23.880  0.00  0.00    -0.270 OA
ATOM     10  N   UNL     1      34.557 -15.026 -23.693  0.00  0.00    -0.276 N 
ATOM     11  N   UNL     1      34.459 -17.788 -23.095  0.00  0.00    -0.273 N 
ATOM     12  C   UNL     1      34.131 -13.722 -23.963  0.00  0.00    +0.225 C 
ATOM     13  C   UNL     1      35.042 -15.503 -22.390  0.00  0.00    +0.115 C 
ATOM     14  C   UNL     1      34.626 -16.009 -24.778  0.00  0.00    +0.115 C 
ATOM     15  C   UNL     1      34.355 -16.810 -22.003  0.00  0.00    +0.115 C 
ATOM     16  C   UNL     1      33.944 -17.314 -24.380  0.00  0.00    +0.115 C 
ATOM     17  C   UNL     1      34.933 -19.096 -22.977  0.00  0.00    +0.251 C 
BRANCH  12  18
ATOM     18  C   UNL     1      34.079 -12.767 -22.814  0.00  0.00    +0.077 C 
ATOM     19  C   UNL     1      32.764 -12.519 -22.160  0.00  0.00    +0.010 C 
ATOM     20  C   UNL     1      33.397 -11.459 -23.013  0.00  0.00    +0.010 C 
ENDBRANCH  12  18
ENDBRANCH   2  17
BRANCH   4  21
ATOM     21  C   UNL     1      34.446 -21.824 -18.847  0.00  0.00    +0.074 C 
BRANCH  21  25
ATOM     22  O   UNL     1      37.286 -23.179 -14.337  0.00  0.00    -0.266 OA
ATOM     23  N   UNL     1      36.466 -22.016 -17.587  0.00  0.00    -0.174 NA
ATOM     24  N   UNL     1      37.156 -22.353 -16.473  0.00  0.00    -0.242 N 
ATOM     25  C   UNL     1      35.184 -22.204 -17.604  0.00  0.00    +0.083 A 
ATOM     26  C   UNL     1      34.432 -22.770 -16.466  0.00  0.00    +0.020 A 
ATOM     27  C   UNL     1      35.161 -23.109 -15.329  0.00  0.00    +0.059 A 
ATOM     28  C   UNL     1      33.049 -22.969 -16.492  0.00  0.00    +0.001 C 
ATOM     29  C   UNL     1      36.616 -22.890 -15.324  0.00  0.00    +0.273 A 
ATOM     30  C   UNL     1      34.518 -23.650 -14.211  0.00  0.00    +0.005 C 
ATOM     31  C   UNL     1      32.405 -23.510 -15.376  0.00  0.00    +0.000 C 
ATOM     32  C   UNL     1      33.138 -23.848 -14.239  0.00  0.00    +0.000 C 
ATOM     33  H   UNL     1      38.128 -22.201 -16.484  0.00  0.00    +0.192 HD
ENDBRANCH  21  25
ENDBRANCH   4  21
TORSDOF 4
ENDMDL
MODEL 2
REMARK VINA RESULT:     -12.3      5.233     10.695
REMARK  Name = 23725625
REMARK  4 active torsions:
REMARK  status: ('A' for Active; 'I' for Inactive)
REMARK    1  A    between atoms: C_2  and  C_17
REMARK    2  A    between atoms: C_4  and  C_21
REMARK    3  A    between atoms: C_12  and  C_18
REMARK    4  A    between atoms: C_21  and  C_25
REMARK                            x       y       z     vdW  Elec       q    Type
REMARK                         _______ _______ _______ _____ _____    ______ ____
ROOT
ATOM      1  F   UNL     1      30.824 -25.234 -12.473  0.00  0.00    -0.204 F 
ATOM      2  C   UNL     1      32.027 -23.615 -13.727  0.00  0.00    +0.081 C 
ATOM      3  C   UNL     1      32.214 -22.918 -14.918  0.00  0.00    +0.003 C 
ATOM      4  C   UNL     1      31.377 -23.166 -16.005  0.00  0.00    -0.016 C 
ATOM      5  C   UNL     1      31.009 -24.558 -13.616  0.00  0.00    +0.144 C 
ATOM      6  C   UNL     1      30.356 -24.111 -15.899  0.00  0.00    -0.002 C 
ATOM      7  C   UNL     1      30.172 -24.806 -14.704  0.00  0.00    +0.029 C 
ENDROOT
BRANCH   2  17
ATOM      8  O   UNL     1      39.097 -24.150 -12.085  0.00  0.00    -0.275 OA
ATOM      9  O   UNL     1      32.449 -22.639 -11.693  0.00  0.00    -0.270 OA
ATOM     10  N   UNL     1      36.979 -24.020 -13.045  0.00  0.00    -0.276 N 
ATOM     11  N   UNL     1      34.189 -23.910 -12.597  0.00  0.00    -0.273 N 
ATOM     12  C   UNL     1      38.307 -24.451 -12.976  0.00  0.00    +0.225 C 
ATOM     13  C   UNL     1      36.056 -24.303 -14.153  0.00  0.00    +0.115 C 
ATOM     14  C   UNL     1      36.443 -23.143 -12.000  0.00  0.00    +0.115 C 
ATOM     15  C   UNL     1      34.719 -24.818 -13.625  0.00  0.00    +0.115 C 
ATOM     16  C   UNL     1      35.104 -23.661 -11.483  0.00  0.00    +0.115 C 
ATOM     17  C   UNL     1      32.910 -23.352 -12.584  0.00  0.00    +0.251 C 
BRANCH  12  18
ATOM     18  C   UNL     1      38.794 -25.346 -14.070  0.00  0.00    +0.077 C 
ATOM     19  C   UNL     1      40.017 -26.160 -13.827  0.00  0.00    +0.010 C 
ATOM     20  C   UNL     1      40.062 -24.989 -14.764  0.00  0.00    +0.010 C 
ENDBRANCH  12  18
ENDBRANCH   2  17
BRANCH   4  21
ATOM     21  C   UNL     1      31.576 -22.424 -17.284  0.00  0.00    +0.074 C 
BRANCH  21  25
ATOM     22  O   UNL     1      36.944 -21.790 -18.292  0.00  0.00    -0.266 OA
ATOM     23  N   UNL     1      33.884 -22.833 -16.830  0.00  0.00    -0.174 NA
ATOM     24  N   UNL     1      35.203 -22.670 -17.086  0.00  0.00    -0.242 N 
ATOM     25  C   UNL     1      33.026 -22.228 -17.589  0.00  0.00    +0.083 A 
ATOM     26  C   UNL     1      33.412 -21.365 -18.724  0.00  0.00    +0.020 A 
ATOM     27  C   UNL     1      34.773 -21.213 -18.971  0.00  0.00    +0.059 A 
ATOM     28  C   UNL     1      32.479 -20.717 -19.538  0.00  0.00    +0.001 C 
ATOM     29  C   UNL     1      35.737 -21.905 -18.100  0.00  0.00    +0.273 A 
ATOM     30  C   UNL     1      35.216 -20.412 -20.028  0.00  0.00    +0.005 C 
ATOM     31  C   UNL     1      32.919 -19.917 -20.595  0.00  0.00    +0.000 C 
ATOM     32  C   UNL     1      34.284 -19.766 -20.839  0.00  0.00    +0.000 C 
ATOM     33  H   UNL     1      35.836 -23.139 -16.496  0.00  0.00    +0.192 HD
ENDBRANCH  21  25
ENDBRANCH   4  21
TORSDOF 4
ENDMDL
MODEL 3
REMARK VINA RESULT:     -12.3      4.209      9.600
REMARK  Name = 23725625
REMARK  4 active torsions:
REMARK  status: ('A' for Active; 'I' for Inactive)
REMARK    1  A    between atoms: C_2  and  C_17
REMARK    2  A    between atoms: C_4  and  C_21
REMARK    3  A    between atoms: C_12  and  C_18
REMARK    4  A    between atoms: C_21  and  C_25
REMARK                            x       y       z     vdW  Elec       q    Type
REMARK                         _______ _______ _______ _____ _____    ______ ____
ROOT
ATOM      1  F   UNL     1      36.036 -22.782 -12.548  0.00  0.00    -0.204 F 
ATOM      2  C   UNL     1      35.373 -23.451 -14.728  0.00  0.00    +0.081 C 
ATOM      3  C   UNL     1      35.489 -23.320 -16.109  0.00  0.00    +0.003 C 
ATOM      4  C   UNL     1      36.382 -22.393 -16.645  0.00  0.00    -0.016 C 
ATOM      5  C   UNL     1      36.144 -22.663 -13.878  0.00  0.00    +0.144 C 
ATOM      6  C   UNL     1      37.156 -21.599 -15.798  0.00  0.00    -0.002 C 
ATOM      7  C   UNL     1      37.037 -21.734 -14.415  0.00  0.00    +0.029 C 
ENDROOT
BRANCH   2  17
ATOM      8  O   UNL     1      28.201 -24.689 -14.696  0.00  0.00    -0.275 OA
ATOM      9  O   UNL     1      34.919 -25.483 -13.761  0.00  0.00    -0.270 OA
ATOM     10  N   UNL     1      30.400 -24.015 -15.059  0.00  0.00    -0.276 N 
ATOM     11  N   UNL     1      33.075 -24.099 -14.146  0.00  0.00    -0.273 N 
ATOM     12  C   UNL     1      29.013 -23.841 -15.056  0.00  0.00    +0.225 C 
ATOM     13  C   UNL     1      31.372 -23.040 -15.573  0.00  0.00    +0.115 C 
ATOM     14  C   UNL     1      30.976 -25.285 -14.608  0.00  0.00    +0.115 C 
ATOM     15  C   UNL     1      32.497 -22.815 -14.564  0.00  0.00    +0.115 C 
ATOM     16  C   UNL     1      32.103 -25.051 -13.607  0.00  0.00    +0.115 C 
ATOM     17  C   UNL     1      34.432 -24.429 -14.166  0.00  0.00    +0.251 C 
BRANCH  12  18
ATOM     18  C   UNL     1      28.488 -22.522 -15.525  0.00  0.00    +0.077 C 
ATOM     19  C   UNL     1      27.038 -22.232 -15.341  0.00  0.00    +0.010 C 
ATOM     20  C   UNL     1      27.588 -22.502 -16.711  0.00  0.00    +0.010 C 
ENDBRANCH  12  18
ENDBRANCH   2  17
BRANCH   4  21
ATOM     21  C   UNL     1      36.507 -22.246 -18.124  0.00  0.00    +0.074 C 
BRANCH  21  25
ATOM     22  O   UNL     1      31.884 -20.183 -20.271  0.00  0.00    -0.266 OA
ATOM     23  N   UNL     1      34.137 -22.195 -18.408  0.00  0.00    -0.174 NA
ATOM     24  N   UNL     1      33.005 -21.680 -18.942  0.00  0.00    -0.242 N 
ATOM     25  C   UNL     1      35.273 -21.659 -18.727  0.00  0.00    +0.083 A 
ATOM     26  C   UNL     1      35.398 -20.510 -19.647  0.00  0.00    +0.020 A 
ATOM     27  C   UNL     1      34.221 -19.995 -20.184  0.00  0.00    +0.059 A 
ATOM     28  C   UNL     1      36.627 -19.937 -19.985  0.00  0.00    +0.001 C 
ATOM     29  C   UNL     1      32.938 -20.614 -19.813  0.00  0.00    +0.273 A 
ATOM     30  C   UNL     1      34.260 -18.908 -21.062  0.00  0.00    +0.005 C 
ATOM     31  C   UNL     1      36.668 -18.851 -20.862  0.00  0.00    +0.000 C 
ATOM     32  C   UNL     1      35.487 -18.338 -21.399  0.00  0.00    +0.000 C 
ATOM     33  H   UNL     1      32.155 -22.104 -18.685  0.00  0.00    +0.192 HD
ENDBRANCH  21  25
ENDBRANCH   4  21
TORSDOF 4
ENDMDL
MODEL 4
REMARK VINA RESULT:     -12.2      5.351     13.542
REMARK  Name = 23725625
REMARK  4 active torsions:
REMARK  status: ('A' for Active; 'I' for Inactive)
REMARK    1  A    between atoms: C_2  and  C_17
REMARK    2  A    between atoms: C_4  and  C_21
REMARK    3  A    between atoms: C_12  and  C_18
REMARK    4  A    between atoms: C_21  and  C_25
REMARK                            x       y       z     vdW  Elec       q    Type
REMARK                         _______ _______ _______ _____ _____    ______ ____
ROOT
ATOM      1  F   UNL     1      31.411 -12.284 -21.490  0.00  0.00    -0.204 F 
ATOM      2  C   UNL     1      32.715 -10.477 -22.313  0.00  0.00    +0.081 C 
ATOM      3  C   UNL     1      33.182  -9.173 -22.170  0.00  0.00    +0.003 C 
ATOM      4  C   UNL     1      32.799  -8.417 -21.063  0.00  0.00    -0.016 C 
ATOM      5  C   UNL     1      31.867 -11.030 -21.358  0.00  0.00    +0.144 C 
ATOM      6  C   UNL     1      31.948  -8.966 -20.103  0.00  0.00    -0.002 C 
ATOM      7  C   UNL     1      31.483 -10.273 -20.250  0.00  0.00    +0.029 C 
ENDROOT
BRANCH   2  17
ATOM      8  O   UNL     1      35.232 -17.157 -23.731  0.00  0.00    -0.275 OA
ATOM      9  O   UNL     1      32.763 -10.847 -24.578  0.00  0.00    -0.270 OA
ATOM     10  N   UNL     1      34.313 -15.198 -22.870  0.00  0.00    -0.276 N 
ATOM     11  N   UNL     1      33.860 -12.434 -23.260  0.00  0.00    -0.273 N 
ATOM     12  C   UNL     1      34.982 -16.422 -22.779  0.00  0.00    +0.225 C 
ATOM     13  C   UNL     1      33.931 -14.359 -21.726  0.00  0.00    +0.115 C 
ATOM     14  C   UNL     1      33.858 -14.712 -24.175  0.00  0.00    +0.115 C 
ATOM     15  C   UNL     1      34.348 -12.908 -21.957  0.00  0.00    +0.115 C 
ATOM     16  C   UNL     1      34.273 -13.260 -24.395  0.00  0.00    +0.115 C 
ATOM     17  C   UNL     1      33.121 -11.271 -23.480  0.00  0.00    +0.251 C 
BRANCH  12  18
ATOM     18  C   UNL     1      35.424 -16.862 -21.420  0.00  0.00    +0.077 C 
ATOM     19  C   UNL     1      36.390 -17.991 -21.321  0.00  0.00    +0.010 C 
ATOM     20  C   UNL     1      34.958 -18.184 -20.919  0.00  0.00    +0.010 C 
ENDBRANCH  12  18
ENDBRANCH   2  17
BRANCH   4  21
ATOM     21  C   UNL     1      33.295  -7.019 -20.906  0.00  0.00    +0.074 C 
BRANCH  21  25
ATOM     22  O   UNL     1      30.048  -3.442 -23.534  0.00  0.00    -0.266 OA
ATOM     23  N   UNL     1      31.298  -5.727 -21.125  0.00  0.00    -0.174 NA
ATOM     24  N   UNL     1      30.507  -4.847 -21.779  0.00  0.00    -0.242 N 
ATOM     25  C   UNL     1      32.440  -6.044 -21.649  0.00  0.00    +0.083 A 
ATOM     26  C   UNL     1      32.925  -5.492 -22.930  0.00  0.00    +0.020 A 
ATOM     27  C   UNL     1      32.096  -4.586 -23.586  0.00  0.00    +0.059 A 
ATOM     28  C   UNL     1      34.159  -5.838 -23.488  0.00  0.00    +0.001 C 
ATOM     29  C   UNL     1      30.801  -4.237 -22.979  0.00  0.00    +0.273 A 
ATOM     30  C   UNL     1      32.488  -4.021 -24.803  0.00  0.00    +0.005 C 
ATOM     31  C   UNL     1      34.552  -5.273 -24.704  0.00  0.00    +0.000 C 
ATOM     32  C   UNL     1      33.719  -4.367 -25.359  0.00  0.00    +0.000 C 
ATOM     33  H   UNL     1      29.644  -4.622 -21.361  0.00  0.00    +0.192 HD
ENDBRANCH  21  25
ENDBRANCH   4  21
TORSDOF 4
ENDMDL
MODEL 5
REMARK VINA RESULT:     -12.1      1.366      1.669
REMARK  Name = 23725625
REMARK  4 active torsions:
REMARK  status: ('A' for Active; 'I' for Inactive)
REMARK    1  A    between atoms: C_2  and  C_17
REMARK    2  A    between atoms: C_4  and  C_21
REMARK    3  A    between atoms: C_12  and  C_18
REMARK    4  A    between atoms: C_21  and  C_25
REMARK                            x       y       z     vdW  Elec       q    Type
REMARK                         _______ _______ _______ _____ _____    ______ ____
ROOT
ATOM      1  F   UNL     1      37.656 -18.942 -20.703  0.00  0.00    -0.204 F 
ATOM      2  C   UNL     1      35.517 -19.963 -20.853  0.00  0.00    +0.081 C 
ATOM      3  C   UNL     1      34.557 -20.819 -20.319  0.00  0.00    +0.003 C 
ATOM      4  C   UNL     1      34.810 -21.481 -19.118  0.00  0.00    -0.016 C 
ATOM      5  C   UNL     1      36.726 -19.763 -20.194  0.00  0.00    +0.144 C 
ATOM      6  C   UNL     1      36.022 -21.285 -18.454  0.00  0.00    -0.002 C 
ATOM      7  C   UNL     1      36.979 -20.426 -18.992  0.00  0.00    +0.029 C 
ENDROOT
BRANCH   2  17
ATOM      8  O   UNL     1      34.058 -13.208 -23.136  0.00  0.00    -0.275 OA
ATOM      9  O   UNL     1      35.548 -19.872 -23.146  0.00  0.00    -0.270 OA
ATOM     10  N   UNL     1      34.660 -15.161 -22.019  0.00  0.00    -0.276 N 
ATOM     11  N   UNL     1      34.691 -17.988 -22.060  0.00  0.00    -0.273 N 
ATOM     12  C   UNL     1      34.184 -13.849 -22.096  0.00  0.00    +0.225 C 
ATOM     13  C   UNL     1      34.899 -15.900 -20.772  0.00  0.00    +0.115 C 
ATOM     14  C   UNL     1      35.049 -15.867 -23.243  0.00  0.00    +0.115 C 
ATOM     15  C   UNL     1      34.268 -17.290 -20.838  0.00  0.00    +0.115 C 
ATOM     16  C   UNL     1      34.420 -17.256 -23.298  0.00  0.00    +0.115 C 
ATOM     17  C   UNL     1      35.247 -19.267 -22.117  0.00  0.00    +0.251 C 
BRANCH  12  18
ATOM     18  C   UNL     1      33.801 -13.183 -20.813  0.00  0.00    +0.077 C 
ATOM     19  C   UNL     1      32.514 -13.572 -20.171  0.00  0.00    +0.010 C 
ATOM     20  C   UNL     1      32.658 -12.230 -20.826  0.00  0.00    +0.010 C 
ENDBRANCH  12  18
ENDBRANCH   2  17
BRANCH   4  21
ATOM     21  C   UNL     1      33.786 -22.402 -18.543  0.00  0.00    +0.074 C 
BRANCH  21  25
ATOM     22  O   UNL     1      34.993 -23.588 -13.311  0.00  0.00    -0.266 OA
ATOM     23  N   UNL     1      35.318 -22.833 -16.763  0.00  0.00    -0.174 NA
ATOM     24  N   UNL     1      35.605 -23.126 -15.473  0.00  0.00    -0.242 N 
ATOM     25  C   UNL     1      34.075 -22.725 -17.113  0.00  0.00    +0.083 A 
ATOM     26  C   UNL     1      32.949 -22.905 -16.175  0.00  0.00    +0.020 A 
ATOM     27  C   UNL     1      33.266 -23.204 -14.852  0.00  0.00    +0.059 A 
ATOM     28  C   UNL     1      31.611 -22.786 -16.560  0.00  0.00    +0.001 C 
ATOM     29  C   UNL     1      34.682 -23.325 -14.469  0.00  0.00    +0.273 A 
ATOM     30  C   UNL     1      32.254 -23.388 -13.906  0.00  0.00    +0.005 C 
ATOM     31  C   UNL     1      30.599 -22.969 -15.616  0.00  0.00    +0.000 C 
ATOM     32  C   UNL     1      30.919 -23.269 -14.293  0.00  0.00    +0.000 C 
ATOM     33  H   UNL     1      36.556 -23.203 -15.231  0.00  0.00    +0.192 HD
ENDBRANCH  21  25
ENDBRANCH   4  21
TORSDOF 4
ENDMDL
MODEL 6
REMARK VINA RESULT:     -11.9      2.236      9.771
REMARK  Name = 23725625
REMARK  4 active torsions:
REMARK  status: ('A' for Active; 'I' for Inactive)
REMARK    1  A    between atoms: C_2  and  C_17
REMARK    2  A    between atoms: C_4  and  C_21
REMARK    3  A    between atoms: C_12  and  C_18
REMARK    4  A    between atoms: C_21  and  C_25
REMARK                            x       y       z     vdW  Elec       q    Type
REMARK                         _______ _______ _______ _____ _____    ______ ____
ROOT
ATOM      1  F   UNL     1      34.945 -20.125 -23.174  0.00  0.00    -0.204 F 
ATOM      2  C   UNL     1      35.686 -17.956 -22.554  0.00  0.00    +0.081 C 
ATOM      3  C   UNL     1      35.634 -16.576 -22.729  0.00  0.00    +0.003 C 
ATOM      4  C   UNL     1      34.787 -16.031 -23.694  0.00  0.00    -0.016 C 
ATOM      5  C   UNL     1      34.899 -18.795 -23.336  0.00  0.00    +0.144 C 
ATOM      6  C   UNL     1      33.996 -16.868 -24.481  0.00  0.00    -0.002 C 
ATOM      7  C   UNL     1      34.051 -18.250 -24.302  0.00  0.00    +0.029 C 
ENDROOT
BRANCH   2  17
ATOM      8  O   UNL     1      35.364 -22.829 -17.158  0.00  0.00    -0.275 OA
ATOM      9  O   UNL     1      37.785 -18.354 -21.713  0.00  0.00    -0.270 OA
ATOM     10  N   UNL     1      35.075 -21.464 -19.022  0.00  0.00    -0.276 N 
ATOM     11  N   UNL     1      36.004 -19.221 -20.471  0.00  0.00    -0.273 N 
ATOM     12  C   UNL     1      34.631 -22.250 -17.955  0.00  0.00    +0.225 C 
ATOM     13  C   UNL     1      34.206 -20.843 -20.031  0.00  0.00    +0.115 C 
ATOM     14  C   UNL     1      36.512 -21.288 -19.249  0.00  0.00    +0.115 C 
ATOM     15  C   UNL     1      34.564 -19.371 -20.221  0.00  0.00    +0.115 C 
ATOM     16  C   UNL     1      36.860 -19.816 -19.444  0.00  0.00    +0.115 C 
ATOM     17  C   UNL     1      36.579 -18.526 -21.537  0.00  0.00    +0.251 C 
BRANCH  12  18
ATOM     18  C   UNL     1      33.153 -22.388 -17.774  0.00  0.00    +0.077 C 
ATOM     19  C   UNL     1      32.612 -22.450 -16.388  0.00  0.00    +0.010 C 
ATOM     20  C   UNL     1      32.623 -23.677 -17.251  0.00  0.00    +0.010 C 
ENDBRANCH  12  18
ENDBRANCH   2  17
BRANCH   4  21
ATOM     21  C   UNL     1      34.729 -14.552 -23.887  0.00  0.00    +0.074 C 
BRANCH  21  25
ATOM     22  O   UNL     1      31.961 -12.208 -19.755  0.00  0.00    -0.266 OA
ATOM     23  N   UNL     1      33.686 -14.590 -21.739  0.00  0.00    -0.174 NA
ATOM     24  N   UNL     1      33.005 -14.003 -20.728  0.00  0.00    -0.242 N 
ATOM     25  C   UNL     1      33.976 -13.881 -22.784  0.00  0.00    +0.083 A 
ATOM     26  C   UNL     1      33.600 -12.461 -22.932  0.00  0.00    +0.020 A 
ATOM     27  C   UNL     1      32.900 -11.877 -21.879  0.00  0.00    +0.059 A 
ATOM     28  C   UNL     1      33.917 -11.703 -24.062  0.00  0.00    +0.001 C 
ATOM     29  C   UNL     1      32.577 -12.694 -20.698  0.00  0.00    +0.273 A 
ATOM     30  C   UNL     1      32.510 -10.536 -21.946  0.00  0.00    +0.005 C 
ATOM     31  C   UNL     1      33.528 -10.363 -24.131  0.00  0.00    +0.000 C 
ATOM     32  C   UNL     1      32.827  -9.782 -23.075  0.00  0.00    +0.000 C 
ATOM     33  H   UNL     1      32.796 -14.562 -19.944  0.00  0.00    +0.192 HD
ENDBRANCH  21  25
ENDBRANCH   4  21
TORSDOF 4
ENDMDL
MODEL 7
REMARK VINA RESULT:     -11.5      4.572     12.962
REMARK  Name = 23725625
REMARK  4 active torsions:
REMARK  status: ('A' for Active; 'I' for Inactive)
REMARK    1  A    between atoms: C_2  and  C_17
REMARK    2  A    between atoms: C_4  and  C_21
REMARK    3  A    between atoms: C_12  and  C_18
REMARK    4  A    between atoms: C_21  and  C_25
REMARK                            x       y       z     vdW  Elec       q    Type
REMARK                         _______ _______ _______ _____ _____    ______ ____
ROOT
ATOM      1  F   UNL     1      31.916 -13.619 -21.956  0.00  0.00    -0.204 F 
ATOM      2  C   UNL     1      33.105 -12.198 -23.441  0.00  0.00    +0.081 C 
ATOM      3  C   UNL     1      33.601 -10.935 -23.752  0.00  0.00    +0.003 C 
ATOM      4  C   UNL     1      33.390  -9.872 -22.874  0.00  0.00    -0.016 C 
ATOM      5  C   UNL     1      32.399 -12.406 -22.260  0.00  0.00    +0.144 C 
ATOM      6  C   UNL     1      32.682 -10.075 -21.689  0.00  0.00    -0.002 C 
ATOM      7  C   UNL     1      32.187 -11.342 -21.382  0.00  0.00    +0.029 C 
ENDROOT
BRANCH   2  17
ATOM      8  O   UNL     1      35.568 -19.042 -23.203  0.00  0.00    -0.275 OA
ATOM      9  O   UNL     1      32.771 -13.237 -25.461  0.00  0.00    -0.270 OA
ATOM     10  N   UNL     1      34.745 -16.897 -22.823  0.00  0.00    -0.276 N 
ATOM     11  N   UNL     1      34.135 -14.372 -23.941  0.00  0.00    -0.273 N 
ATOM     12  C   UNL     1      35.462 -18.050 -22.488  0.00  0.00    +0.225 C 
ATOM     13  C   UNL     1      34.539 -15.744 -21.937  0.00  0.00    +0.115 C 
ATOM     14  C   UNL     1      34.053 -16.819 -24.113  0.00  0.00    +0.115 C 
ATOM     15  C   UNL     1      34.859 -14.439 -22.664  0.00  0.00    +0.115 C 
ATOM     16  C   UNL     1      34.373 -15.511 -24.829  0.00  0.00    +0.115 C 
ATOM     17  C   UNL     1      33.329 -13.315 -24.367  0.00  0.00    +0.251 C 
BRANCH  12  18
ATOM     18  C   UNL     1      36.148 -18.067 -21.160  0.00  0.00    +0.077 C 
ATOM     19  C   UNL     1      37.444 -18.792 -21.042  0.00  0.00    +0.010 C 
ATOM     20  C   UNL     1      36.203 -19.351 -20.409  0.00  0.00    +0.010 C 
ENDBRANCH  12  18
ENDBRANCH   2  17
BRANCH   4  21
ATOM     21  C   UNL     1      33.918  -8.516 -23.204  0.00  0.00    +0.074 C 
BRANCH  21  25
ATOM     22  O   UNL     1      30.095  -4.692 -22.207  0.00  0.00    -0.266 OA
ATOM     23  N   UNL     1      31.925  -7.731 -22.149  0.00  0.00    -0.174 NA
ATOM     24  N   UNL     1      30.989  -6.784 -21.911  0.00  0.00    -0.242 N 
ATOM     25  C   UNL     1      32.899  -7.452 -22.957  0.00  0.00    +0.083 A 
ATOM     26  C   UNL     1      33.041  -6.148 -23.636  0.00  0.00    +0.020 A 
ATOM     27  C   UNL     1      32.068  -5.187 -23.376  0.00  0.00    +0.059 A 
ATOM     28  C   UNL     1      34.095  -5.855 -24.506  0.00  0.00    +0.001 C 
ATOM     29  C   UNL     1      30.968  -5.518 -22.456  0.00  0.00    +0.273 A 
ATOM     30  C   UNL     1      32.136  -3.929 -23.981  0.00  0.00    +0.005 C 
ATOM     31  C   UNL     1      34.164  -4.598 -25.112  0.00  0.00    +0.000 C 
ATOM     32  C   UNL     1      33.188  -3.638 -24.849  0.00  0.00    +0.000 C 
ATOM     33  H   UNL     1      30.260  -7.019 -21.293  0.00  0.00    +0.192 HD
ENDBRANCH  21  25
ENDBRANCH   4  21
TORSDOF 4
ENDMDL
MODEL 8
REMARK VINA RESULT:     -11.3      6.271     10.388
REMARK  Name = 23725625
REMARK  4 active torsions:
REMARK  status: ('A' for Active; 'I' for Inactive)
REMARK    1  A    between atoms: C_2  and  C_17
REMARK    2  A    between atoms: C_4  and  C_21
REMARK    3  A    between atoms: C_12  and  C_18
REMARK    4  A    between atoms: C_21  and  C_25
REMARK                            x       y       z     vdW  Elec       q    Type
REMARK                         _______ _______ _______ _____ _____    ______ ____
ROOT
ATOM      1  F   UNL     1      30.337  -9.656 -19.196  0.00  0.00    -0.204 F 
ATOM      2  C   UNL     1      32.266  -9.671 -20.582  0.00  0.00    +0.081 C 
ATOM      3  C   UNL     1      33.090 -10.342 -21.482  0.00  0.00    +0.003 C 
ATOM      4  C   UNL     1      32.781 -11.646 -21.866  0.00  0.00    -0.016 C 
ATOM      5  C   UNL     1      31.134 -10.295 -20.064  0.00  0.00    +0.144 C 
ATOM      6  C   UNL     1      31.648 -12.276 -21.349  0.00  0.00    -0.002 C 
ATOM      7  C   UNL     1      30.825 -11.601 -20.449  0.00  0.00    +0.029 C 
ENDROOT
BRANCH   2  17
ATOM      8  O   UNL     1      32.362  -3.019 -23.532  0.00  0.00    -0.275 OA
ATOM      9  O   UNL     1      32.672  -8.090 -18.969  0.00  0.00    -0.270 OA
ATOM     10  N   UNL     1      32.073  -5.255 -22.952  0.00  0.00    -0.276 N 
ATOM     11  N   UNL     1      32.779  -7.344 -21.182  0.00  0.00    -0.273 N 
ATOM     12  C   UNL     1      32.200  -4.194 -23.852  0.00  0.00    +0.225 C 
ATOM     13  C   UNL     1      31.787  -6.648 -23.324  0.00  0.00    +0.115 C 
ATOM     14  C   UNL     1      32.132  -4.999 -21.510  0.00  0.00    +0.115 C 
ATOM     15  C   UNL     1      32.755  -7.603 -22.628  0.00  0.00    +0.115 C 
ATOM     16  C   UNL     1      33.095  -5.962 -20.821  0.00  0.00    +0.115 C 
ATOM     17  C   UNL     1      32.594  -8.298 -20.179  0.00  0.00    +0.251 C 
BRANCH  12  18
ATOM     18  C   UNL     1      32.134  -4.520 -25.309  0.00  0.00    +0.077 C 
ATOM     19  C   UNL     1      33.409  -4.604 -26.075  0.00  0.00    +0.010 C 
ATOM     20  C   UNL     1      32.473  -3.451 -26.289  0.00  0.00    +0.010 C 
ENDBRANCH  12  18
ENDBRANCH   2  17
BRANCH   4  21
ATOM     21  C   UNL     1      33.662 -12.370 -22.828  0.00  0.00    +0.074 C 
BRANCH  21  25
ATOM     22  O   UNL     1      35.515 -17.044 -20.602  0.00  0.00    -0.266 OA
ATOM     23  N   UNL     1      34.533 -13.660 -21.017  0.00  0.00    -0.174 NA
ATOM     24  N   UNL     1      34.988 -14.815 -20.479  0.00  0.00    -0.242 N 
ATOM     25  C   UNL     1      34.160 -13.658 -22.258  0.00  0.00    +0.083 A 
ATOM     26  C   UNL     1      34.205 -14.857 -23.120  0.00  0.00    +0.020 A 
ATOM     27  C   UNL     1      34.674 -16.035 -22.546  0.00  0.00    +0.059 A 
ATOM     28  C   UNL     1      33.799 -14.847 -24.457  0.00  0.00    +0.001 C 
ATOM     29  C   UNL     1      35.096 -16.021 -21.136  0.00  0.00    +0.273 A 
ATOM     30  C   UNL     1      34.745 -17.210 -23.300  0.00  0.00    +0.005 C 
ATOM     31  C   UNL     1      33.869 -16.020 -25.212  0.00  0.00    +0.000 C 
ATOM     32  C   UNL     1      34.340 -17.199 -24.634  0.00  0.00    +0.000 C 
ATOM     33  H   UNL     1      35.266 -14.791 -19.535  0.00  0.00    +0.192 HD
ENDBRANCH  21  25
ENDBRANCH   4  21
TORSDOF 4
ENDMDL
MODEL 9
REMARK VINA RESULT:     -11.3      5.396     13.690
REMARK  Name = 23725625
REMARK  4 active torsions:
REMARK  status: ('A' for Active; 'I' for Inactive)
REMARK    1  A    between atoms: C_2  and  C_17
REMARK    2  A    between atoms: C_4  and  C_21
REMARK    3  A    between atoms: C_12  and  C_18
REMARK    4  A    between atoms: C_21  and  C_25
REMARK                            x       y       z     vdW  Elec       q    Type
REMARK                         _______ _______ _______ _____ _____    ______ ____
ROOT
ATOM      1  F   UNL     1      31.563 -11.844 -21.952  0.00  0.00    -0.204 F 
ATOM      2  C   UNL     1      33.058 -10.363 -23.053  0.00  0.00    +0.081 C 
ATOM      3  C   UNL     1      33.717  -9.137 -23.094  0.00  0.00    +0.003 C 
ATOM      4  C   UNL     1      33.519  -8.209 -22.072  0.00  0.00    -0.016 C 
ATOM      5  C   UNL     1      32.202 -10.667 -21.998  0.00  0.00    +0.144 C 
ATOM      6  C   UNL     1      32.662  -8.508 -21.013  0.00  0.00    -0.002 C 
ATOM      7  C   UNL     1      32.004  -9.737 -20.975  0.00  0.00    +0.029 C 
ENDROOT
BRANCH   2  17
ATOM      8  O   UNL     1      34.890 -17.371 -23.755  0.00  0.00    -0.275 OA
ATOM      9  O   UNL     1      32.821 -11.034 -25.235  0.00  0.00    -0.270 OA
ATOM     10  N   UNL     1      34.224 -15.241 -23.092  0.00  0.00    -0.276 N 
ATOM     11  N   UNL     1      33.938 -12.524 -23.823  0.00  0.00    -0.273 N 
ATOM     12  C   UNL     1      34.805 -16.497 -22.897  0.00  0.00    +0.225 C 
ATOM     13  C   UNL     1      34.038 -14.225 -22.046  0.00  0.00    +0.115 C 
ATOM     14  C   UNL     1      33.662 -14.893 -24.400  0.00  0.00    +0.115 C 
ATOM     15  C   UNL     1      34.534 -12.862 -22.522  0.00  0.00    +0.115 C 
ATOM     16  C   UNL     1      34.157 -13.527 -24.865  0.00  0.00    +0.115 C 
ATOM     17  C   UNL     1      33.268 -11.338 -24.130  0.00  0.00    +0.251 C 
BRANCH  12  18
ATOM     18  C   UNL     1      35.364 -16.789 -21.541  0.00  0.00    +0.077 C 
ATOM     19  C   UNL     1      36.367 -17.883 -21.410  0.00  0.00    +0.010 C 
ATOM     20  C   UNL     1      34.976 -18.064 -20.877  0.00  0.00    +0.010 C 
ENDBRANCH  12  18
ENDBRANCH   2  17
BRANCH   4  21
ATOM     21  C   UNL     1      34.221  -6.893 -22.113  0.00  0.00    +0.074 C 
BRANCH  21  25
ATOM     22  O   UNL     1      32.185  -3.645 -26.055  0.00  0.00    -0.266 OA
ATOM     23  N   UNL     1      34.070  -6.136 -24.373  0.00  0.00    -0.174 NA
ATOM     24  N   UNL     1      33.563  -5.332 -25.336  0.00  0.00    -0.242 N 
ATOM     25  C   UNL     1      33.645  -5.993 -23.158  0.00  0.00    +0.083 A 
ATOM     26  C   UNL     1      32.632  -4.992 -22.765  0.00  0.00    +0.020 A 
ATOM     27  C   UNL     1      32.122  -4.176 -23.771  0.00  0.00    +0.059 A 
ATOM     28  C   UNL     1      32.179  -4.844 -21.451  0.00  0.00    +0.001 C 
ATOM     29  C   UNL     1      32.615  -4.350 -25.147  0.00  0.00    +0.273 A 
ATOM     30  C   UNL     1      31.160  -3.206 -23.475  0.00  0.00    +0.005 C 
ATOM     31  C   UNL     1      31.217  -3.876 -21.155  0.00  0.00    +0.000 C 
ATOM     32  C   UNL     1      30.709  -3.059 -22.165  0.00  0.00    +0.000 C 
ATOM     33  H   UNL     1      33.901  -5.460 -26.251  0.00  0.00    +0.192 HD
ENDBRANCH  21  25
ENDBRANCH   4  21
TORSDOF 4
ENDMDL
