MODEL 1
REMARK VINA RESULT:     -12.4      0.000      0.000
REMARK  Name = 657077
REMARK  7 active torsions:
REMARK  status: ('A' for Active; 'I' for Inactive)
REMARK    1  A    between atoms: C_3  and  C_23
REMARK    2  A    between atoms: C_8  and  C_10
REMARK    3  A    between atoms: C_12  and  C_15
REMARK    4  A    between atoms: C_15  and  C_16
REMARK    5  A    between atoms: C_16  and  C_17
REMARK    6  A    between atoms: C_26  and  C_29
REMARK    7  A    between atoms: C_29  and  N_30
REMARK                            x       y       z     vdW  Elec       q    Type
REMARK                         _______ _______ _______ _____ _____    ______ ____
ROOT
ATOM      1  O   UNL     1      32.742 -14.897 -25.141  0.00  0.00    -0.270 OA
ATOM      2  N   UNL     1      34.462 -15.501 -23.678  0.00  0.00    -0.276 N 
ATOM      3  C   UNL     1      35.541 -17.705 -22.143  0.00  0.00    +0.026 C 
ATOM      4  C   UNL     1      35.237 -16.339 -21.497  0.00  0.00    +0.026 C 
ATOM      5  C   UNL     1      34.642 -17.933 -23.374  0.00  0.00    +0.026 C 
ATOM      6  C   UNL     1      35.330 -15.214 -22.529  0.00  0.00    +0.094 C 
ATOM      7  C   UNL     1      34.745 -16.766 -24.356  0.00  0.00    +0.094 C 
ATOM      8  C   UNL     1      33.451 -14.668 -24.163  0.00  0.00    +0.251 C 
ENDROOT
BRANCH   8  10
ATOM      9  N   UNL     1      32.128 -12.279 -21.602  0.00  0.00    -0.242 NA
ATOM     10  C   UNL     1      33.187 -13.413 -23.449  0.00  0.00    +0.072 C 
ATOM     11  C   UNL     1      33.711 -12.212 -23.905  0.00  0.00    +0.003 C 
ATOM     12  C   UNL     1      33.444 -11.039 -23.208  0.00  0.00    -0.003 C 
ATOM     13  C   UNL     1      32.410 -13.398 -22.307  0.00  0.00    +0.103 C 
ATOM     14  C   UNL     1      32.654 -11.126 -22.072  0.00  0.00    +0.095 C 
BRANCH  12  15
ATOM     15  C   UNL     1      33.989  -9.733 -23.665  0.00  0.00    +0.033 C 
BRANCH  15  16
ATOM     16  C   UNL     1      33.867  -8.599 -22.626  0.00  0.00    +0.031 C 
BRANCH  16  17
ATOM     17  C   UNL     1      33.037  -7.435 -23.113  0.00  0.00    -0.022 C 
ATOM     18  C   UNL     1      33.657  -6.226 -23.386  0.00  0.00    -0.004 C 
ATOM     19  C   UNL     1      31.672  -7.597 -23.278  0.00  0.00    -0.004 C 
ATOM     20  C   UNL     1      32.891  -5.151 -23.835  0.00  0.00    -0.000 C 
ATOM     21  C   UNL     1      30.905  -6.522 -23.729  0.00  0.00    -0.000 C 
ATOM     22  C   UNL     1      31.515  -5.299 -24.007  0.00  0.00    -0.000 C 
ENDBRANCH  16  17
ENDBRANCH  15  16
ENDBRANCH  12  15
ENDBRANCH   8  10
BRANCH   3  23
ATOM     23  C   UNL     1      35.438 -18.841 -21.144  0.00  0.00    -0.023 C 
ATOM     24  C   UNL     1      34.193 -19.387 -20.838  0.00  0.00    -0.011 C 
ATOM     25  C   UNL     1      36.590 -19.339 -20.537  0.00  0.00    -0.004 C 
ATOM     26  C   UNL     1      34.099 -20.432 -19.921  0.00  0.00    -0.045 C 
ATOM     27  C   UNL     1      36.495 -20.385 -19.619  0.00  0.00    -0.001 C 
ATOM     28  C   UNL     1      35.250 -20.932 -19.311  0.00  0.00    -0.006 C 
BRANCH  26  29
ATOM     29  C   UNL     1      32.767 -21.019 -19.591  0.00  0.00    -0.059 C 
BRANCH  29  30
ATOM     30  N   UNL     1      32.853 -22.047 -18.551  0.00  0.00    +0.383 N 
ATOM     31  H   UNL     1      32.870 -22.969 -18.986  0.00  0.00    -0.089 HD
ATOM     32  H   UNL     1      32.044 -21.975 -17.935  0.00  0.00    -0.089 HD
ATOM     33  H   UNL     1      33.707 -21.911 -18.010  0.00  0.00    -0.089 HD
ENDBRANCH  29  30
ENDBRANCH  26  29
ENDBRANCH   3  23
TORSDOF 7
ENDMDL
MODEL 2
REMARK VINA RESULT:     -12.3      1.837      2.784
REMARK  Name = 657077
REMARK  7 active torsions:
REMARK  status: ('A' for Active; 'I' for Inactive)
REMARK    1  A    between atoms: C_3  and  C_23
REMARK    2  A    between atoms: C_8  and  C_10
REMARK    3  A    between atoms: C_12  and  C_15
REMARK    4  A    between atoms: C_15  and  C_16
REMARK    5  A    between atoms: C_16  and  C_17
REMARK    6  A    between atoms: C_26  and  C_29
REMARK    7  A    between atoms: C_29  and  N_30
REMARK                            x       y       z     vdW  Elec       q    Type
REMARK                         _______ _______ _______ _____ _____    ______ ____
ROOT
ATOM      1  O   UNL     1      32.985 -15.512 -25.446  0.00  0.00    -0.270 OA
ATOM      2  N   UNL     1      34.497 -16.264 -23.829  0.00  0.00    -0.276 N 
ATOM      3  C   UNL     1      35.094 -18.469 -22.052  0.00  0.00    +0.026 C 
ATOM      4  C   UNL     1      35.003 -17.017 -21.541  0.00  0.00    +0.026 C 
ATOM      5  C   UNL     1      34.231 -18.653 -23.315  0.00  0.00    +0.026 C 
ATOM      6  C   UNL     1      35.344 -16.025 -22.653  0.00  0.00    +0.094 C 
ATOM      7  C   UNL     1      34.586 -17.616 -24.381  0.00  0.00    +0.094 C 
ATOM      8  C   UNL     1      33.674 -15.319 -24.445  0.00  0.00    +0.251 C 
ENDROOT
BRANCH   8  10
ATOM      9  N   UNL     1      34.112 -11.625 -24.020  0.00  0.00    -0.242 NA
ATOM     10  C   UNL     1      33.600 -13.977 -23.856  0.00  0.00    +0.072 C 
ATOM     11  C   UNL     1      32.980 -13.771 -22.632  0.00  0.00    +0.003 C 
ATOM     12  C   UNL     1      32.925 -12.488 -22.098  0.00  0.00    -0.003 C 
ATOM     13  C   UNL     1      34.145 -12.887 -24.506  0.00  0.00    +0.103 C 
ATOM     14  C   UNL     1      33.500 -11.458 -22.826  0.00  0.00    +0.095 C 
BRANCH  12  15
ATOM     15  C   UNL     1      32.269 -12.229 -20.789  0.00  0.00    +0.033 C 
BRANCH  15  16
ATOM     16  C   UNL     1      31.038 -11.302 -20.873  0.00  0.00    +0.031 C 
BRANCH  16  17
ATOM     17  C   UNL     1      31.385  -9.840 -20.725  0.00  0.00    -0.022 C 
ATOM     18  C   UNL     1      31.887  -9.380 -19.518  0.00  0.00    -0.004 C 
ATOM     19  C   UNL     1      31.195  -8.986 -21.799  0.00  0.00    -0.004 C 
ATOM     20  C   UNL     1      32.208  -8.029 -19.381  0.00  0.00    -0.000 C 
ATOM     21  C   UNL     1      31.516  -7.635 -21.662  0.00  0.00    -0.000 C 
ATOM     22  C   UNL     1      32.022  -7.157 -20.453  0.00  0.00    -0.000 C 
ENDBRANCH  16  17
ENDBRANCH  15  16
ENDBRANCH  12  15
ENDBRANCH   8  10
BRANCH   3  23
ATOM     23  C   UNL     1      34.743 -19.474 -20.972  0.00  0.00    -0.023 C 
ATOM     24  C   UNL     1      35.757 -20.089 -20.239  0.00  0.00    -0.011 C 
ATOM     25  C   UNL     1      33.407 -19.779 -20.713  0.00  0.00    -0.004 C 
ATOM     26  C   UNL     1      35.435 -21.012 -19.246  0.00  0.00    -0.045 C 
ATOM     27  C   UNL     1      33.085 -20.703 -19.719  0.00  0.00    -0.001 C 
ATOM     28  C   UNL     1      34.099 -21.319 -18.985  0.00  0.00    -0.006 C 
BRANCH  26  29
ATOM     29  C   UNL     1      36.518 -21.672 -18.459  0.00  0.00    -0.059 C 
BRANCH  29  30
ATOM     30  N   UNL     1      36.908 -20.889 -17.284  0.00  0.00    +0.383 N 
ATOM     31  H   UNL     1      37.762 -20.371 -17.490  0.00  0.00    -0.089 HD
ATOM     32  H   UNL     1      37.071 -21.516 -16.497  0.00  0.00    -0.089 HD
ATOM     33  H   UNL     1      36.162 -20.234 -17.050  0.00  0.00    -0.089 HD
ENDBRANCH  29  30
ENDBRANCH  26  29
ENDBRANCH   3  23
TORSDOF 7
ENDMDL
MODEL 3
REMARK VINA RESULT:     -10.7      5.130     12.929
REMARK  Name = 657077
REMARK  7 active torsions:
REMARK  status: ('A' for Active; 'I' for Inactive)
REMARK    1  A    between atoms: C_3  and  C_23
REMARK    2  A    between atoms: C_8  and  C_10
REMARK    3  A    between atoms: C_12  and  C_15
REMARK    4  A    between atoms: C_15  and  C_16
REMARK    5  A    between atoms: C_16  and  C_17
REMARK    6  A    between atoms: C_26  and  C_29
REMARK    7  A    between atoms: C_29  and  N_30
REMARK                            x       y       z     vdW  Elec       q    Type
REMARK                         _______ _______ _______ _____ _____    ______ ____
ROOT
ATOM      1  O   UNL     1      37.048 -21.667 -17.278  0.00  0.00    -0.270 OA
ATOM      2  N   UNL     1      35.912 -21.109 -19.244  0.00  0.00    -0.276 N 
ATOM      3  C   UNL     1      35.530 -19.001 -21.190  0.00  0.00    +0.026 C 
ATOM      4  C   UNL     1      34.339 -19.683 -20.489  0.00  0.00    +0.026 C 
ATOM      5  C   UNL     1      36.792 -19.075 -20.308  0.00  0.00    +0.026 C 
ATOM      6  C   UNL     1      34.697 -21.109 -20.068  0.00  0.00    +0.094 C 
ATOM      7  C   UNL     1      37.085 -20.515 -19.886  0.00  0.00    +0.094 C 
ATOM      8  C   UNL     1      36.023 -21.644 -17.958  0.00  0.00    +0.251 C 
ENDROOT
BRANCH   8  10
ATOM      9  N   UNL     1      32.474 -22.745 -17.507  0.00  0.00    -0.242 NA
ATOM     10  C   UNL     1      34.823 -22.219 -17.342  0.00  0.00    +0.072 C 
ATOM     11  C   UNL     1      34.870 -22.764 -16.067  0.00  0.00    +0.003 C 
ATOM     12  C   UNL     1      33.716 -23.303 -15.508  0.00  0.00    -0.003 C 
ATOM     13  C   UNL     1      33.617 -22.231 -18.016  0.00  0.00    +0.103 C 
ATOM     14  C   UNL     1      32.554 -23.269 -16.263  0.00  0.00    +0.095 C 
BRANCH  12  15
ATOM     15  C   UNL     1      33.728 -23.897 -14.145  0.00  0.00    +0.033 C 
BRANCH  15  16
ATOM     16  C   UNL     1      34.816 -24.972 -13.935  0.00  0.00    +0.031 C 
BRANCH  16  17
ATOM     17  C   UNL     1      35.944 -24.507 -13.045  0.00  0.00    -0.022 C 
ATOM     18  C   UNL     1      37.202 -25.067 -13.195  0.00  0.00    -0.004 C 
ATOM     19  C   UNL     1      35.699 -23.529 -12.094  0.00  0.00    -0.004 C 
ATOM     20  C   UNL     1      38.244 -24.639 -12.373  0.00  0.00    -0.000 C 
ATOM     21  C   UNL     1      36.742 -23.100 -11.272  0.00  0.00    -0.000 C 
ATOM     22  C   UNL     1      38.014 -23.655 -11.411  0.00  0.00    -0.000 C 
ENDBRANCH  16  17
ENDBRANCH  15  16
ENDBRANCH  12  15
ENDBRANCH   8  10
BRANCH   3  23
ATOM     23  C   UNL     1      35.208 -17.578 -21.603  0.00  0.00    -0.023 C 
ATOM     24  C   UNL     1      34.942 -17.286 -22.939  0.00  0.00    -0.011 C 
ATOM     25  C   UNL     1      35.176 -16.566 -20.644  0.00  0.00    -0.004 C 
ATOM     26  C   UNL     1      34.644 -15.977 -23.319  0.00  0.00    -0.045 C 
ATOM     27  C   UNL     1      34.879 -15.257 -21.024  0.00  0.00    -0.001 C 
ATOM     28  C   UNL     1      34.612 -14.963 -22.361  0.00  0.00    -0.006 C 
BRANCH  26  29
ATOM     29  C   UNL     1      34.358 -15.661 -24.749  0.00  0.00    -0.059 C 
BRANCH  29  30
ATOM     30  N   UNL     1      33.096 -14.938 -24.917  0.00  0.00    +0.383 N 
ATOM     31  H   UNL     1      32.778 -14.595 -24.011  0.00  0.00    -0.089 HD
ATOM     32  H   UNL     1      32.395 -15.565 -25.310  0.00  0.00    -0.089 HD
ATOM     33  H   UNL     1      33.239 -14.148 -25.547  0.00  0.00    -0.089 HD
ENDBRANCH  29  30
ENDBRANCH  26  29
ENDBRANCH   3  23
TORSDOF 7
ENDMDL
MODEL 4
REMARK VINA RESULT:     -10.6      2.082     10.850
REMARK  Name = 657077
REMARK  7 active torsions:
REMARK  status: ('A' for Active; 'I' for Inactive)
REMARK    1  A    between atoms: C_3  and  C_23
REMARK    2  A    between atoms: C_8  and  C_10
REMARK    3  A    between atoms: C_12  and  C_15
REMARK    4  A    between atoms: C_15  and  C_16
REMARK    5  A    between atoms: C_16  and  C_17
REMARK    6  A    between atoms: C_26  and  C_29
REMARK    7  A    between atoms: C_29  and  N_30
REMARK                            x       y       z     vdW  Elec       q    Type
REMARK                         _______ _______ _______ _____ _____    ______ ____
ROOT
ATOM      1  O   UNL     1      34.900 -14.230 -24.444  0.00  0.00    -0.270 OA
ATOM      2  N   UNL     1      33.321 -13.118 -23.125  0.00  0.00    -0.276 N 
ATOM      3  C   UNL     1      32.378 -10.496 -22.344  0.00  0.00    +0.026 C 
ATOM      4  C   UNL     1      32.749 -11.569 -21.301  0.00  0.00    +0.026 C 
ATOM      5  C   UNL     1      33.156 -10.724 -23.654  0.00  0.00    +0.026 C 
ATOM      6  C   UNL     1      32.567 -12.974 -21.874  0.00  0.00    +0.094 C 
ATOM      7  C   UNL     1      32.969 -12.152 -24.166  0.00  0.00    +0.094 C 
ATOM      8  C   UNL     1      34.287 -14.093 -23.386  0.00  0.00    +0.251 C 
ENDROOT
BRANCH   8  10
ATOM      9  N   UNL     1      34.879 -15.466 -19.954  0.00  0.00    -0.242 NA
ATOM     10  C   UNL     1      34.625 -15.037 -22.314  0.00  0.00    +0.072 C 
ATOM     11  C   UNL     1      34.995 -16.341 -22.606  0.00  0.00    +0.003 C 
ATOM     12  C   UNL     1      35.309 -17.214 -21.569  0.00  0.00    -0.003 C 
ATOM     13  C   UNL     1      34.581 -14.648 -20.989  0.00  0.00    +0.103 C 
ATOM     14  C   UNL     1      35.235 -16.731 -20.272  0.00  0.00    +0.095 C 
BRANCH  12  15
ATOM     15  C   UNL     1      35.710 -18.619 -21.843  0.00  0.00    +0.033 C 
BRANCH  15  16
ATOM     16  C   UNL     1      36.316 -19.351 -20.628  0.00  0.00    +0.031 C 
BRANCH  16  17
ATOM     17  C   UNL     1      35.334 -20.269 -19.938  0.00  0.00    -0.022 C 
ATOM     18  C   UNL     1      35.808 -21.246 -19.076  0.00  0.00    -0.004 C 
ATOM     19  C   UNL     1      33.979 -20.117 -20.180  0.00  0.00    -0.004 C 
ATOM     20  C   UNL     1      34.901 -22.093 -18.440  0.00  0.00    -0.000 C 
ATOM     21  C   UNL     1      33.072 -20.964 -19.542  0.00  0.00    -0.000 C 
ATOM     22  C   UNL     1      33.534 -21.953 -18.673  0.00  0.00    -0.000 C 
ENDBRANCH  16  17
ENDBRANCH  15  16
ENDBRANCH  12  15
ENDBRANCH   8  10
BRANCH   3  23
ATOM     23  C   UNL     1      32.567  -9.091 -21.806  0.00  0.00    -0.023 C 
ATOM     24  C   UNL     1      33.100  -8.099 -22.627  0.00  0.00    -0.011 C 
ATOM     25  C   UNL     1      32.205  -8.795 -20.493  0.00  0.00    -0.004 C 
ATOM     26  C   UNL     1      33.273  -6.806 -22.133  0.00  0.00    -0.045 C 
ATOM     27  C   UNL     1      32.379  -7.501 -19.999  0.00  0.00    -0.001 C 
ATOM     28  C   UNL     1      32.912  -6.508 -20.819  0.00  0.00    -0.006 C 
BRANCH  26  29
ATOM     29  C   UNL     1      33.843  -5.742 -23.010  0.00  0.00    -0.059 C 
BRANCH  29  30
ATOM     30  N   UNL     1      32.804  -4.924 -23.640  0.00  0.00    +0.383 N 
ATOM     31  H   UNL     1      32.805  -3.993 -23.222  0.00  0.00    -0.089 HD
ATOM     32  H   UNL     1      31.894  -5.361 -23.496  0.00  0.00    -0.089 HD
ATOM     33  H   UNL     1      32.991  -4.848 -24.639  0.00  0.00    -0.089 HD
ENDBRANCH  29  30
ENDBRANCH  26  29
ENDBRANCH   3  23
TORSDOF 7
ENDMDL
MODEL 5
REMARK VINA RESULT:     -10.5      3.815     11.927
REMARK  Name = 657077
REMARK  7 active torsions:
REMARK  status: ('A' for Active; 'I' for Inactive)
REMARK    1  A    between atoms: C_3  and  C_23
REMARK    2  A    between atoms: C_8  and  C_10
REMARK    3  A    between atoms: C_12  and  C_15
REMARK    4  A    between atoms: C_15  and  C_16
REMARK    5  A    between atoms: C_16  and  C_17
REMARK    6  A    between atoms: C_26  and  C_29
REMARK    7  A    between atoms: C_29  and  N_30
REMARK                            x       y       z     vdW  Elec       q    Type
REMARK                         _______ _______ _______ _____ _____    ______ ____
ROOT
ATOM      1  O   UNL     1      36.983 -19.643 -19.051  0.00  0.00    -0.270 OA
ATOM      2  N   UNL     1      35.942 -19.448 -21.136  0.00  0.00    -0.276 N 
ATOM      3  C   UNL     1      35.216 -17.556 -23.202  0.00  0.00    +0.026 C 
ATOM      4  C   UNL     1      34.182 -18.518 -22.583  0.00  0.00    +0.026 C 
ATOM      5  C   UNL     1      36.357 -17.274 -22.206  0.00  0.00    +0.026 C 
ATOM      6  C   UNL     1      34.859 -19.788 -22.067  0.00  0.00    +0.094 C 
ATOM      7  C   UNL     1      36.975 -18.574 -21.694  0.00  0.00    +0.094 C 
ATOM      8  C   UNL     1      36.061 -19.907 -19.822  0.00  0.00    +0.251 C 
ENDROOT
BRANCH   8  10
ATOM      9  N   UNL     1      32.689 -21.461 -19.347  0.00  0.00    -0.242 NA
ATOM     10  C   UNL     1      34.999 -20.770 -19.292  0.00  0.00    +0.072 C 
ATOM     11  C   UNL     1      35.263 -21.680 -18.279  0.00  0.00    +0.003 C 
ATOM     12  C   UNL     1      34.236 -22.485 -17.796  0.00  0.00    -0.003 C 
ATOM     13  C   UNL     1      33.713 -20.696 -19.790  0.00  0.00    +0.103 C 
ATOM     14  C   UNL     1      32.978 -22.338 -18.360  0.00  0.00    +0.095 C 
BRANCH  12  15
ATOM     15  C   UNL     1      34.480 -23.473 -16.712  0.00  0.00    +0.033 C 
BRANCH  15  16
ATOM     16  C   UNL     1      34.161 -22.947 -15.296  0.00  0.00    +0.031 C 
BRANCH  16  17
ATOM     17  C   UNL     1      32.883 -23.516 -14.726  0.00  0.00    -0.022 C 
ATOM     18  C   UNL     1      32.951 -24.448 -13.703  0.00  0.00    -0.004 C 
ATOM     19  C   UNL     1      31.666 -23.097 -15.238  0.00  0.00    -0.004 C 
ATOM     20  C   UNL     1      31.771 -24.973 -13.177  0.00  0.00    -0.000 C 
ATOM     21  C   UNL     1      30.486 -23.622 -14.712  0.00  0.00    -0.000 C 
ATOM     22  C   UNL     1      30.539 -24.561 -13.681  0.00  0.00    -0.000 C 
ENDBRANCH  16  17
ENDBRANCH  15  16
ENDBRANCH  12  15
ENDBRANCH   8  10
BRANCH   3  23
ATOM     23  C   UNL     1      34.572 -16.279 -23.708  0.00  0.00    -0.023 C 
ATOM     24  C   UNL     1      34.634 -15.119 -22.939  0.00  0.00    -0.011 C 
ATOM     25  C   UNL     1      33.922 -16.269 -24.941  0.00  0.00    -0.004 C 
ATOM     26  C   UNL     1      34.044 -13.944 -23.403  0.00  0.00    -0.045 C 
ATOM     27  C   UNL     1      33.331 -15.094 -25.405  0.00  0.00    -0.001 C 
ATOM     28  C   UNL     1      33.392 -13.932 -24.637  0.00  0.00    -0.006 C 
BRANCH  26  29
ATOM     29  C   UNL     1      34.109 -12.700 -22.583  0.00  0.00    -0.059 C 
BRANCH  29  30
ATOM     30  N   UNL     1      34.502 -11.531 -23.374  0.00  0.00    +0.383 N 
ATOM     31  H   UNL     1      35.359 -11.133 -22.989  0.00  0.00    -0.089 HD
ATOM     32  H   UNL     1      33.759 -10.834 -23.343  0.00  0.00    -0.089 HD
ATOM     33  H   UNL     1      34.663 -11.815 -24.340  0.00  0.00    -0.089 HD
ENDBRANCH  29  30
ENDBRANCH  26  29
ENDBRANCH   3  23
TORSDOF 7
ENDMDL
MODEL 6
REMARK VINA RESULT:     -10.5      4.082      7.424
REMARK  Name = 657077
REMARK  7 active torsions:
REMARK  status: ('A' for Active; 'I' for Inactive)
REMARK    1  A    between atoms: C_3  and  C_23
REMARK    2  A    between atoms: C_8  and  C_10
REMARK    3  A    between atoms: C_12  and  C_15
REMARK    4  A    between atoms: C_15  and  C_16
REMARK    5  A    between atoms: C_16  and  C_17
REMARK    6  A    between atoms: C_26  and  C_29
REMARK    7  A    between atoms: C_29  and  N_30
REMARK                            x       y       z     vdW  Elec       q    Type
REMARK                         _______ _______ _______ _____ _____    ______ ____
ROOT
ATOM      1  O   UNL     1      32.464 -20.164 -20.135  0.00  0.00    -0.270 OA
ATOM      2  N   UNL     1      34.174 -21.540 -19.328  0.00  0.00    -0.276 N 
ATOM      3  C   UNL     1      35.102 -22.962 -16.985  0.00  0.00    +0.026 C 
ATOM      4  C   UNL     1      36.014 -21.988 -17.757  0.00  0.00    +0.026 C 
ATOM      5  C   UNL     1      33.621 -22.578 -17.170  0.00  0.00    +0.026 C 
ATOM      6  C   UNL     1      35.595 -21.894 -19.224  0.00  0.00    +0.094 C 
ATOM      7  C   UNL     1      33.263 -22.463 -18.651  0.00  0.00    +0.094 C 
ATOM      8  C   UNL     1      33.657 -20.446 -20.026  0.00  0.00    +0.251 C 
ENDROOT
BRANCH   8  10
ATOM      9  N   UNL     1      36.814 -18.576 -20.769  0.00  0.00    -0.242 NA
ATOM     10  C   UNL     1      34.601 -19.534 -20.681  0.00  0.00    +0.072 C 
ATOM     11  C   UNL     1      34.218 -18.788 -21.786  0.00  0.00    +0.003 C 
ATOM     12  C   UNL     1      35.135 -17.931 -22.387  0.00  0.00    -0.003 C 
ATOM     13  C   UNL     1      35.894 -19.397 -20.213  0.00  0.00    +0.103 C 
ATOM     14  C   UNL     1      36.409 -17.864 -21.845  0.00  0.00    +0.095 C 
BRANCH  12  15
ATOM     15  C   UNL     1      34.762 -17.116 -23.573  0.00  0.00    +0.033 C 
BRANCH  15  16
ATOM     16  C   UNL     1      35.272 -15.661 -23.525  0.00  0.00    +0.031 C 
BRANCH  16  17
ATOM     17  C   UNL     1      34.387 -14.749 -22.709  0.00  0.00    -0.022 C 
ATOM     18  C   UNL     1      33.416 -13.994 -23.348  0.00  0.00    -0.004 C 
ATOM     19  C   UNL     1      34.562 -14.684 -21.336  0.00  0.00    -0.004 C 
ATOM     20  C   UNL     1      32.599 -13.152 -22.594  0.00  0.00    -0.000 C 
ATOM     21  C   UNL     1      33.744 -13.842 -20.582  0.00  0.00    -0.000 C 
ATOM     22  C   UNL     1      32.762 -13.076 -21.212  0.00  0.00    -0.000 C 
ENDBRANCH  16  17
ENDBRANCH  15  16
ENDBRANCH  12  15
ENDBRANCH   8  10
BRANCH   3  23
ATOM     23  C   UNL     1      35.486 -23.060 -15.521  0.00  0.00    -0.023 C 
ATOM     24  C   UNL     1      34.572 -23.558 -14.595  0.00  0.00    -0.011 C 
ATOM     25  C   UNL     1      36.754 -22.654 -15.106  0.00  0.00    -0.004 C 
ATOM     26  C   UNL     1      34.924 -23.649 -13.249  0.00  0.00    -0.045 C 
ATOM     27  C   UNL     1      37.106 -22.746 -13.759  0.00  0.00    -0.001 C 
ATOM     28  C   UNL     1      36.192 -23.243 -12.831  0.00  0.00    -0.006 C 
BRANCH  26  29
ATOM     29  C   UNL     1      33.948 -24.182 -12.255  0.00  0.00    -0.059 C 
BRANCH  29  30
ATOM     30  N   UNL     1      32.864 -24.936 -12.888  0.00  0.00    +0.383 N 
ATOM     31  H   UNL     1      31.971 -24.648 -12.488  0.00  0.00    -0.089 HD
ATOM     32  H   UNL     1      33.004 -25.933 -12.727  0.00  0.00    -0.089 HD
ATOM     33  H   UNL     1      32.862 -24.751 -13.891  0.00  0.00    -0.089 HD
ENDBRANCH  29  30
ENDBRANCH  26  29
ENDBRANCH   3  23
TORSDOF 7
ENDMDL
MODEL 7
REMARK VINA RESULT:     -10.5      4.915     12.306
REMARK  Name = 657077
REMARK  7 active torsions:
REMARK  status: ('A' for Active; 'I' for Inactive)
REMARK    1  A    between atoms: C_3  and  C_23
REMARK    2  A    between atoms: C_8  and  C_10
REMARK    3  A    between atoms: C_12  and  C_15
REMARK    4  A    between atoms: C_15  and  C_16
REMARK    5  A    between atoms: C_16  and  C_17
REMARK    6  A    between atoms: C_26  and  C_29
REMARK    7  A    between atoms: C_29  and  N_30
REMARK                            x       y       z     vdW  Elec       q    Type
REMARK                         _______ _______ _______ _____ _____    ______ ____
ROOT
ATOM      1  O   UNL     1      37.137 -21.264 -17.531  0.00  0.00    -0.270 OA
ATOM      2  N   UNL     1      36.069 -20.760 -19.549  0.00  0.00    -0.276 N 
ATOM      3  C   UNL     1      35.618 -18.648 -21.475  0.00  0.00    +0.026 C 
ATOM      4  C   UNL     1      34.452 -19.445 -20.858  0.00  0.00    +0.026 C 
ATOM      5  C   UNL     1      36.829 -18.635 -20.522  0.00  0.00    +0.026 C 
ATOM      6  C   UNL     1      34.907 -20.844 -20.443  0.00  0.00    +0.094 C 
ATOM      7  C   UNL     1      37.221 -20.053 -20.110  0.00  0.00    +0.094 C 
ATOM      8  C   UNL     1      36.154 -21.313 -18.269  0.00  0.00    +0.251 C 
ENDROOT
BRANCH   8  10
ATOM      9  N   UNL     1      32.690 -22.716 -18.042  0.00  0.00    -0.242 NA
ATOM     10  C   UNL     1      34.975 -22.003 -17.734  0.00  0.00    +0.072 C 
ATOM     11  C   UNL     1      34.999 -22.579 -16.472  0.00  0.00    +0.003 C 
ATOM     12  C   UNL     1      33.866 -23.226 -15.991  0.00  0.00    -0.003 C 
ATOM     13  C   UNL     1      33.812 -22.095 -18.474  0.00  0.00    +0.103 C 
ATOM     14  C   UNL     1      32.748 -23.267 -16.809  0.00  0.00    +0.095 C 
BRANCH  12  15
ATOM     15  C   UNL     1      33.855 -23.856 -14.645  0.00  0.00    +0.033 C 
BRANCH  15  16
ATOM     16  C   UNL     1      32.788 -23.284 -13.688  0.00  0.00    +0.031 C 
BRANCH  16  17
ATOM     17  C   UNL     1      31.385 -23.724 -14.034  0.00  0.00    -0.022 C 
ATOM     18  C   UNL     1      30.459 -22.779 -14.446  0.00  0.00    -0.004 C 
ATOM     19  C   UNL     1      31.050 -25.064 -13.933  0.00  0.00    -0.004 C 
ATOM     20  C   UNL     1      29.164 -23.185 -14.765  0.00  0.00    -0.000 C 
ATOM     21  C   UNL     1      29.754 -25.471 -14.253  0.00  0.00    -0.000 C 
ATOM     22  C   UNL     1      28.811 -24.530 -14.668  0.00  0.00    -0.000 C 
ENDBRANCH  16  17
ENDBRANCH  15  16
ENDBRANCH  12  15
ENDBRANCH   8  10
BRANCH   3  23
ATOM     23  C   UNL     1      35.197 -17.248 -21.880  0.00  0.00    -0.023 C 
ATOM     24  C   UNL     1      34.837 -16.986 -23.200  0.00  0.00    -0.011 C 
ATOM     25  C   UNL     1      35.170 -16.228 -20.930  0.00  0.00    -0.004 C 
ATOM     26  C   UNL     1      34.449 -15.699 -23.573  0.00  0.00    -0.045 C 
ATOM     27  C   UNL     1      34.783 -14.941 -21.303  0.00  0.00    -0.001 C 
ATOM     28  C   UNL     1      34.422 -14.677 -22.624  0.00  0.00    -0.006 C 
BRANCH  26  29
ATOM     29  C   UNL     1      34.061 -15.415 -24.986  0.00  0.00    -0.059 C 
BRANCH  29  30
ATOM     30  N   UNL     1      32.907 -14.518 -25.077  0.00  0.00    +0.383 N 
ATOM     31  H   UNL     1      32.076 -14.998 -24.731  0.00  0.00    -0.089 HD
ATOM     32  H   UNL     1      32.764 -14.247 -26.049  0.00  0.00    -0.089 HD
ATOM     33  H   UNL     1      33.079 -13.686 -24.512  0.00  0.00    -0.089 HD
ENDBRANCH  29  30
ENDBRANCH  26  29
ENDBRANCH   3  23
TORSDOF 7
ENDMDL
MODEL 8
REMARK VINA RESULT:     -10.5      4.312      8.164
REMARK  Name = 657077
REMARK  7 active torsions:
REMARK  status: ('A' for Active; 'I' for Inactive)
REMARK    1  A    between atoms: C_3  and  C_23
REMARK    2  A    between atoms: C_8  and  C_10
REMARK    3  A    between atoms: C_12  and  C_15
REMARK    4  A    between atoms: C_15  and  C_16
REMARK    5  A    between atoms: C_16  and  C_17
REMARK    6  A    between atoms: C_26  and  C_29
REMARK    7  A    between atoms: C_29  and  N_30
REMARK                            x       y       z     vdW  Elec       q    Type
REMARK                         _______ _______ _______ _____ _____    ______ ____
ROOT
ATOM      1  O   UNL     1      32.480 -20.506 -19.706  0.00  0.00    -0.270 OA
ATOM      2  N   UNL     1      34.000 -21.955 -18.677  0.00  0.00    -0.276 N 
ATOM      3  C   UNL     1      34.568 -23.357 -16.210  0.00  0.00    +0.026 C 
ATOM      4  C   UNL     1      35.620 -22.463 -16.895  0.00  0.00    +0.026 C 
ATOM      5  C   UNL     1      33.144 -22.893 -16.572  0.00  0.00    +0.026 C 
ATOM      6  C   UNL     1      35.375 -22.389 -18.402  0.00  0.00    +0.094 C 
ATOM      7  C   UNL     1      32.963 -22.802 -18.087  0.00  0.00    +0.094 C 
ATOM      8  C   UNL     1      33.633 -20.854 -19.455  0.00  0.00    +0.251 C 
ENDROOT
BRANCH   8  10
ATOM      9  N   UNL     1      37.018 -19.350 -20.000  0.00  0.00    -0.242 NA
ATOM     10  C   UNL     1      34.700 -20.020 -20.019  0.00  0.00    +0.072 C 
ATOM     11  C   UNL     1      34.440 -19.141 -21.060  0.00  0.00    +0.003 C 
ATOM     12  C   UNL     1      35.471 -18.362 -21.575  0.00  0.00    -0.003 C 
ATOM     13  C   UNL     1      35.989 -20.090 -19.527  0.00  0.00    +0.103 C 
ATOM     14  C   UNL     1      36.731 -18.504 -21.015  0.00  0.00    +0.095 C 
BRANCH  12  15
ATOM     15  C   UNL     1      35.231 -17.410 -22.691  0.00  0.00    +0.033 C 
BRANCH  15  16
ATOM     16  C   UNL     1      35.300 -15.924 -22.279  0.00  0.00    +0.031 C 
BRANCH  16  17
ATOM     17  C   UNL     1      34.551 -15.012 -23.222  0.00  0.00    -0.022 C 
ATOM     18  C   UNL     1      34.127 -15.502 -24.447  0.00  0.00    -0.004 C 
ATOM     19  C   UNL     1      34.303 -13.703 -22.845  0.00  0.00    -0.004 C 
ATOM     20  C   UNL     1      33.436 -14.660 -25.318  0.00  0.00    -0.000 C 
ATOM     21  C   UNL     1      33.611 -12.860 -23.716  0.00  0.00    -0.000 C 
ATOM     22  C   UNL     1      33.179 -13.339 -24.953  0.00  0.00    -0.000 C 
ENDBRANCH  16  17
ENDBRANCH  15  16
ENDBRANCH  12  15
ENDBRANCH   8  10
BRANCH   3  23
ATOM     23  C   UNL     1      34.777 -23.433 -14.709  0.00  0.00    -0.023 C 
ATOM     24  C   UNL     1      36.035 -23.173 -14.170  0.00  0.00    -0.011 C 
ATOM     25  C   UNL     1      33.710 -23.761 -13.875  0.00  0.00    -0.004 C 
ATOM     26  C   UNL     1      36.228 -23.242 -12.790  0.00  0.00    -0.045 C 
ATOM     27  C   UNL     1      33.903 -23.830 -12.495  0.00  0.00    -0.001 C 
ATOM     28  C   UNL     1      35.162 -23.570 -11.953  0.00  0.00    -0.006 C 
BRANCH  26  29
ATOM     29  C   UNL     1      37.574 -22.963 -12.209  0.00  0.00    -0.059 C 
BRANCH  29  30
ATOM     30  N   UNL     1      37.814 -23.715 -10.976  0.00  0.00    +0.383 N 
ATOM     31  H   UNL     1      37.747 -23.086 -10.176  0.00  0.00    -0.089 HD
ATOM     32  H   UNL     1      38.745 -24.130 -11.006  0.00  0.00    -0.089 HD
ATOM     33  H   UNL     1      37.115 -24.453 -10.886  0.00  0.00    -0.089 HD
ENDBRANCH  29  30
ENDBRANCH  26  29
ENDBRANCH   3  23
TORSDOF 7
ENDMDL
MODEL 9
REMARK VINA RESULT:     -10.4      1.283      2.054
REMARK  Name = 657077
REMARK  7 active torsions:
REMARK  status: ('A' for Active; 'I' for Inactive)
REMARK    1  A    between atoms: C_3  and  C_23
REMARK    2  A    between atoms: C_8  and  C_10
REMARK    3  A    between atoms: C_12  and  C_15
REMARK    4  A    between atoms: C_15  and  C_16
REMARK    5  A    between atoms: C_16  and  C_17
REMARK    6  A    between atoms: C_26  and  C_29
REMARK    7  A    between atoms: C_29  and  N_30
REMARK                            x       y       z     vdW  Elec       q    Type
REMARK                         _______ _______ _______ _____ _____    ______ ____
ROOT
ATOM      1  O   UNL     1      33.099 -13.890 -24.120  0.00  0.00    -0.270 OA
ATOM      2  N   UNL     1      34.440 -14.816 -22.443  0.00  0.00    -0.276 N 
ATOM      3  C   UNL     1      35.323 -17.319 -21.290  0.00  0.00    +0.026 C 
ATOM      4  C   UNL     1      34.715 -16.198 -20.425  0.00  0.00    +0.026 C 
ATOM      5  C   UNL     1      34.803 -17.229 -22.738  0.00  0.00    +0.026 C 
ATOM      6  C   UNL     1      34.946 -14.829 -21.065  0.00  0.00    +0.094 C 
ATOM      7  C   UNL     1      35.026 -15.832 -23.318  0.00  0.00    +0.094 C 
ATOM      8  C   UNL     1      33.503 -13.917 -22.958  0.00  0.00    +0.251 C 
ENDROOT
BRANCH   8  10
ATOM      9  N   UNL     1      32.026 -12.396 -19.873  0.00  0.00    -0.242 NA
ATOM     10  C   UNL     1      32.928 -12.920 -22.048  0.00  0.00    +0.072 C 
ATOM     11  C   UNL     1      32.739 -11.609 -22.459  0.00  0.00    +0.003 C 
ATOM     12  C   UNL     1      32.191 -10.685 -21.574  0.00  0.00    -0.003 C 
ATOM     13  C   UNL     1      32.561 -13.264 -20.762  0.00  0.00    +0.103 C 
ATOM     14  C   UNL     1      31.855 -11.126 -20.304  0.00  0.00    +0.095 C 
BRANCH  12  15
ATOM     15  C   UNL     1      31.974  -9.271 -21.978  0.00  0.00    +0.033 C 
BRANCH  15  16
ATOM     16  C   UNL     1      33.213  -8.597 -22.605  0.00  0.00    +0.031 C 
BRANCH  16  17
ATOM     17  C   UNL     1      32.911  -7.245 -23.207  0.00  0.00    -0.022 C 
ATOM     18  C   UNL     1      31.594  -6.890 -23.454  0.00  0.00    -0.004 C 
ATOM     19  C   UNL     1      33.956  -6.384 -23.501  0.00  0.00    -0.004 C 
ATOM     20  C   UNL     1      31.315  -5.641 -24.010  0.00  0.00    -0.000 C 
ATOM     21  C   UNL     1      33.677  -5.135 -24.056  0.00  0.00    -0.000 C 
ATOM     22  C   UNL     1      32.356  -4.764 -24.311  0.00  0.00    -0.000 C 
ENDBRANCH  16  17
ENDBRANCH  15  16
ENDBRANCH  12  15
ENDBRANCH   8  10
BRANCH   3  23
ATOM     23  C   UNL     1      35.092 -18.692 -20.687  0.00  0.00    -0.023 C 
ATOM     24  C   UNL     1      36.148 -19.370 -20.080  0.00  0.00    -0.011 C 
ATOM     25  C   UNL     1      33.825 -19.270 -20.740  0.00  0.00    -0.004 C 
ATOM     26  C   UNL     1      35.936 -20.631 -19.524  0.00  0.00    -0.045 C 
ATOM     27  C   UNL     1      33.613 -20.532 -20.184  0.00  0.00    -0.001 C 
ATOM     28  C   UNL     1      34.668 -21.212 -19.576  0.00  0.00    -0.006 C 
BRANCH  26  29
ATOM     29  C   UNL     1      37.063 -21.359 -18.872  0.00  0.00    -0.059 C 
BRANCH  29  30
ATOM     30  N   UNL     1      36.759 -21.732 -17.489  0.00  0.00    +0.383 N 
ATOM     31  H   UNL     1      35.832 -21.387 -17.240  0.00  0.00    -0.089 HD
ATOM     32  H   UNL     1      37.453 -21.321 -16.866  0.00  0.00    -0.089 HD
ATOM     33  H   UNL     1      36.779 -22.748 -17.399  0.00  0.00    -0.089 HD
ENDBRANCH  29  30
ENDBRANCH  26  29
ENDBRANCH   3  23
TORSDOF 7
ENDMDL
