MODEL 1
REMARK VINA RESULT:     -11.8      0.000      0.000
REMARK  Name = 25195365
REMARK  5 active torsions:
REMARK  status: ('A' for Active; 'I' for Inactive)
REMARK    1  A    between atoms: C_1  and  C_3
REMARK    2  A    between atoms: C_1  and  C_17
REMARK    3  A    between atoms: C_4  and  C_9
REMARK    4  A    between atoms: C_6  and  O_15
REMARK    5  A    between atoms: C_18  and  C_23
REMARK                            x       y       z     vdW  Elec       q    Type
REMARK                         _______ _______ _______ _____ _____    ______ ____
ROOT
ATOM      1  C   UNL     1      32.953 -23.033 -17.258  0.00  0.00    +0.086 C 
ATOM      2  C   UNL     1      31.562 -22.741 -16.664  0.00  0.00    +0.019 C 
ENDROOT
BRANCH   1   3
ATOM      3  C   UNL     1      33.374 -22.022 -18.270  0.00  0.00    -0.007 C 
ATOM      4  C   UNL     1      34.159 -20.131 -20.165  0.00  0.00    +0.034 C 
ATOM      5  C   UNL     1      34.724 -21.871 -18.587  0.00  0.00    +0.034 C 
ATOM      6  C   UNL     1      35.117 -20.925 -19.535  0.00  0.00    +0.138 C 
ATOM      7  C   UNL     1      32.417 -21.227 -18.901  0.00  0.00    -0.003 C 
ATOM      8  C   UNL     1      32.809 -20.282 -19.848  0.00  0.00    +0.003 C 
BRANCH   4   9
ATOM      9  C   UNL     1      34.545 -19.144 -21.150  0.00  0.00    +0.003 C 
ATOM     10  C   UNL     1      34.329 -19.390 -22.506  0.00  0.00    +0.000 C 
ATOM     11  C   UNL     1      35.132 -17.945 -20.744  0.00  0.00    +0.000 C 
ATOM     12  C   UNL     1      34.700 -18.438 -23.456  0.00  0.00    +0.000 C 
ATOM     13  C   UNL     1      35.503 -16.994 -21.694  0.00  0.00    +0.000 C 
ATOM     14  C   UNL     1      35.287 -17.240 -23.049  0.00  0.00    +0.000 C 
ENDBRANCH   4   9
BRANCH   6  15
ATOM     15  O   UNL     1      36.442 -20.800 -19.827  0.00  0.00    -0.471 OA
ATOM     16  C   UNL     1      37.270 -20.200 -18.832  0.00  0.00    +0.252 C 
ENDBRANCH   6  15
ENDBRANCH   1   3
BRANCH   1  17
ATOM     17  C   UNL     1      33.942 -23.173 -16.158  0.00  0.00    -0.087 C 
ATOM     18  C   UNL     1      34.725 -23.289 -15.253  0.00  0.00    -0.076 C 
BRANCH  18  23
ATOM     19  N   UNL     1      37.868 -23.117 -13.287  0.00  0.00    -0.336 NA
ATOM     20  N   UNL     1      36.159 -24.144 -11.932  0.00  0.00    -0.317 NA
ATOM     21  N   UNL     1      33.976 -24.461 -12.784  0.00  0.00    -0.334 N 
ATOM     22  N   UNL     1      38.330 -23.823 -11.097  0.00  0.00    -0.283 N 
ATOM     23  C   UNL     1      35.652 -23.431 -14.173  0.00  0.00    +0.179 C 
ATOM     24  C   UNL     1      36.960 -23.004 -14.278  0.00  0.00    +0.120 C 
ATOM     25  C   UNL     1      35.305 -23.999 -12.965  0.00  0.00    +0.186 C 
ATOM     26  C   UNL     1      37.464 -22.372 -15.536  0.00  0.00    +0.064 C 
ATOM     27  C   UNL     1      37.406 -23.688 -12.158  0.00  0.00    +0.196 C 
ATOM     28  H   UNL     1      33.710 -24.869 -11.929  0.00  0.00    +0.144 HD
ATOM     29  H   UNL     1      33.321 -24.374 -13.514  0.00  0.00    +0.144 HD
ATOM     30  H   UNL     1      39.254 -23.507 -11.207  0.00  0.00    +0.156 HD
ATOM     31  H   UNL     1      38.046 -24.233 -10.248  0.00  0.00    +0.156 HD
ENDBRANCH  18  23
ENDBRANCH   1  17
TORSDOF 5
ENDMDL
MODEL 2
REMARK VINA RESULT:     -11.6      0.563      1.861
REMARK  Name = 25195365
REMARK  5 active torsions:
REMARK  status: ('A' for Active; 'I' for Inactive)
REMARK    1  A    between atoms: C_1  and  C_3
REMARK    2  A    between atoms: C_1  and  C_17
REMARK    3  A    between atoms: C_4  and  C_9
REMARK    4  A    between atoms: C_6  and  O_15
REMARK    5  A    between atoms: C_18  and  C_23
REMARK                            x       y       z     vdW  Elec       q    Type
REMARK                         _______ _______ _______ _____ _____    ______ ____
ROOT
ATOM      1  C   UNL     1      32.963 -23.031 -17.292  0.00  0.00    +0.086 C 
ATOM      2  C   UNL     1      31.572 -22.743 -16.694  0.00  0.00    +0.019 C 
ENDROOT
BRANCH   1   3
ATOM      3  C   UNL     1      33.383 -22.014 -18.297  0.00  0.00    -0.007 C 
ATOM      4  C   UNL     1      34.166 -20.110 -20.180  0.00  0.00    +0.034 C 
ATOM      5  C   UNL     1      34.735 -21.838 -18.590  0.00  0.00    +0.034 C 
ATOM      6  C   UNL     1      35.127 -20.885 -19.531  0.00  0.00    +0.138 C 
ATOM      7  C   UNL     1      32.422 -21.237 -18.946  0.00  0.00    -0.003 C 
ATOM      8  C   UNL     1      32.814 -20.286 -19.887  0.00  0.00    +0.003 C 
BRANCH   4   9
ATOM      9  C   UNL     1      34.551 -19.116 -21.158  0.00  0.00    +0.003 C 
ATOM     10  C   UNL     1      35.150 -17.925 -20.745  0.00  0.00    +0.000 C 
ATOM     11  C   UNL     1      34.325 -19.348 -22.515  0.00  0.00    +0.000 C 
ATOM     12  C   UNL     1      35.521 -16.967 -21.688  0.00  0.00    +0.000 C 
ATOM     13  C   UNL     1      34.696 -18.389 -23.458  0.00  0.00    +0.000 C 
ATOM     14  C   UNL     1      35.294 -17.200 -23.044  0.00  0.00    +0.000 C 
ENDBRANCH   4   9
BRANCH   6  15
ATOM     15  O   UNL     1      36.455 -20.735 -19.799  0.00  0.00    -0.471 OA
ATOM     16  C   UNL     1      37.287 -20.298 -18.726  0.00  0.00    +0.252 C 
ENDBRANCH   6  15
ENDBRANCH   1   3
BRANCH   1  17
ATOM     17  C   UNL     1      33.954 -23.180 -16.194  0.00  0.00    -0.087 C 
ATOM     18  C   UNL     1      34.752 -23.278 -15.302  0.00  0.00    -0.076 C 
BRANCH  18  23
ATOM     19  N   UNL     1      36.174 -23.845 -11.921  0.00  0.00    -0.336 NA
ATOM     20  N   UNL     1      37.963 -23.267 -13.428  0.00  0.00    -0.317 NA
ATOM     21  N   UNL     1      37.519 -22.816 -15.707  0.00  0.00    -0.334 N 
ATOM     22  N   UNL     1      38.392 -23.718 -11.165  0.00  0.00    -0.283 N 
ATOM     23  C   UNL     1      35.700 -23.389 -14.236  0.00  0.00    +0.179 C 
ATOM     24  C   UNL     1      35.316 -23.728 -12.955  0.00  0.00    +0.120 C 
ATOM     25  C   UNL     1      37.050 -23.168 -14.416  0.00  0.00    +0.186 C 
ATOM     26  C   UNL     1      33.881 -23.993 -12.627  0.00  0.00    +0.064 C 
ATOM     27  C   UNL     1      37.464 -23.604 -12.224  0.00  0.00    +0.196 C 
ATOM     28  H   UNL     1      38.479 -22.654 -15.854  0.00  0.00    +0.144 HD
ATOM     29  H   UNL     1      36.884 -22.733 -16.455  0.00  0.00    +0.144 HD
ATOM     30  H   UNL     1      38.082 -23.962 -10.264  0.00  0.00    +0.156 HD
ATOM     31  H   UNL     1      39.349 -23.553 -11.329  0.00  0.00    +0.156 HD
ENDBRANCH  18  23
ENDBRANCH   1  17
TORSDOF 5
ENDMDL
MODEL 3
REMARK VINA RESULT:     -11.5      4.342      7.042
REMARK  Name = 25195365
REMARK  5 active torsions:
REMARK  status: ('A' for Active; 'I' for Inactive)
REMARK    1  A    between atoms: C_1  and  C_3
REMARK    2  A    between atoms: C_1  and  C_17
REMARK    3  A    between atoms: C_4  and  C_9
REMARK    4  A    between atoms: C_6  and  O_15
REMARK    5  A    between atoms: C_18  and  C_23
REMARK                            x       y       z     vdW  Elec       q    Type
REMARK                         _______ _______ _______ _____ _____    ______ ____
ROOT
ATOM      1  C   UNL     1      35.848 -18.048 -22.189  0.00  0.00    +0.086 C 
ATOM      2  C   UNL     1      35.759 -18.659 -23.601  0.00  0.00    +0.019 C 
ENDROOT
BRANCH   1   3
ATOM      3  C   UNL     1      35.169 -16.725 -22.088  0.00  0.00    -0.007 C 
ATOM      4  C   UNL     1      33.898 -14.250 -21.895  0.00  0.00    +0.034 C 
ATOM      5  C   UNL     1      34.601 -16.143 -23.221  0.00  0.00    +0.034 C 
ATOM      6  C   UNL     1      33.966 -14.904 -23.125  0.00  0.00    +0.138 C 
ATOM      7  C   UNL     1      35.101 -16.069 -20.859  0.00  0.00    -0.003 C 
ATOM      8  C   UNL     1      34.466 -14.832 -20.762  0.00  0.00    +0.003 C 
BRANCH   4   9
ATOM      9  C   UNL     1      33.244 -12.964 -21.774  0.00  0.00    +0.003 C 
ATOM     10  C   UNL     1      32.302 -12.753 -20.766  0.00  0.00    +0.000 C 
ATOM     11  C   UNL     1      33.556 -11.936 -22.664  0.00  0.00    +0.000 C 
ATOM     12  C   UNL     1      31.673 -11.514 -20.649  0.00  0.00    +0.000 C 
ATOM     13  C   UNL     1      32.925 -10.697 -22.546  0.00  0.00    +0.000 C 
ATOM     14  C   UNL     1      31.984 -10.487 -21.539  0.00  0.00    +0.000 C 
ENDBRANCH   4   9
BRANCH   6  15
ATOM     15  O   UNL     1      33.418 -14.359 -24.248  0.00  0.00    -0.471 OA
ATOM     16  C   UNL     1      33.731 -14.985 -25.490  0.00  0.00    +0.252 C 
ENDBRANCH   6  15
ENDBRANCH   1   3
BRANCH   1  17
ATOM     17  C   UNL     1      35.334 -19.024 -21.194  0.00  0.00    -0.087 C 
ATOM     18  C   UNL     1      34.915 -19.828 -20.405  0.00  0.00    -0.076 C 
BRANCH  18  23
ATOM     19  N   UNL     1      34.848 -22.460 -17.789  0.00  0.00    -0.336 NA
ATOM     20  N   UNL     1      32.582 -21.932 -18.418  0.00  0.00    -0.317 NA
ATOM     21  N   UNL     1      32.140 -20.295 -20.067  0.00  0.00    -0.334 N 
ATOM     22  N   UNL     1      33.032 -23.554 -16.782  0.00  0.00    -0.283 N 
ATOM     23  C   UNL     1      34.420 -20.791 -19.470  0.00  0.00    +0.179 C 
ATOM     24  C   UNL     1      35.269 -21.542 -18.684  0.00  0.00    +0.120 C 
ATOM     25  C   UNL     1      33.074 -21.031 -19.292  0.00  0.00    +0.186 C 
ATOM     26  C   UNL     1      36.753 -21.379 -18.780  0.00  0.00    +0.064 C 
ATOM     27  C   UNL     1      33.511 -22.601 -17.709  0.00  0.00    +0.196 C 
ATOM     28  H   UNL     1      31.175 -20.453 -19.954  0.00  0.00    +0.144 HD
ATOM     29  H   UNL     1      32.459 -19.628 -20.717  0.00  0.00    +0.144 HD
ATOM     30  H   UNL     1      33.667 -24.072 -16.237  0.00  0.00    +0.156 HD
ATOM     31  H   UNL     1      32.063 -23.698 -16.681  0.00  0.00    +0.156 HD
ENDBRANCH  18  23
ENDBRANCH   1  17
TORSDOF 5
ENDMDL
MODEL 4
REMARK VINA RESULT:     -11.1      4.880      8.088
REMARK  Name = 25195365
REMARK  5 active torsions:
REMARK  status: ('A' for Active; 'I' for Inactive)
REMARK    1  A    between atoms: C_1  and  C_3
REMARK    2  A    between atoms: C_1  and  C_17
REMARK    3  A    between atoms: C_4  and  C_9
REMARK    4  A    between atoms: C_6  and  O_15
REMARK    5  A    between atoms: C_18  and  C_23
REMARK                            x       y       z     vdW  Elec       q    Type
REMARK                         _______ _______ _______ _____ _____    ______ ____
ROOT
ATOM      1  C   UNL     1      34.304 -17.489 -24.321  0.00  0.00    +0.086 C 
ATOM      2  C   UNL     1      33.037 -18.145 -24.902  0.00  0.00    +0.019 C 
ENDROOT
BRANCH   1   3
ATOM      3  C   UNL     1      34.137 -16.028 -24.075  0.00  0.00    -0.007 C 
ATOM      4  C   UNL     1      33.825 -13.294 -23.615  0.00  0.00    +0.034 C 
ATOM      5  C   UNL     1      34.657 -15.452 -22.916  0.00  0.00    +0.034 C 
ATOM      6  C   UNL     1      34.500 -14.084 -22.685  0.00  0.00    +0.138 C 
ATOM      7  C   UNL     1      33.461 -15.237 -25.004  0.00  0.00    -0.003 C 
ATOM      8  C   UNL     1      33.306 -13.870 -24.775  0.00  0.00    +0.003 C 
BRANCH   4   9
ATOM      9  C   UNL     1      33.651 -11.874 -23.396  0.00  0.00    +0.003 C 
ATOM     10  C   UNL     1      34.443 -10.959 -24.090  0.00  0.00    +0.000 C 
ATOM     11  C   UNL     1      32.691 -11.420 -22.491  0.00  0.00    +0.000 C 
ATOM     12  C   UNL     1      34.275  -9.591 -23.879  0.00  0.00    +0.000 C 
ATOM     13  C   UNL     1      32.524 -10.052 -22.280  0.00  0.00    +0.000 C 
ATOM     14  C   UNL     1      33.316  -9.137 -22.974  0.00  0.00    +0.000 C 
ENDBRANCH   4   9
BRANCH   6  15
ATOM     15  O   UNL     1      35.019 -13.547 -21.545  0.00  0.00    -0.471 OA
ATOM     16  C   UNL     1      34.775 -14.251 -20.329  0.00  0.00    +0.252 C 
ENDBRANCH   6  15
ENDBRANCH   1   3
BRANCH   1  17
ATOM     17  C   UNL     1      34.727 -18.221 -23.100  0.00  0.00    -0.087 C 
ATOM     18  C   UNL     1      35.080 -18.794 -22.104  0.00  0.00    -0.076 C 
BRANCH  18  23
ATOM     19  N   UNL     1      34.963 -20.841 -19.010  0.00  0.00    -0.336 NA
ATOM     20  N   UNL     1      37.225 -20.083 -19.355  0.00  0.00    -0.317 NA
ATOM     21  N   UNL     1      37.772 -18.736 -21.220  0.00  0.00    -0.334 N 
ATOM     22  N   UNL     1      36.670 -21.420 -17.508  0.00  0.00    -0.283 N 
ATOM     23  C   UNL     1      35.499 -19.471 -20.916  0.00  0.00    +0.179 C 
ATOM     24  C   UNL     1      34.613 -20.188 -20.138  0.00  0.00    +0.120 C 
ATOM     25  C   UNL     1      36.804 -19.453 -20.471  0.00  0.00    +0.186 C 
ATOM     26  C   UNL     1      33.168 -20.285 -20.509  0.00  0.00    +0.064 C 
ATOM     27  C   UNL     1      36.266 -20.748 -18.682  0.00  0.00    +0.196 C 
ATOM     28  H   UNL     1      38.708 -18.712 -20.919  0.00  0.00    +0.144 HD
ATOM     29  H   UNL     1      37.505 -18.263 -22.042  0.00  0.00    +0.144 HD
ATOM     30  H   UNL     1      36.011 -21.922 -16.977  0.00  0.00    +0.156 HD
ATOM     31  H   UNL     1      37.611 -21.387 -17.220  0.00  0.00    +0.156 HD
ENDBRANCH  18  23
ENDBRANCH   1  17
TORSDOF 5
ENDMDL
MODEL 5
REMARK VINA RESULT:     -10.9      7.123     11.074
REMARK  Name = 25195365
REMARK  5 active torsions:
REMARK  status: ('A' for Active; 'I' for Inactive)
REMARK    1  A    between atoms: C_1  and  C_3
REMARK    2  A    between atoms: C_1  and  C_17
REMARK    3  A    between atoms: C_4  and  C_9
REMARK    4  A    between atoms: C_6  and  O_15
REMARK    5  A    between atoms: C_18  and  C_23
REMARK                            x       y       z     vdW  Elec       q    Type
REMARK                         _______ _______ _______ _____ _____    ______ ____
ROOT
ATOM      1  C   UNL     1      34.147 -15.687 -24.587  0.00  0.00    +0.086 C 
ATOM      2  C   UNL     1      35.334 -15.525 -25.555  0.00  0.00    +0.019 C 
ENDROOT
BRANCH   1   3
ATOM      3  C   UNL     1      34.390 -16.724 -23.543  0.00  0.00    -0.007 C 
ATOM      4  C   UNL     1      34.843 -18.665 -21.592  0.00  0.00    +0.034 C 
ATOM      5  C   UNL     1      34.763 -16.344 -22.254  0.00  0.00    +0.034 C 
ATOM      6  C   UNL     1      34.990 -17.314 -21.278  0.00  0.00    +0.138 C 
ATOM      7  C   UNL     1      34.243 -18.076 -23.856  0.00  0.00    -0.003 C 
ATOM      8  C   UNL     1      34.469 -19.046 -22.881  0.00  0.00    +0.003 C 
BRANCH   4   9
ATOM      9  C   UNL     1      35.074 -19.688 -20.595  0.00  0.00    +0.003 C 
ATOM     10  C   UNL     1      36.374 -19.973 -20.176  0.00  0.00    +0.000 C 
ATOM     11  C   UNL     1      33.997 -20.390 -20.052  0.00  0.00    +0.000 C 
ATOM     12  C   UNL     1      36.597 -20.958 -19.214  0.00  0.00    +0.000 C 
ATOM     13  C   UNL     1      34.221 -21.376 -19.091  0.00  0.00    +0.000 C 
ATOM     14  C   UNL     1      35.520 -21.660 -18.672  0.00  0.00    +0.000 C 
ENDBRANCH   4   9
BRANCH   6  15
ATOM     15  O   UNL     1      35.353 -16.914 -20.027  0.00  0.00    -0.471 OA
ATOM     16  C   UNL     1      34.956 -15.605 -19.625  0.00  0.00    +0.252 C 
ENDBRANCH   6  15
ENDBRANCH   1   3
BRANCH   1  17
ATOM     17  C   UNL     1      33.802 -14.367 -23.999  0.00  0.00    -0.087 C 
ATOM     18  C   UNL     1      33.508 -13.295 -23.541  0.00  0.00    -0.076 C 
BRANCH  18  23
ATOM     19  N   UNL     1      33.269  -9.618 -23.097  0.00  0.00    -0.336 NA
ATOM     20  N   UNL     1      32.015 -10.695 -21.344  0.00  0.00    -0.317 NA
ATOM     21  N   UNL     1      31.888 -13.054 -21.229  0.00  0.00    -0.334 N 
ATOM     22  N   UNL     1      32.148  -8.355 -21.469  0.00  0.00    -0.283 N 
ATOM     23  C   UNL     1      33.153 -12.021 -22.999  0.00  0.00    +0.179 C 
ATOM     24  C   UNL     1      33.580 -10.842 -23.574  0.00  0.00    +0.120 C 
ATOM     25  C   UNL     1      32.365 -11.885 -21.875  0.00  0.00    +0.186 C 
ATOM     26  C   UNL     1      34.441 -10.850 -24.797  0.00  0.00    +0.064 C 
ATOM     27  C   UNL     1      32.495  -9.619 -21.996  0.00  0.00    +0.196 C 
ATOM     28  H   UNL     1      31.325 -12.977 -20.425  0.00  0.00    +0.144 HD
ATOM     29  H   UNL     1      32.121 -13.942 -21.585  0.00  0.00    +0.144 HD
ATOM     30  H   UNL     1      32.471  -7.535 -21.905  0.00  0.00    +0.156 HD
ATOM     31  H   UNL     1      31.583  -8.295 -20.664  0.00  0.00    +0.156 HD
ENDBRANCH  18  23
ENDBRANCH   1  17
TORSDOF 5
ENDMDL
MODEL 6
REMARK VINA RESULT:     -10.8      5.012      8.164
REMARK  Name = 25195365
REMARK  5 active torsions:
REMARK  status: ('A' for Active; 'I' for Inactive)
REMARK    1  A    between atoms: C_1  and  C_3
REMARK    2  A    between atoms: C_1  and  C_17
REMARK    3  A    between atoms: C_4  and  C_9
REMARK    4  A    between atoms: C_6  and  O_15
REMARK    5  A    between atoms: C_18  and  C_23
REMARK                            x       y       z     vdW  Elec       q    Type
REMARK                         _______ _______ _______ _____ _____    ______ ____
ROOT
ATOM      1  C   UNL     1      34.988 -17.130 -23.639  0.00  0.00    +0.086 C 
ATOM      2  C   UNL     1      34.229 -17.796 -24.802  0.00  0.00    +0.019 C 
ENDROOT
BRANCH   1   3
ATOM      3  C   UNL     1      34.424 -15.801 -23.265  0.00  0.00    -0.007 C 
ATOM      4  C   UNL     1      33.369 -13.316 -22.565  0.00  0.00    +0.034 C 
ATOM      5  C   UNL     1      33.761 -15.031 -24.220  0.00  0.00    +0.034 C 
ATOM      6  C   UNL     1      33.233 -13.788 -23.871  0.00  0.00    +0.138 C 
ATOM      7  C   UNL     1      34.560 -15.328 -21.960  0.00  0.00    -0.003 C 
ATOM      8  C   UNL     1      34.032 -14.086 -21.610  0.00  0.00    +0.003 C 
BRANCH   4   9
ATOM      9  C   UNL     1      32.830 -12.029 -22.181  0.00  0.00    +0.003 C 
ATOM     10  C   UNL     1      31.889 -11.945 -21.155  0.00  0.00    +0.000 C 
ATOM     11  C   UNL     1      33.252 -10.872 -22.837  0.00  0.00    +0.000 C 
ATOM     12  C   UNL     1      31.370 -10.704 -20.784  0.00  0.00    +0.000 C 
ATOM     13  C   UNL     1      32.732  -9.631 -22.466  0.00  0.00    +0.000 C 
ATOM     14  C   UNL     1      31.792  -9.548 -21.440  0.00  0.00    +0.000 C 
ENDBRANCH   4   9
BRANCH   6  15
ATOM     15  O   UNL     1      32.589 -13.057 -24.824  0.00  0.00    -0.471 OA
ATOM     16  C   UNL     1      33.316 -12.760 -26.014  0.00  0.00    +0.252 C 
ENDBRANCH   6  15
ENDBRANCH   1   3
BRANCH   1  17
ATOM     17  C   UNL     1      35.044 -18.063 -22.483  0.00  0.00    -0.087 C 
ATOM     18  C   UNL     1      35.078 -18.834 -21.562  0.00  0.00    -0.076 C 
BRANCH  18  23
ATOM     19  N   UNL     1      33.972 -21.256 -18.977  0.00  0.00    -0.336 NA
ATOM     20  N   UNL     1      36.354 -20.947 -18.783  0.00  0.00    -0.317 NA
ATOM     21  N   UNL     1      37.500 -19.478 -20.239  0.00  0.00    -0.334 N 
ATOM     22  N   UNL     1      35.206 -22.403 -17.344  0.00  0.00    -0.283 N 
ATOM     23  C   UNL     1      35.119 -19.756 -20.470  0.00  0.00    +0.179 C 
ATOM     24  C   UNL     1      33.981 -20.380 -20.003  0.00  0.00    +0.120 C 
ATOM     25  C   UNL     1      36.289 -20.081 -19.815  0.00  0.00    +0.186 C 
ATOM     26  C   UNL     1      32.647 -20.114 -20.626  0.00  0.00    +0.064 C 
ATOM     27  C   UNL     1      35.176 -21.490 -18.421  0.00  0.00    +0.196 C 
ATOM     28  H   UNL     1      38.345 -19.698 -19.784  0.00  0.00    +0.144 HD
ATOM     29  H   UNL     1      37.495 -18.840 -20.989  0.00  0.00    +0.144 HD
ATOM     30  H   UNL     1      34.374 -22.830 -17.038  0.00  0.00    +0.156 HD
ATOM     31  H   UNL     1      36.060 -22.612 -16.900  0.00  0.00    +0.156 HD
ENDBRANCH  18  23
ENDBRANCH   1  17
TORSDOF 5
ENDMDL
MODEL 7
REMARK VINA RESULT:     -10.8      7.295     11.131
REMARK  Name = 25195365
REMARK  5 active torsions:
REMARK  status: ('A' for Active; 'I' for Inactive)
REMARK    1  A    between atoms: C_1  and  C_3
REMARK    2  A    between atoms: C_1  and  C_17
REMARK    3  A    between atoms: C_4  and  C_9
REMARK    4  A    between atoms: C_6  and  O_15
REMARK    5  A    between atoms: C_18  and  C_23
REMARK                            x       y       z     vdW  Elec       q    Type
REMARK                         _______ _______ _______ _____ _____    ______ ____
ROOT
ATOM      1  C   UNL     1      34.175 -15.735 -24.592  0.00  0.00    +0.086 C 
ATOM      2  C   UNL     1      35.369 -15.579 -25.552  0.00  0.00    +0.019 C 
ENDROOT
BRANCH   1   3
ATOM      3  C   UNL     1      34.409 -16.769 -23.542  0.00  0.00    -0.007 C 
ATOM      4  C   UNL     1      34.844 -18.703 -21.580  0.00  0.00    +0.034 C 
ATOM      5  C   UNL     1      34.787 -16.384 -22.256  0.00  0.00    +0.034 C 
ATOM      6  C   UNL     1      35.006 -17.351 -21.275  0.00  0.00    +0.138 C 
ATOM      7  C   UNL     1      34.248 -18.120 -23.847  0.00  0.00    -0.003 C 
ATOM      8  C   UNL     1      34.465 -19.087 -22.866  0.00  0.00    +0.003 C 
BRANCH   4   9
ATOM      9  C   UNL     1      35.066 -19.722 -20.577  0.00  0.00    +0.003 C 
ATOM     10  C   UNL     1      33.983 -20.412 -20.032  0.00  0.00    +0.000 C 
ATOM     11  C   UNL     1      36.364 -20.016 -20.156  0.00  0.00    +0.000 C 
ATOM     12  C   UNL     1      34.197 -21.395 -19.067  0.00  0.00    +0.000 C 
ATOM     13  C   UNL     1      36.577 -20.999 -19.189  0.00  0.00    +0.000 C 
ATOM     14  C   UNL     1      35.494 -21.688 -18.645  0.00  0.00    +0.000 C 
ENDBRANCH   4   9
BRANCH   6  15
ATOM     15  O   UNL     1      35.374 -16.947 -20.026  0.00  0.00    -0.471 OA
ATOM     16  C   UNL     1      34.976 -15.638 -19.626  0.00  0.00    +0.252 C 
ENDBRANCH   6  15
ENDBRANCH   1   3
BRANCH   1  17
ATOM     17  C   UNL     1      33.828 -14.412 -24.012  0.00  0.00    -0.087 C 
ATOM     18  C   UNL     1      33.527 -13.343 -23.553  0.00  0.00    -0.076 C 
BRANCH  18  23
ATOM     19  N   UNL     1      32.132 -10.787 -21.252  0.00  0.00    -0.336 NA
ATOM     20  N   UNL     1      33.118  -9.670 -23.147  0.00  0.00    -0.317 NA
ATOM     21  N   UNL     1      34.135 -10.914 -24.882  0.00  0.00    -0.334 N 
ATOM     22  N   UNL     1      32.106  -8.447 -21.418  0.00  0.00    -0.283 N 
ATOM     23  C   UNL     1      33.162 -12.072 -23.008  0.00  0.00    +0.179 C 
ATOM     24  C   UNL     1      32.495 -11.963 -21.805  0.00  0.00    +0.120 C 
ATOM     25  C   UNL     1      33.450 -10.881 -23.640  0.00  0.00    +0.186 C 
ATOM     26  C   UNL     1      32.123 -13.179 -21.018  0.00  0.00    +0.064 C 
ATOM     27  C   UNL     1      32.470  -9.696 -21.966  0.00  0.00    +0.196 C 
ATOM     28  H   UNL     1      34.349 -10.074 -25.349  0.00  0.00    +0.144 HD
ATOM     29  H   UNL     1      34.395 -11.778 -25.276  0.00  0.00    +0.144 HD
ATOM     30  H   UNL     1      31.631  -8.407 -20.558  0.00  0.00    +0.156 HD
ATOM     31  H   UNL     1      32.328  -7.616 -21.897  0.00  0.00    +0.156 HD
ENDBRANCH  18  23
ENDBRANCH   1  17
TORSDOF 5
ENDMDL
MODEL 8
REMARK VINA RESULT:     -10.8      4.109      6.874
REMARK  Name = 25195365
REMARK  5 active torsions:
REMARK  status: ('A' for Active; 'I' for Inactive)
REMARK    1  A    between atoms: C_1  and  C_3
REMARK    2  A    between atoms: C_1  and  C_17
REMARK    3  A    between atoms: C_4  and  C_9
REMARK    4  A    between atoms: C_6  and  O_15
REMARK    5  A    between atoms: C_18  and  C_23
REMARK                            x       y       z     vdW  Elec       q    Type
REMARK                         _______ _______ _______ _____ _____    ______ ____
ROOT
ATOM      1  C   UNL     1      35.289 -18.600 -23.309  0.00  0.00    +0.086 C 
ATOM      2  C   UNL     1      34.670 -19.304 -24.532  0.00  0.00    +0.019 C 
ENDROOT
BRANCH   1   3
ATOM      3  C   UNL     1      34.874 -17.173 -23.192  0.00  0.00    -0.007 C 
ATOM      4  C   UNL     1      34.099 -14.502 -22.974  0.00  0.00    +0.034 C 
ATOM      5  C   UNL     1      35.115 -16.471 -22.010  0.00  0.00    +0.034 C 
ATOM      6  C   UNL     1      34.727 -15.135 -21.901  0.00  0.00    +0.138 C 
ATOM      7  C   UNL     1      34.246 -16.539 -24.263  0.00  0.00    -0.003 C 
ATOM      8  C   UNL     1      33.859 -15.204 -24.155  0.00  0.00    +0.003 C 
BRANCH   4   9
ATOM      9  C   UNL     1      33.688 -13.118 -22.882  0.00  0.00    +0.003 C 
ATOM     10  C   UNL     1      34.254 -12.164 -23.729  0.00  0.00    +0.000 C 
ATOM     11  C   UNL     1      32.726 -12.736 -21.946  0.00  0.00    +0.000 C 
ATOM     12  C   UNL     1      33.857 -10.830 -23.640  0.00  0.00    +0.000 C 
ATOM     13  C   UNL     1      32.330 -11.401 -21.858  0.00  0.00    +0.000 C 
ATOM     14  C   UNL     1      32.895 -10.449 -22.705  0.00  0.00    +0.000 C 
ENDBRANCH   4   9
BRANCH   6  15
ATOM     15  O   UNL     1      34.975 -14.473 -20.736  0.00  0.00    -0.471 OA
ATOM     16  C   UNL     1      34.683 -15.164 -19.523  0.00  0.00    +0.252 C 
ENDBRANCH   6  15
ENDBRANCH   1   3
BRANCH   1  17
ATOM     17  C   UNL     1      34.981 -19.378 -22.081  0.00  0.00    -0.087 C 
ATOM     18  C   UNL     1      34.722 -20.024 -21.101  0.00  0.00    -0.076 C 
BRANCH  18  23
ATOM     19  N   UNL     1      35.161 -22.087 -18.047  0.00  0.00    -0.336 NA
ATOM     20  N   UNL     1      32.804 -21.764 -18.434  0.00  0.00    -0.317 NA
ATOM     21  N   UNL     1      32.050 -20.500 -20.286  0.00  0.00    -0.334 N 
ATOM     22  N   UNL     1      33.564 -23.016 -16.600  0.00  0.00    -0.283 N 
ATOM     23  C   UNL     1      34.415 -20.797 -19.938  0.00  0.00    +0.179 C 
ATOM     24  C   UNL     1      35.404 -21.351 -19.151  0.00  0.00    +0.120 C 
ATOM     25  C   UNL     1      33.120 -21.039 -19.526  0.00  0.00    +0.186 C 
ATOM     26  C   UNL     1      36.849 -21.165 -19.488  0.00  0.00    +0.064 C 
ATOM     27  C   UNL     1      33.857 -22.251 -17.751  0.00  0.00    +0.196 C 
ATOM     28  H   UNL     1      31.120 -20.662 -20.008  0.00  0.00    +0.144 HD
ATOM     29  H   UNL     1      32.239 -19.965 -21.090  0.00  0.00    +0.144 HD
ATOM     30  H   UNL     1      34.295 -23.396 -16.063  0.00  0.00    +0.156 HD
ATOM     31  H   UNL     1      32.628 -23.168 -16.335  0.00  0.00    +0.156 HD
ENDBRANCH  18  23
ENDBRANCH   1  17
TORSDOF 5
ENDMDL
MODEL 9
REMARK VINA RESULT:     -10.6      4.693      8.693
REMARK  Name = 25195365
REMARK  5 active torsions:
REMARK  status: ('A' for Active; 'I' for Inactive)
REMARK    1  A    between atoms: C_1  and  C_3
REMARK    2  A    between atoms: C_1  and  C_17
REMARK    3  A    between atoms: C_4  and  C_9
REMARK    4  A    between atoms: C_6  and  O_15
REMARK    5  A    between atoms: C_18  and  C_23
REMARK                            x       y       z     vdW  Elec       q    Type
REMARK                         _______ _______ _______ _____ _____    ______ ____
ROOT
ATOM      1  C   UNL     1      36.293 -22.030 -17.405  0.00  0.00    +0.086 C 
ATOM      2  C   UNL     1      37.213 -21.321 -16.393  0.00  0.00    +0.019 C 
ENDROOT
BRANCH   1   3
ATOM      3  C   UNL     1      35.016 -22.501 -16.794  0.00  0.00    -0.007 C 
ATOM      4  C   UNL     1      32.628 -23.382 -15.654  0.00  0.00    +0.034 C 
ATOM      5  C   UNL     1      34.959 -22.790 -15.431  0.00  0.00    +0.034 C 
ATOM      6  C   UNL     1      33.765 -23.231 -14.861  0.00  0.00    +0.138 C 
ATOM      7  C   UNL     1      33.879 -22.654 -17.588  0.00  0.00    -0.003 C 
ATOM      8  C   UNL     1      32.685 -23.094 -17.018  0.00  0.00    +0.003 C 
BRANCH   4   9
ATOM      9  C   UNL     1      31.379 -23.839 -15.083  0.00  0.00    +0.003 C 
ATOM     10  C   UNL     1      31.374 -24.896 -14.173  0.00  0.00    +0.000 C 
ATOM     11  C   UNL     1      30.180 -23.222 -15.442  0.00  0.00    +0.000 C 
ATOM     12  C   UNL     1      30.170 -25.336 -13.622  0.00  0.00    +0.000 C 
ATOM     13  C   UNL     1      28.977 -23.663 -14.891  0.00  0.00    +0.000 C 
ATOM     14  C   UNL     1      28.972 -24.719 -13.981  0.00  0.00    +0.000 C 
ENDBRANCH   4   9
BRANCH   6  15
ATOM     15  O   UNL     1      33.736 -23.504 -13.525  0.00  0.00    -0.471 OA
ATOM     16  C   UNL     1      34.931 -24.025 -12.946  0.00  0.00    +0.252 C 
ENDBRANCH   6  15
ENDBRANCH   1   3
BRANCH   1  17
ATOM     17  C   UNL     1      36.064 -21.142 -18.574  0.00  0.00    -0.087 C 
ATOM     18  C   UNL     1      35.857 -20.432 -19.521  0.00  0.00    -0.076 C 
BRANCH  18  23
ATOM     19  N   UNL     1      34.051 -18.643 -22.225  0.00  0.00    -0.336 NA
ATOM     20  N   UNL     1      36.389 -18.067 -22.339  0.00  0.00    -0.317 NA
ATOM     21  N   UNL     1      37.930 -18.982 -20.797  0.00  0.00    -0.334 N 
ATOM     22  N   UNL     1      34.848 -17.165 -23.864  0.00  0.00    -0.283 N 
ATOM     23  C   UNL     1      35.604 -19.585 -20.645  0.00  0.00    +0.179 C 
ATOM     24  C   UNL     1      34.336 -19.430 -21.167  0.00  0.00    +0.120 C 
ATOM     25  C   UNL     1      36.601 -18.872 -21.278  0.00  0.00    +0.186 C 
ATOM     26  C   UNL     1      33.167 -20.148 -20.573  0.00  0.00    +0.064 C 
ATOM     27  C   UNL     1      35.109 -18.000 -22.755  0.00  0.00    +0.196 C 
ATOM     28  H   UNL     1      38.655 -18.481 -21.236  0.00  0.00    +0.144 HD
ATOM     29  H   UNL     1      38.127 -19.559 -20.024  0.00  0.00    +0.144 HD
ATOM     30  H   UNL     1      33.932 -17.079 -24.210  0.00  0.00    +0.156 HD
ATOM     31  H   UNL     1      35.585 -16.670 -24.291  0.00  0.00    +0.156 HD
ENDBRANCH  18  23
ENDBRANCH   1  17
TORSDOF 5
ENDMDL
