MODEL 1
REMARK VINA RESULT:     -11.6      0.000      0.000
REMARK  Name = 46892373
REMARK  3 active torsions:
REMARK  status: ('A' for Active; 'I' for Inactive)
REMARK    1  A    between atoms: C_7  and  C_20
REMARK    2  A    between atoms: C_20  and  C_22
REMARK    3  A    between atoms: C_20  and  O_28
REMARK                            x       y       z     vdW  Elec       q    Type
REMARK                         _______ _______ _______ _____ _____    ______ ____
ROOT
ATOM      1  N   UNL     1      34.121 -23.636 -16.758  0.00  0.00    -0.326 NA
ATOM      2  N   UNL     1      34.722 -24.257 -14.569  0.00  0.00    -0.271 N 
ATOM      3  N   UNL     1      31.932 -22.745 -17.227  0.00  0.00    -0.345 NA
ATOM      4  N   UNL     1      38.141 -23.855 -15.020  0.00  0.00    -0.239 N 
ATOM      5  N   UNL     1      36.898 -23.621 -15.474  0.00  0.00    -0.166 NA
ATOM      6  C   UNL     1      32.504 -23.367 -14.981  0.00  0.00    +0.072 C 
ATOM      7  C   UNL     1      33.175 -23.139 -17.570  0.00  0.00    +0.146 C 
ATOM      8  C   UNL     1      33.755 -23.737 -15.467  0.00  0.00    +0.199 C 
ATOM      9  C   UNL     1      31.599 -22.861 -15.929  0.00  0.00    +0.129 C 
ATOM     10  C   UNL     1      32.145 -23.483 -13.628  0.00  0.00    +0.006 C 
ATOM     11  C   UNL     1      30.336 -22.478 -15.481  0.00  0.00    +0.086 C 
ATOM     12  C   UNL     1      36.125 -24.214 -14.560  0.00  0.00    +0.152 C 
ATOM     13  C   UNL     1      30.877 -23.094 -13.208  0.00  0.00    -0.004 C 
ATOM     14  C   UNL     1      29.972 -22.591 -14.136  0.00  0.00    -0.019 C 
ATOM     15  C   UNL     1      36.868 -24.822 -13.531  0.00  0.00    +0.048 C 
ATOM     16  C   UNL     1      38.178 -24.570 -13.860  0.00  0.00    +0.046 C 
ATOM     17  C   UNL     1      39.444 -24.932 -13.202  0.00  0.00    +0.049 C 
ATOM     18  H   UNL     1      34.335 -24.742 -13.806  0.00  0.00    +0.156 HD
ATOM     19  H   UNL     1      38.950 -23.539 -15.484  0.00  0.00    +0.174 HD
ENDROOT
BRANCH   7  20
ATOM     20  C   UNL     1      33.536 -23.008 -19.012  0.00  0.00    +0.243 C 
BRANCH  20  22
ATOM     21  F   UNL     1      36.930 -18.625 -20.123  0.00  0.00    -0.204 F 
ATOM     22  C   UNL     1      34.451 -21.826 -19.311  0.00  0.00    +0.021 C 
ATOM     23  C   UNL     1      33.946 -20.702 -19.964  0.00  0.00    +0.001 C 
ATOM     24  C   UNL     1      35.793 -21.869 -18.933  0.00  0.00    +0.001 C 
ATOM     25  C   UNL     1      34.783 -19.620 -20.238  0.00  0.00    +0.029 C 
ATOM     26  C   UNL     1      36.631 -20.788 -19.208  0.00  0.00    +0.029 C 
ATOM     27  C   UNL     1      36.125 -19.663 -19.860  0.00  0.00    +0.140 C 
ENDBRANCH  20  22
BRANCH  20  28
ATOM     28  O   UNL     1      34.128 -24.211 -19.536  0.00  0.00    -0.366 OA
ATOM     29  H   UNL     1      34.085 -24.197 -20.505  0.00  0.00    +0.212 HD
ENDBRANCH  20  28
ENDBRANCH   7  20
TORSDOF 3
ENDMDL
MODEL 2
REMARK VINA RESULT:     -11.5      1.682      5.337
REMARK  Name = 46892373
REMARK  3 active torsions:
REMARK  status: ('A' for Active; 'I' for Inactive)
REMARK    1  A    between atoms: C_7  and  C_20
REMARK    2  A    between atoms: C_20  and  C_22
REMARK    3  A    between atoms: C_20  and  O_28
REMARK                            x       y       z     vdW  Elec       q    Type
REMARK                         _______ _______ _______ _____ _____    ______ ____
ROOT
ATOM      1  N   UNL     1      32.165 -22.756 -16.981  0.00  0.00    -0.326 NA
ATOM      2  N   UNL     1      30.792 -22.535 -15.083  0.00  0.00    -0.271 N 
ATOM      3  N   UNL     1      34.417 -23.592 -16.779  0.00  0.00    -0.345 NA
ATOM      4  N   UNL     1      27.785 -22.774 -16.801  0.00  0.00    -0.239 N 
ATOM      5  N   UNL     1      29.117 -22.948 -16.810  0.00  0.00    -0.166 NA
ATOM      6  C   UNL     1      33.049 -23.381 -14.819  0.00  0.00    +0.072 C 
ATOM      7  C   UNL     1      33.362 -23.116 -17.471  0.00  0.00    +0.146 C 
ATOM      8  C   UNL     1      32.039 -22.901 -15.649  0.00  0.00    +0.199 C 
ATOM      9  C   UNL     1      34.257 -23.724 -15.450  0.00  0.00    +0.129 C 
ATOM     10  C   UNL     1      32.894 -23.522 -13.430  0.00  0.00    +0.006 C 
ATOM     11  C   UNL     1      35.292 -24.208 -14.653  0.00  0.00    +0.086 C 
ATOM     12  C   UNL     1      29.482 -22.549 -15.588  0.00  0.00    +0.152 C 
ATOM     13  C   UNL     1      33.943 -24.008 -12.658  0.00  0.00    -0.004 C 
ATOM     14  C   UNL     1      35.143 -24.352 -13.270  0.00  0.00    -0.019 C 
ATOM     15  C   UNL     1      28.392 -22.124 -14.806  0.00  0.00    +0.048 C 
ATOM     16  C   UNL     1      27.300 -22.283 -15.625  0.00  0.00    +0.046 C 
ATOM     17  C   UNL     1      25.867 -22.022 -15.415  0.00  0.00    +0.049 C 
ATOM     18  H   UNL     1      30.857 -22.206 -14.158  0.00  0.00    +0.156 HD
ATOM     19  H   UNL     1      27.211 -22.983 -17.574  0.00  0.00    +0.174 HD
ENDROOT
BRANCH   7  20
ATOM     20  C   UNL     1      33.548 -22.973 -18.945  0.00  0.00    +0.243 C 
BRANCH  20  22
ATOM     21  F   UNL     1      36.644 -18.481 -20.427  0.00  0.00    -0.204 F 
ATOM     22  C   UNL     1      34.382 -21.762 -19.344  0.00  0.00    +0.021 C 
ATOM     23  C   UNL     1      33.770 -20.659 -19.941  0.00  0.00    +0.001 C 
ATOM     24  C   UNL     1      35.758 -21.756 -19.115  0.00  0.00    +0.001 C 
ATOM     25  C   UNL     1      34.534 -19.550 -20.306  0.00  0.00    +0.029 C 
ATOM     26  C   UNL     1      36.523 -20.648 -19.481  0.00  0.00    +0.029 C 
ATOM     27  C   UNL     1      35.910 -19.545 -20.076  0.00  0.00    +0.140 C 
ENDBRANCH  20  22
BRANCH  20  28
ATOM     28  O   UNL     1      34.112 -24.155 -19.540  0.00  0.00    -0.366 OA
ATOM     29  H   UNL     1      35.055 -24.211 -19.318  0.00  0.00    +0.212 HD
ENDBRANCH  20  28
ENDBRANCH   7  20
TORSDOF 3
ENDMDL
MODEL 3
REMARK VINA RESULT:     -11.3      3.124      6.836
REMARK  Name = 46892373
REMARK  3 active torsions:
REMARK  status: ('A' for Active; 'I' for Inactive)
REMARK    1  A    between atoms: C_7  and  C_20
REMARK    2  A    between atoms: C_20  and  C_22
REMARK    3  A    between atoms: C_20  and  O_28
REMARK                            x       y       z     vdW  Elec       q    Type
REMARK                         _______ _______ _______ _____ _____    ______ ____
ROOT
ATOM      1  N   UNL     1      35.453 -23.110 -15.694  0.00  0.00    -0.326 NA
ATOM      2  N   UNL     1      33.241 -23.256 -16.484  0.00  0.00    -0.271 N 
ATOM      3  N   UNL     1      37.125 -21.899 -16.937  0.00  0.00    -0.345 NA
ATOM      4  N   UNL     1      31.794 -23.775 -13.371  0.00  0.00    -0.239 N 
ATOM      5  N   UNL     1      32.872 -23.392 -14.075  0.00  0.00    -0.166 NA
ATOM      6  C   UNL     1      34.882 -22.025 -17.777  0.00  0.00    +0.072 C 
ATOM      7  C   UNL     1      36.694 -22.640 -15.896  0.00  0.00    +0.146 C 
ATOM      8  C   UNL     1      34.567 -22.784 -16.653  0.00  0.00    +0.199 C 
ATOM      9  C   UNL     1      36.214 -21.592 -17.878  0.00  0.00    +0.129 C 
ATOM     10  C   UNL     1      33.939 -21.698 -18.766  0.00  0.00    +0.006 C 
ATOM     11  C   UNL     1      36.568 -20.828 -18.988  0.00  0.00    +0.086 C 
ATOM     12  C   UNL     1      32.473 -23.533 -15.342  0.00  0.00    +0.152 C 
ATOM     13  C   UNL     1      34.319 -20.935 -19.866  0.00  0.00    -0.004 C 
ATOM     14  C   UNL     1      35.635 -20.500 -19.976  0.00  0.00    -0.019 C 
ATOM     15  C   UNL     1      31.151 -24.003 -15.446  0.00  0.00    +0.048 C 
ATOM     16  C   UNL     1      30.736 -24.151 -14.145  0.00  0.00    +0.046 C 
ATOM     17  C   UNL     1      29.462 -24.606 -13.565  0.00  0.00    +0.049 C 
ATOM     18  H   UNL     1      32.768 -23.424 -17.331  0.00  0.00    +0.156 HD
ATOM     19  H   UNL     1      31.770 -23.785 -12.387  0.00  0.00    +0.174 HD
ENDROOT
BRANCH   7  20
ATOM     20  C   UNL     1      37.711 -22.977 -14.857  0.00  0.00    +0.243 C 
BRANCH  20  22
ATOM     21  F   UNL     1      35.527 -25.351 -10.215  0.00  0.00    -0.204 F 
ATOM     22  C   UNL     1      37.121 -23.617 -13.605  0.00  0.00    +0.021 C 
ATOM     23  C   UNL     1      36.409 -22.839 -12.693  0.00  0.00    +0.001 C 
ATOM     24  C   UNL     1      37.295 -24.981 -13.372  0.00  0.00    +0.001 C 
ATOM     25  C   UNL     1      35.870 -23.424 -11.548  0.00  0.00    +0.029 C 
ATOM     26  C   UNL     1      36.757 -25.568 -12.226  0.00  0.00    +0.029 C 
ATOM     27  C   UNL     1      36.044 -24.788 -11.314  0.00  0.00    +0.140 C 
ENDBRANCH  20  22
BRANCH  20  28
ATOM     28  O   UNL     1      38.758 -23.819 -15.372  0.00  0.00    -0.366 OA
ATOM     29  H   UNL     1      39.339 -23.297 -15.948  0.00  0.00    +0.212 HD
ENDBRANCH  20  28
ENDBRANCH   7  20
TORSDOF 3
ENDMDL
MODEL 4
REMARK VINA RESULT:     -11.1      3.004      7.203
REMARK  Name = 46892373
REMARK  3 active torsions:
REMARK  status: ('A' for Active; 'I' for Inactive)
REMARK    1  A    between atoms: C_7  and  C_20
REMARK    2  A    between atoms: C_20  and  C_22
REMARK    3  A    between atoms: C_20  and  O_28
REMARK                            x       y       z     vdW  Elec       q    Type
REMARK                         _______ _______ _______ _____ _____    ______ ____
ROOT
ATOM      1  N   UNL     1      33.291 -23.527 -15.198  0.00  0.00    -0.326 NA
ATOM      2  N   UNL     1      31.619 -22.833 -16.703  0.00  0.00    -0.271 N 
ATOM      3  N   UNL     1      35.620 -23.146 -15.686  0.00  0.00    -0.345 NA
ATOM      4  N   UNL     1      29.103 -22.564 -14.326  0.00  0.00    -0.239 N 
ATOM      5  N   UNL     1      30.416 -22.677 -14.585  0.00  0.00    -0.166 NA
ATOM      6  C   UNL     1      33.946 -22.423 -17.247  0.00  0.00    +0.072 C 
ATOM      7  C   UNL     1      34.603 -23.597 -14.925  0.00  0.00    +0.146 C 
ATOM      8  C   UNL     1      32.994 -22.932 -16.369  0.00  0.00    +0.199 C 
ATOM      9  C   UNL     1      35.287 -22.558 -16.850  0.00  0.00    +0.129 C 
ATOM     10  C   UNL     1      33.612 -21.807 -18.464  0.00  0.00    +0.006 C 
ATOM     11  C   UNL     1      36.271 -22.060 -17.702  0.00  0.00    +0.086 C 
ATOM     12  C   UNL     1      30.460 -22.719 -15.919  0.00  0.00    +0.152 C 
ATOM     13  C   UNL     1      34.614 -21.319 -19.297  0.00  0.00    -0.004 C 
ATOM     14  C   UNL     1      35.944 -21.445 -18.914  0.00  0.00    -0.019 C 
ATOM     15  C   UNL     1      29.185 -22.635 -16.507  0.00  0.00    +0.048 C 
ATOM     16  C   UNL     1      28.322 -22.534 -15.443  0.00  0.00    +0.046 C 
ATOM     17  C   UNL     1      26.857 -22.417 -15.373  0.00  0.00    +0.049 C 
ATOM     18  H   UNL     1      31.444 -22.848 -17.671  0.00  0.00    +0.156 HD
ATOM     19  H   UNL     1      28.738 -22.507 -13.413  0.00  0.00    +0.174 HD
ENDROOT
BRANCH   7  20
ATOM     20  C   UNL     1      34.980 -24.249 -13.636  0.00  0.00    +0.243 C 
BRANCH  20  22
ATOM     21  F   UNL     1      40.291 -26.181 -13.525  0.00  0.00    -0.204 F 
ATOM     22  C   UNL     1      36.412 -24.770 -13.607  0.00  0.00    +0.021 C 
ATOM     23  C   UNL     1      36.753 -25.913 -14.330  0.00  0.00    +0.001 C 
ATOM     24  C   UNL     1      37.381 -24.105 -12.855  0.00  0.00    +0.001 C 
ATOM     25  C   UNL     1      38.064 -26.389 -14.303  0.00  0.00    +0.029 C 
ATOM     26  C   UNL     1      38.692 -24.581 -12.827  0.00  0.00    +0.029 C 
ATOM     27  C   UNL     1      39.033 -25.724 -13.552  0.00  0.00    +0.140 C 
ENDBRANCH  20  22
BRANCH  20  28
ATOM     28  O   UNL     1      34.766 -23.384 -12.506  0.00  0.00    -0.366 OA
ATOM     29  H   UNL     1      35.595 -23.284 -12.013  0.00  0.00    +0.212 HD
ENDBRANCH  20  28
ENDBRANCH   7  20
TORSDOF 3
ENDMDL
MODEL 5
REMARK VINA RESULT:     -10.7      2.937      5.819
REMARK  Name = 46892373
REMARK  3 active torsions:
REMARK  status: ('A' for Active; 'I' for Inactive)
REMARK    1  A    between atoms: C_7  and  C_20
REMARK    2  A    between atoms: C_20  and  C_22
REMARK    3  A    between atoms: C_20  and  O_28
REMARK                            x       y       z     vdW  Elec       q    Type
REMARK                         _______ _______ _______ _____ _____    ______ ____
ROOT
ATOM      1  N   UNL     1      33.483 -22.992 -16.294  0.00  0.00    -0.326 NA
ATOM      2  N   UNL     1      35.789 -22.972 -15.826  0.00  0.00    -0.271 N 
ATOM      3  N   UNL     1      32.622 -21.938 -18.283  0.00  0.00    -0.345 NA
ATOM      4  N   UNL     1      35.768 -25.827 -13.852  0.00  0.00    -0.239 N 
ATOM      5  N   UNL     1      35.125 -25.057 -14.746  0.00  0.00    -0.166 NA
ATOM      6  C   UNL     1      34.980 -21.895 -17.843  0.00  0.00    +0.072 C 
ATOM      7  C   UNL     1      32.499 -22.628 -17.132  0.00  0.00    +0.146 C 
ATOM      8  C   UNL     1      34.715 -22.610 -16.678  0.00  0.00    +0.199 C 
ATOM      9  C   UNL     1      33.867 -21.572 -18.637  0.00  0.00    +0.129 C 
ATOM     10  C   UNL     1      36.276 -21.507 -18.222  0.00  0.00    +0.006 C 
ATOM     11  C   UNL     1      34.092 -20.857 -19.811  0.00  0.00    +0.086 C 
ATOM     12  C   UNL     1      35.986 -24.058 -14.959  0.00  0.00    +0.152 C 
ATOM     13  C   UNL     1      36.472 -20.793 -19.400  0.00  0.00    -0.004 C 
ATOM     14  C   UNL     1      35.379 -20.468 -20.195  0.00  0.00    -0.019 C 
ATOM     15  C   UNL     1      37.168 -24.189 -14.207  0.00  0.00    +0.048 C 
ATOM     16  C   UNL     1      36.995 -25.352 -13.496  0.00  0.00    +0.046 C 
ATOM     17  C   UNL     1      37.856 -26.050 -12.528  0.00  0.00    +0.049 C 
ATOM     18  H   UNL     1      36.542 -22.338 -15.845  0.00  0.00    +0.156 HD
ATOM     19  H   UNL     1      35.387 -26.659 -13.487  0.00  0.00    +0.174 HD
ENDROOT
BRANCH   7  20
ATOM     20  C   UNL     1      31.114 -23.031 -16.746  0.00  0.00    +0.243 C 
BRANCH  20  22
ATOM     21  F   UNL     1      30.716 -25.078 -11.491  0.00  0.00    -0.204 F 
ATOM     22  C   UNL     1      31.007 -23.582 -15.329  0.00  0.00    +0.021 C 
ATOM     23  C   UNL     1      31.444 -22.817 -14.248  0.00  0.00    +0.001 C 
ATOM     24  C   UNL     1      30.472 -24.852 -15.114  0.00  0.00    +0.001 C 
ATOM     25  C   UNL     1      31.346 -23.322 -12.951  0.00  0.00    +0.029 C 
ATOM     26  C   UNL     1      30.374 -25.358 -13.817  0.00  0.00    +0.029 C 
ATOM     27  C   UNL     1      30.811 -24.592 -12.736  0.00  0.00    +0.140 C 
ENDBRANCH  20  22
BRANCH  20  28
ATOM     28  O   UNL     1      30.170 -21.958 -16.911  0.00  0.00    -0.366 OA
ATOM     29  H   UNL     1      29.269 -22.299 -16.799  0.00  0.00    +0.212 HD
ENDBRANCH  20  28
ENDBRANCH   7  20
TORSDOF 3
ENDMDL
MODEL 6
REMARK VINA RESULT:     -10.5      3.152      7.332
REMARK  Name = 46892373
REMARK  3 active torsions:
REMARK  status: ('A' for Active; 'I' for Inactive)
REMARK    1  A    between atoms: C_7  and  C_20
REMARK    2  A    between atoms: C_20  and  C_22
REMARK    3  A    between atoms: C_20  and  O_28
REMARK                            x       y       z     vdW  Elec       q    Type
REMARK                         _______ _______ _______ _____ _____    ______ ____
ROOT
ATOM      1  N   UNL     1      32.608 -23.766 -15.174  0.00  0.00    -0.326 NA
ATOM      2  N   UNL     1      31.038 -22.842 -16.663  0.00  0.00    -0.271 N 
ATOM      3  N   UNL     1      34.972 -23.530 -15.578  0.00  0.00    -0.345 NA
ATOM      4  N   UNL     1      28.481 -22.549 -14.333  0.00  0.00    -0.239 N 
ATOM      5  N   UNL     1      29.789 -22.743 -14.568  0.00  0.00    -0.166 NA
ATOM      6  C   UNL     1      33.403 -22.574 -17.121  0.00  0.00    +0.072 C 
ATOM      7  C   UNL     1      33.903 -23.955 -14.875  0.00  0.00    +0.146 C 
ATOM      8  C   UNL     1      32.390 -23.069 -16.305  0.00  0.00    +0.199 C 
ATOM      9  C   UNL     1      34.718 -22.838 -16.703  0.00  0.00    +0.129 C 
ATOM     10  C   UNL     1      33.151 -21.850 -18.298  0.00  0.00    +0.006 C 
ATOM     11  C   UNL     1      35.761 -22.358 -17.493  0.00  0.00    +0.086 C 
ATOM     12  C   UNL     1      29.867 -22.695 -15.900  0.00  0.00    +0.152 C 
ATOM     13  C   UNL     1      34.210 -21.382 -19.069  0.00  0.00    -0.004 C 
ATOM     14  C   UNL     1      35.516 -21.637 -18.665  0.00  0.00    -0.019 C 
ATOM     15  C   UNL     1      28.620 -22.472 -16.511  0.00  0.00    +0.048 C 
ATOM     16  C   UNL     1      27.736 -22.381 -15.463  0.00  0.00    +0.046 C 
ATOM     17  C   UNL     1      26.283 -22.157 -15.419  0.00  0.00    +0.049 C 
ATOM     18  H   UNL     1      30.889 -22.775 -17.633  0.00  0.00    +0.156 HD
ATOM     19  H   UNL     1      28.094 -22.529 -13.427  0.00  0.00    +0.174 HD
ENDROOT
BRANCH   7  20
ATOM     20  C   UNL     1      34.192 -24.723 -13.628  0.00  0.00    +0.243 C 
BRANCH  20  22
ATOM     21  F   UNL     1      39.136 -23.394 -11.229  0.00  0.00    -0.204 F 
ATOM     22  C   UNL     1      35.525 -24.365 -12.982  0.00  0.00    +0.021 C 
ATOM     23  C   UNL     1      36.688 -25.035 -13.363  0.00  0.00    +0.001 C 
ATOM     24  C   UNL     1      35.583 -23.367 -12.008  0.00  0.00    +0.001 C 
ATOM     25  C   UNL     1      37.908 -24.707 -12.771  0.00  0.00    +0.029 C 
ATOM     26  C   UNL     1      36.802 -23.039 -11.415  0.00  0.00    +0.029 C 
ATOM     27  C   UNL     1      37.965 -23.710 -11.797  0.00  0.00    +0.140 C 
ENDBRANCH  20  22
BRANCH  20  28
ATOM     28  O   UNL     1      33.142 -24.594 -12.653  0.00  0.00    -0.366 OA
ATOM     29  H   UNL     1      32.511 -23.918 -12.944  0.00  0.00    +0.212 HD
ENDBRANCH  20  28
ENDBRANCH   7  20
TORSDOF 3
ENDMDL
MODEL 7
REMARK VINA RESULT:     -10.5      2.024      5.346
REMARK  Name = 46892373
REMARK  3 active torsions:
REMARK  status: ('A' for Active; 'I' for Inactive)
REMARK    1  A    between atoms: C_7  and  C_20
REMARK    2  A    between atoms: C_20  and  C_22
REMARK    3  A    between atoms: C_20  and  O_28
REMARK                            x       y       z     vdW  Elec       q    Type
REMARK                         _______ _______ _______ _____ _____    ______ ____
ROOT
ATOM      1  N   UNL     1      35.369 -22.544 -15.266  0.00  0.00    -0.326 NA
ATOM      2  N   UNL     1      33.736 -23.238 -13.721  0.00  0.00    -0.271 N 
ATOM      3  N   UNL     1      37.667 -23.227 -15.017  0.00  0.00    -0.345 NA
ATOM      4  N   UNL     1      31.049 -22.943 -15.900  0.00  0.00    -0.239 N 
ATOM      5  N   UNL     1      32.381 -23.003 -15.738  0.00  0.00    -0.166 NA
ATOM      6  C   UNL     1      36.032 -23.956 -13.419  0.00  0.00    +0.072 C 
ATOM      7  C   UNL     1      36.659 -22.579 -15.635  0.00  0.00    +0.146 C 
ATOM      8  C   UNL     1      35.086 -23.244 -14.152  0.00  0.00    +0.199 C 
ATOM      9  C   UNL     1      37.349 -23.916 -13.906  0.00  0.00    +0.129 C 
ATOM     10  C   UNL     1      35.712 -24.679 -12.258  0.00  0.00    +0.006 C 
ATOM     11  C   UNL     1      38.324 -24.617 -13.200  0.00  0.00    +0.086 C 
ATOM     12  C   UNL     1      32.520 -23.130 -14.416  0.00  0.00    +0.152 C 
ATOM     13  C   UNL     1      36.706 -25.370 -11.572  0.00  0.00    -0.004 C 
ATOM     14  C   UNL     1      38.013 -25.338 -12.044  0.00  0.00    -0.019 C 
ATOM     15  C   UNL     1      31.287 -23.151 -13.739  0.00  0.00    +0.048 C 
ATOM     16  C   UNL     1      30.348 -23.028 -14.734  0.00  0.00    +0.046 C 
ATOM     17  C   UNL     1      28.877 -22.980 -14.698  0.00  0.00    +0.049 C 
ATOM     18  H   UNL     1      33.629 -23.325 -12.746  0.00  0.00    +0.156 HD
ATOM     19  H   UNL     1      30.619 -22.847 -16.781  0.00  0.00    +0.174 HD
ENDROOT
BRANCH   7  20
ATOM     20  C   UNL     1      37.020 -21.817 -16.867  0.00  0.00    +0.243 C 
BRANCH  20  22
ATOM     21  F   UNL     1      32.695 -21.059 -20.428  0.00  0.00    -0.204 F 
ATOM     22  C   UNL     1      35.853 -21.612 -17.827  0.00  0.00    +0.021 C 
ATOM     23  C   UNL     1      34.653 -22.291 -17.620  0.00  0.00    +0.001 C 
ATOM     24  C   UNL     1      35.987 -20.747 -18.912  0.00  0.00    +0.001 C 
ATOM     25  C   UNL     1      33.585 -22.104 -18.499  0.00  0.00    +0.029 C 
ATOM     26  C   UNL     1      34.921 -20.560 -19.792  0.00  0.00    +0.029 C 
ATOM     27  C   UNL     1      33.719 -21.239 -19.584  0.00  0.00    +0.140 C 
ENDBRANCH  20  22
BRANCH  20  28
ATOM     28  O   UNL     1      37.614 -20.542 -16.563  0.00  0.00    -0.366 OA
ATOM     29  H   UNL     1      36.931 -19.935 -16.240  0.00  0.00    +0.212 HD
ENDBRANCH  20  28
ENDBRANCH   7  20
TORSDOF 3
ENDMDL
MODEL 8
REMARK VINA RESULT:     -10.5      2.962      5.629
REMARK  Name = 46892373
REMARK  3 active torsions:
REMARK  status: ('A' for Active; 'I' for Inactive)
REMARK    1  A    between atoms: C_7  and  C_20
REMARK    2  A    between atoms: C_20  and  C_22
REMARK    3  A    between atoms: C_20  and  O_28
REMARK                            x       y       z     vdW  Elec       q    Type
REMARK                         _______ _______ _______ _____ _____    ______ ____
ROOT
ATOM      1  N   UNL     1      34.383 -23.671 -14.900  0.00  0.00    -0.326 NA
ATOM      2  N   UNL     1      36.632 -23.328 -15.500  0.00  0.00    -0.271 N 
ATOM      3  N   UNL     1      32.599 -22.926 -16.338  0.00  0.00    -0.345 NA
ATOM      4  N   UNL     1      37.898 -25.962 -13.626  0.00  0.00    -0.239 N 
ATOM      5  N   UNL     1      36.824 -25.365 -14.169  0.00  0.00    -0.166 NA
ATOM      6  C   UNL     1      34.879 -22.556 -16.986  0.00  0.00    +0.072 C 
ATOM      7  C   UNL     1      33.091 -23.512 -15.228  0.00  0.00    +0.146 C 
ATOM      8  C   UNL     1      35.255 -23.183 -15.802  0.00  0.00    +0.199 C 
ATOM      9  C   UNL     1      33.497 -22.448 -17.218  0.00  0.00    +0.129 C 
ATOM     10  C   UNL     1      35.808 -22.053 -17.912  0.00  0.00    +0.006 C 
ATOM     11  C   UNL     1      33.082 -21.827 -18.394  0.00  0.00    +0.086 C 
ATOM     12  C   UNL     1      37.346 -24.294 -14.773  0.00  0.00    +0.152 C 
ATOM     13  C   UNL     1      35.366 -21.437 -19.079  0.00  0.00    -0.004 C 
ATOM     14  C   UNL     1      34.001 -21.325 -19.319  0.00  0.00    -0.019 C 
ATOM     15  C   UNL     1      38.742 -24.208 -14.617  0.00  0.00    +0.048 C 
ATOM     16  C   UNL     1      39.071 -25.309 -13.865  0.00  0.00    +0.046 C 
ATOM     17  C   UNL     1      40.361 -25.802 -13.354  0.00  0.00    +0.049 C 
ATOM     18  H   UNL     1      37.198 -22.613 -15.871  0.00  0.00    +0.156 HD
ATOM     19  H   UNL     1      37.842 -26.795 -13.103  0.00  0.00    +0.174 HD
ENDROOT
BRANCH   7  20
ATOM     20  C   UNL     1      32.088 -24.039 -14.257  0.00  0.00    +0.243 C 
BRANCH  20  22
ATOM     21  F   UNL     1      26.737 -22.846 -15.638  0.00  0.00    -0.204 F 
ATOM     22  C   UNL     1      30.645 -23.718 -14.629  0.00  0.00    +0.021 C 
ATOM     23  C   UNL     1      29.886 -24.645 -15.344  0.00  0.00    +0.001 C 
ATOM     24  C   UNL     1      30.084 -22.496 -14.257  0.00  0.00    +0.001 C 
ATOM     25  C   UNL     1      28.566 -24.351 -15.684  0.00  0.00    +0.029 C 
ATOM     26  C   UNL     1      28.764 -22.201 -14.598  0.00  0.00    +0.029 C 
ATOM     27  C   UNL     1      28.005 -23.129 -15.311  0.00  0.00    +0.140 C 
ENDBRANCH  20  22
BRANCH  20  28
ATOM     28  O   UNL     1      32.221 -25.457 -14.053  0.00  0.00    -0.366 OA
ATOM     29  H   UNL     1      32.416 -25.633 -13.119  0.00  0.00    +0.212 HD
ENDBRANCH  20  28
ENDBRANCH   7  20
TORSDOF 3
ENDMDL
MODEL 9
REMARK VINA RESULT:     -10.4      2.689      5.532
REMARK  Name = 46892373
REMARK  3 active torsions:
REMARK  status: ('A' for Active; 'I' for Inactive)
REMARK    1  A    between atoms: C_7  and  C_20
REMARK    2  A    between atoms: C_20  and  C_22
REMARK    3  A    between atoms: C_20  and  O_28
REMARK                            x       y       z     vdW  Elec       q    Type
REMARK                         _______ _______ _______ _____ _____    ______ ____
ROOT
ATOM      1  N   UNL     1      33.278 -23.386 -14.747  0.00  0.00    -0.326 NA
ATOM      2  N   UNL     1      32.308 -22.507 -16.703  0.00  0.00    -0.271 N 
ATOM      3  N   UNL     1      31.993 -24.773 -13.253  0.00  0.00    -0.345 NA
ATOM      4  N   UNL     1      35.291 -22.162 -18.445  0.00  0.00    -0.239 N 
ATOM      5  N   UNL     1      34.640 -22.697 -17.399  0.00  0.00    -0.166 NA
ATOM      6  C   UNL     1      30.966 -23.896 -15.236  0.00  0.00    +0.072 C 
ATOM      7  C   UNL     1      33.114 -24.134 -13.645  0.00  0.00    +0.146 C 
ATOM      8  C   UNL     1      32.184 -23.287 -15.525  0.00  0.00    +0.199 C 
ATOM      9  C   UNL     1      30.918 -24.651 -14.053  0.00  0.00    +0.129 C 
ATOM     10  C   UNL     1      29.837 -23.776 -16.063  0.00  0.00    +0.006 C 
ATOM     11  C   UNL     1      29.716 -25.277 -13.729  0.00  0.00    +0.086 C 
ATOM     12  C   UNL     1      33.396 -22.234 -17.548  0.00  0.00    +0.152 C 
ATOM     13  C   UNL     1      28.649 -24.411 -15.716  0.00  0.00    -0.004 C 
ATOM     14  C   UNL     1      28.589 -25.163 -14.548  0.00  0.00    -0.019 C 
ATOM     15  C   UNL     1      33.253 -21.411 -18.680  0.00  0.00    +0.048 C 
ATOM     16  C   UNL     1      34.506 -21.383 -19.243  0.00  0.00    +0.046 C 
ATOM     17  C   UNL     1      35.031 -20.706 -20.439  0.00  0.00    +0.049 C 
ATOM     18  H   UNL     1      31.470 -22.073 -16.981  0.00  0.00    +0.156 HD
ATOM     19  H   UNL     1      36.248 -22.317 -18.619  0.00  0.00    +0.174 HD
ENDROOT
BRANCH   7  20
ATOM     20  C   UNL     1      34.301 -24.273 -12.752  0.00  0.00    +0.243 C 
BRANCH  20  22
ATOM     21  F   UNL     1      39.248 -23.776 -15.443  0.00  0.00    -0.204 F 
ATOM     22  C   UNL     1      35.635 -24.139 -13.478  0.00  0.00    +0.021 C 
ATOM     23  C   UNL     1      36.453 -25.256 -13.644  0.00  0.00    +0.001 C 
ATOM     24  C   UNL     1      36.038 -22.900 -13.974  0.00  0.00    +0.001 C 
ATOM     25  C   UNL     1      37.674 -25.134 -14.309  0.00  0.00    +0.029 C 
ATOM     26  C   UNL     1      37.259 -22.776 -14.638  0.00  0.00    +0.029 C 
ATOM     27  C   UNL     1      38.077 -23.895 -14.805  0.00  0.00    +0.140 C 
ENDBRANCH  20  22
BRANCH  20  28
ATOM     28  O   UNL     1      34.266 -23.348 -11.650  0.00  0.00    -0.366 OA
ATOM     29  H   UNL     1      34.925 -22.651 -11.791  0.00  0.00    +0.212 HD
ENDBRANCH  20  28
ENDBRANCH   7  20
TORSDOF 3
ENDMDL
