MODEL 1
REMARK VINA RESULT:     -11.7      0.000      0.000
REMARK  Name = 4470378
REMARK  6 active torsions:
REMARK  status: ('A' for Active; 'I' for Inactive)
REMARK    1  A    between atoms: C_5  and  O_10
REMARK    2  A    between atoms: C_6  and  O_24
REMARK    3  A    between atoms: O_10  and  C_11
REMARK    4  A    between atoms: C_12  and  C_19
REMARK    5  A    between atoms: O_24  and  C_25
REMARK    6  A    between atoms: C_26  and  C_33
REMARK                            x       y       z     vdW  Elec       q    Type
REMARK                         _______ _______ _______ _____ _____    ______ ____
ROOT
ATOM      1  F   UNL     1      31.824 -23.442 -16.992  0.00  0.00    -0.221 F 
ATOM      2  F   UNL     1      34.004 -22.917 -12.801  0.00  0.00    -0.199 F 
ATOM      3  N   UNL     1      35.324 -22.940 -16.180  0.00  0.00    -0.331 NA
ATOM      4  C   UNL     1      32.866 -23.185 -14.870  0.00  0.00    +0.031 C 
ATOM      5  C   UNL     1      34.170 -23.129 -16.859  0.00  0.00    +0.298 C 
ATOM      6  C   UNL     1      35.212 -22.878 -14.841  0.00  0.00    +0.312 C 
ATOM      7  C   UNL     1      32.928 -23.256 -16.258  0.00  0.00    +0.270 C 
ATOM      8  C   UNL     1      34.032 -22.991 -14.137  0.00  0.00    +0.201 C 
ATOM      9  C   UNL     1      31.556 -23.317 -14.172  0.00  0.00    +0.032 C 
ENDROOT
BRANCH   5  10
ATOM     10  O   UNL     1      34.258 -23.197 -18.224  0.00  0.00    -0.428 OA
BRANCH  10  11
ATOM     11  C   UNL     1      34.120 -22.018 -18.928  0.00  0.00    +0.148 C 
ATOM     12  C   UNL     1      35.113 -20.130 -20.026  0.00  0.00    +0.032 C 
ATOM     13  C   UNL     1      35.254 -21.322 -19.314  0.00  0.00    +0.040 C 
ATOM     14  C   UNL     1      32.851 -21.557 -19.235  0.00  0.00    +0.038 C 
ATOM     15  C   UNL     1      33.842 -19.652 -20.342  0.00  0.00    +0.003 C 
ATOM     16  C   UNL     1      32.710 -20.365 -19.946  0.00  0.00    +0.003 C 
BRANCH  12  19
ATOM     17  N   UNL     1      36.252 -18.610 -21.530  0.00  0.00    -0.387 N 
ATOM     18  N   UNL     1      37.426 -19.475 -19.730  0.00  0.00    -0.345 N 
ATOM     19  C   UNL     1      36.286 -19.390 -20.436  0.00  0.00    +0.096 C 
ATOM     20  H   UNL     1      37.055 -18.110 -21.803  0.00  0.00    +0.157 HD
ATOM     21  H   UNL     1      35.424 -18.539 -22.058  0.00  0.00    +0.157 HD
ATOM     22  H   UNL     1      38.221 -18.969 -20.016  0.00  0.00    +0.144 HD
ATOM     23  H   UNL     1      37.467 -20.044 -18.927  0.00  0.00    +0.144 HD
ENDBRANCH  12  19
ENDBRANCH  10  11
ENDBRANCH   5  10
BRANCH   6  24
ATOM     24  O   UNL     1      36.388 -22.687 -14.134  0.00  0.00    -0.426 OA
BRANCH  24  25
ATOM     25  C   UNL     1      36.997 -23.785 -13.611  0.00  0.00    +0.148 C 
ATOM     26  C   UNL     1      38.782 -25.413 -13.667  0.00  0.00    +0.034 C 
ATOM     27  C   UNL     1      38.157 -24.287 -14.202  0.00  0.00    +0.040 C 
ATOM     28  C   UNL     1      36.461 -24.411 -12.486  0.00  0.00    +0.038 C 
ATOM     29  C   UNL     1      38.245 -26.039 -12.541  0.00  0.00    +0.003 C 
ATOM     30  C   UNL     1      37.085 -25.538 -11.951  0.00  0.00    +0.003 C 
BRANCH  26  33
ATOM     31  N   UNL     1      40.913 -26.681 -13.550  0.00  0.00    -0.343 N 
ATOM     32  N   UNL     1      40.234 -25.701 -15.559  0.00  0.00    -0.285 NA
ATOM     33  C   UNL     1      39.991 -25.936 -14.282  0.00  0.00    +0.117 C 
ATOM     34  H   UNL     1      41.725 -27.026 -13.986  0.00  0.00    +0.144 HD
ATOM     35  H   UNL     1      40.752 -26.865 -12.596  0.00  0.00    +0.144 HD
ATOM     36  H   UNL     1      41.052 -26.054 -15.977  0.00  0.00    +0.188 HD
ENDBRANCH  26  33
ENDBRANCH  24  25
ENDBRANCH   6  24
TORSDOF 6
ENDMDL
MODEL 2
REMARK VINA RESULT:     -11.5      0.484      7.599
REMARK  Name = 4470378
REMARK  6 active torsions:
REMARK  status: ('A' for Active; 'I' for Inactive)
REMARK    1  A    between atoms: C_5  and  O_10
REMARK    2  A    between atoms: C_6  and  O_24
REMARK    3  A    between atoms: O_10  and  C_11
REMARK    4  A    between atoms: C_12  and  C_19
REMARK    5  A    between atoms: O_24  and  C_25
REMARK    6  A    between atoms: C_26  and  C_33
REMARK                            x       y       z     vdW  Elec       q    Type
REMARK                         _______ _______ _______ _____ _____    ______ ____
ROOT
ATOM      1  F   UNL     1      33.497 -23.107 -13.068  0.00  0.00    -0.221 F 
ATOM      2  F   UNL     1      32.306 -23.441 -17.657  0.00  0.00    -0.199 F 
ATOM      3  N   UNL     1      35.495 -22.743 -16.074  0.00  0.00    -0.331 NA
ATOM      4  C   UNL     1      32.850 -23.284 -15.348  0.00  0.00    +0.031 C 
ATOM      5  C   UNL     1      35.109 -22.800 -14.780  0.00  0.00    +0.298 C 
ATOM      6  C   UNL     1      34.529 -22.961 -16.984  0.00  0.00    +0.312 C 
ATOM      7  C   UNL     1      33.812 -23.065 -14.368  0.00  0.00    +0.270 C 
ATOM      8  C   UNL     1      33.210 -23.233 -16.691  0.00  0.00    +0.201 C 
ATOM      9  C   UNL     1      31.440 -23.572 -14.962  0.00  0.00    +0.032 C 
ENDROOT
BRANCH   5  10
ATOM     10  O   UNL     1      36.074 -22.580 -13.834  0.00  0.00    -0.428 OA
BRANCH  10  11
ATOM     11  C   UNL     1      36.753 -23.680 -13.351  0.00  0.00    +0.148 C 
ATOM     12  C   UNL     1      38.596 -25.210 -13.501  0.00  0.00    +0.032 C 
ATOM     13  C   UNL     1      37.910 -24.096 -13.989  0.00  0.00    +0.040 C 
ATOM     14  C   UNL     1      36.263 -24.344 -12.238  0.00  0.00    +0.038 C 
ATOM     15  C   UNL     1      38.115 -25.889 -12.382  0.00  0.00    +0.003 C 
ATOM     16  C   UNL     1      36.948 -25.457 -11.750  0.00  0.00    +0.003 C 
BRANCH  12  19
ATOM     17  N   UNL     1      40.150 -25.169 -15.358  0.00  0.00    -0.387 N 
ATOM     18  N   UNL     1      40.597 -26.572 -13.570  0.00  0.00    -0.345 N 
ATOM     19  C   UNL     1      39.804 -25.658 -14.155  0.00  0.00    +0.096 C 
ATOM     20  H   UNL     1      40.974 -25.479 -15.797  0.00  0.00    +0.157 HD
ATOM     21  H   UNL     1      39.579 -24.499 -15.800  0.00  0.00    +0.157 HD
ATOM     22  H   UNL     1      41.418 -26.874 -14.022  0.00  0.00    +0.144 HD
ATOM     23  H   UNL     1      40.356 -26.941 -12.690  0.00  0.00    +0.144 HD
ENDBRANCH  12  19
ENDBRANCH  10  11
ENDBRANCH   5  10
BRANCH   6  24
ATOM     24  O   UNL     1      34.913 -22.903 -18.313  0.00  0.00    -0.426 OA
BRANCH  24  25
ATOM     25  C   UNL     1      34.589 -21.784 -19.016  0.00  0.00    +0.148 C 
ATOM     26  C   UNL     1      35.264 -19.820 -20.252  0.00  0.00    +0.034 C 
ATOM     27  C   UNL     1      35.596 -20.968 -19.532  0.00  0.00    +0.040 C 
ATOM     28  C   UNL     1      33.249 -21.451 -19.220  0.00  0.00    +0.038 C 
ATOM     29  C   UNL     1      33.925 -19.487 -20.455  0.00  0.00    +0.003 C 
ATOM     30  C   UNL     1      32.917 -20.304 -19.940  0.00  0.00    +0.003 C 
BRANCH  26  33
ATOM     31  N   UNL     1      36.061 -18.074 -21.827  0.00  0.00    -0.343 N 
ATOM     32  N   UNL     1      37.537 -19.042 -20.295  0.00  0.00    -0.285 NA
ATOM     33  C   UNL     1      36.314 -18.969 -20.789  0.00  0.00    +0.117 C 
ATOM     34  H   UNL     1      36.786 -17.507 -22.175  0.00  0.00    +0.144 HD
ATOM     35  H   UNL     1      35.157 -18.007 -22.211  0.00  0.00    +0.144 HD
ATOM     36  H   UNL     1      38.249 -18.466 -20.658  0.00  0.00    +0.188 HD
ENDBRANCH  26  33
ENDBRANCH  24  25
ENDBRANCH   6  24
TORSDOF 6
ENDMDL
MODEL 3
REMARK VINA RESULT:     -11.3      5.769      9.117
REMARK  Name = 4470378
REMARK  6 active torsions:
REMARK  status: ('A' for Active; 'I' for Inactive)
REMARK    1  A    between atoms: C_5  and  O_10
REMARK    2  A    between atoms: C_6  and  O_24
REMARK    3  A    between atoms: O_10  and  C_11
REMARK    4  A    between atoms: C_12  and  C_19
REMARK    5  A    between atoms: O_24  and  C_25
REMARK    6  A    between atoms: C_26  and  C_33
REMARK                            x       y       z     vdW  Elec       q    Type
REMARK                         _______ _______ _______ _____ _____    ______ ____
ROOT
ATOM      1  F   UNL     1      33.878 -14.966 -24.156  0.00  0.00    -0.221 F 
ATOM      2  F   UNL     1      34.686 -19.624 -23.662  0.00  0.00    -0.199 F 
ATOM      3  N   UNL     1      35.664 -16.809 -21.592  0.00  0.00    -0.331 NA
ATOM      4  C   UNL     1      34.255 -17.304 -23.955  0.00  0.00    +0.031 C 
ATOM      5  C   UNL     1      35.109 -15.810 -22.314  0.00  0.00    +0.298 C 
ATOM      6  C   UNL     1      35.495 -18.050 -22.083  0.00  0.00    +0.312 C 
ATOM      7  C   UNL     1      34.401 -16.002 -23.489  0.00  0.00    +0.270 C 
ATOM      8  C   UNL     1      34.812 -18.360 -23.240  0.00  0.00    +0.201 C 
ATOM      9  C   UNL     1      33.505 -17.569 -25.216  0.00  0.00    +0.032 C 
ENDROOT
BRANCH   5  10
ATOM     10  O   UNL     1      35.268 -14.536 -21.835  0.00  0.00    -0.428 OA
BRANCH  10  11
ATOM     11  C   UNL     1      34.142 -13.885 -21.375  0.00  0.00    +0.148 C 
ATOM     12  C   UNL     1      32.659 -12.001 -21.454  0.00  0.00    +0.032 C 
ATOM     13  C   UNL     1      33.797 -12.659 -21.920  0.00  0.00    +0.040 C 
ATOM     14  C   UNL     1      33.381 -14.471 -20.377  0.00  0.00    +0.038 C 
ATOM     15  C   UNL     1      31.882 -12.578 -20.449  0.00  0.00    +0.003 C 
ATOM     16  C   UNL     1      32.243 -13.813 -19.910  0.00  0.00    +0.003 C 
BRANCH  12  19
ATOM     17  N   UNL     1      32.976 -10.197 -23.038  0.00  0.00    -0.387 N 
ATOM     18  N   UNL     1      31.242 -10.037 -21.510  0.00  0.00    -0.345 N 
ATOM     19  C   UNL     1      32.284 -10.721 -22.012  0.00  0.00    +0.096 C 
ATOM     20  H   UNL     1      32.715  -9.325 -23.413  0.00  0.00    +0.157 HD
ATOM     21  H   UNL     1      33.743 -10.685 -23.416  0.00  0.00    +0.157 HD
ATOM     22  H   UNL     1      30.994  -9.165 -21.895  0.00  0.00    +0.144 HD
ATOM     23  H   UNL     1      30.727 -10.408 -20.757  0.00  0.00    +0.144 HD
ENDBRANCH  12  19
ENDBRANCH  10  11
ENDBRANCH   5  10
BRANCH   6  24
ATOM     24  O   UNL     1      36.060 -19.082 -21.353  0.00  0.00    -0.426 OA
BRANCH  24  25
ATOM     25  C   UNL     1      35.240 -19.812 -20.550  0.00  0.00    +0.148 C 
ATOM     26  C   UNL     1      34.937 -21.331 -18.695  0.00  0.00    +0.034 C 
ATOM     27  C   UNL     1      35.778 -20.581 -19.517  0.00  0.00    +0.040 C 
ATOM     28  C   UNL     1      33.861 -19.793 -20.759  0.00  0.00    +0.038 C 
ATOM     29  C   UNL     1      33.558 -21.312 -18.905  0.00  0.00    +0.003 C 
ATOM     30  C   UNL     1      33.020 -20.543 -19.937  0.00  0.00    +0.003 C 
BRANCH  26  33
ATOM     31  N   UNL     1      36.826 -21.987 -17.224  0.00  0.00    -0.343 N 
ATOM     32  N   UNL     1      34.744 -23.023 -16.999  0.00  0.00    -0.285 NA
ATOM     33  C   UNL     1      35.498 -22.132 -17.618  0.00  0.00    +0.117 C 
ATOM     34  H   UNL     1      37.186 -22.539 -16.493  0.00  0.00    +0.144 HD
ATOM     35  H   UNL     1      37.406 -21.330 -17.675  0.00  0.00    +0.144 HD
ATOM     36  H   UNL     1      35.122 -23.566 -16.271  0.00  0.00    +0.188 HD
ENDBRANCH  26  33
ENDBRANCH  24  25
ENDBRANCH   6  24
TORSDOF 6
ENDMDL
MODEL 4
REMARK VINA RESULT:     -11.1      3.156      5.457
REMARK  Name = 4470378
REMARK  6 active torsions:
REMARK  status: ('A' for Active; 'I' for Inactive)
REMARK    1  A    between atoms: C_5  and  O_10
REMARK    2  A    between atoms: C_6  and  O_24
REMARK    3  A    between atoms: O_10  and  C_11
REMARK    4  A    between atoms: C_12  and  C_19
REMARK    5  A    between atoms: O_24  and  C_25
REMARK    6  A    between atoms: C_26  and  C_33
REMARK                            x       y       z     vdW  Elec       q    Type
REMARK                         _______ _______ _______ _____ _____    ______ ____
ROOT
ATOM      1  F   UNL     1      33.492 -22.555 -19.023  0.00  0.00    -0.221 F 
ATOM      2  F   UNL     1      37.558 -20.801 -17.296  0.00  0.00    -0.199 F 
ATOM      3  N   UNL     1      35.149 -23.090 -15.840  0.00  0.00    -0.331 NA
ATOM      4  C   UNL     1      35.533 -21.650 -18.205  0.00  0.00    +0.031 C 
ATOM      5  C   UNL     1      34.264 -23.147 -16.861  0.00  0.00    +0.298 C 
ATOM      6  C   UNL     1      36.219 -22.299 -16.036  0.00  0.00    +0.312 C 
ATOM      7  C   UNL     1      34.408 -22.454 -18.052  0.00  0.00    +0.270 C 
ATOM      8  C   UNL     1      36.466 -21.565 -17.176  0.00  0.00    +0.201 C 
ATOM      9  C   UNL     1      35.737 -20.880 -19.465  0.00  0.00    +0.032 C 
ENDROOT
BRANCH   5  10
ATOM     10  O   UNL     1      33.165 -23.945 -16.685  0.00  0.00    -0.428 OA
BRANCH  10  11
ATOM     11  C   UNL     1      32.201 -23.511 -15.798  0.00  0.00    +0.148 C 
ATOM     12  C   UNL     1      29.922 -22.914 -15.341  0.00  0.00    +0.032 C 
ATOM     13  C   UNL     1      30.897 -23.354 -16.238  0.00  0.00    +0.040 C 
ATOM     14  C   UNL     1      32.558 -23.240 -14.487  0.00  0.00    +0.038 C 
ATOM     15  C   UNL     1      30.266 -22.638 -14.018  0.00  0.00    +0.003 C 
ATOM     16  C   UNL     1      31.584 -22.800 -13.591  0.00  0.00    +0.003 C 
BRANCH  12  19
ATOM     17  N   UNL     1      28.190 -23.118 -17.022  0.00  0.00    -0.387 N 
ATOM     18  N   UNL     1      27.636 -22.210 -14.964  0.00  0.00    -0.345 N 
ATOM     19  C   UNL     1      28.556 -22.745 -15.783  0.00  0.00    +0.096 C 
ATOM     20  H   UNL     1      27.258 -22.999 -17.316  0.00  0.00    +0.157 HD
ATOM     21  H   UNL     1      28.854 -23.510 -17.634  0.00  0.00    +0.157 HD
ATOM     22  H   UNL     1      26.707 -22.097 -15.272  0.00  0.00    +0.144 HD
ATOM     23  H   UNL     1      27.889 -21.931 -14.054  0.00  0.00    +0.144 HD
ENDBRANCH  12  19
ENDBRANCH  10  11
ENDBRANCH   5  10
BRANCH   6  24
ATOM     24  O   UNL     1      37.132 -22.232 -14.996  0.00  0.00    -0.426 OA
BRANCH  24  25
ATOM     25  C   UNL     1      37.221 -23.303 -14.163  0.00  0.00    +0.148 C 
ATOM     26  C   UNL     1      36.798 -24.325 -12.014  0.00  0.00    +0.034 C 
ATOM     27  C   UNL     1      36.705 -23.226 -12.869  0.00  0.00    +0.040 C 
ATOM     28  C   UNL     1      37.830 -24.479 -14.602  0.00  0.00    +0.038 C 
ATOM     29  C   UNL     1      37.407 -25.500 -12.453  0.00  0.00    +0.003 C 
ATOM     30  C   UNL     1      37.923 -25.577 -13.747  0.00  0.00    +0.003 C 
BRANCH  26  33
ATOM     31  N   UNL     1      36.688 -23.263  -9.773  0.00  0.00    -0.343 N 
ATOM     32  N   UNL     1      35.352 -25.116 -10.265  0.00  0.00    -0.285 NA
ATOM     33  C   UNL     1      36.260 -24.244 -10.665  0.00  0.00    +0.117 C 
ATOM     34  H   UNL     1      36.311 -23.226  -8.864  0.00  0.00    +0.144 HD
ATOM     35  H   UNL     1      37.366 -22.605 -10.051  0.00  0.00    +0.144 HD
ATOM     36  H   UNL     1      34.987 -25.062  -9.353  0.00  0.00    +0.188 HD
ENDBRANCH  26  33
ENDBRANCH  24  25
ENDBRANCH   6  24
TORSDOF 6
ENDMDL
MODEL 5
REMARK VINA RESULT:     -11.0      5.739     11.274
REMARK  Name = 4470378
REMARK  6 active torsions:
REMARK  status: ('A' for Active; 'I' for Inactive)
REMARK    1  A    between atoms: C_5  and  O_10
REMARK    2  A    between atoms: C_6  and  O_24
REMARK    3  A    between atoms: O_10  and  C_11
REMARK    4  A    between atoms: C_12  and  C_19
REMARK    5  A    between atoms: O_24  and  C_25
REMARK    6  A    between atoms: C_26  and  C_33
REMARK                            x       y       z     vdW  Elec       q    Type
REMARK                         _______ _______ _______ _____ _____    ______ ____
ROOT
ATOM      1  F   UNL     1      34.711 -19.640 -23.640  0.00  0.00    -0.221 F 
ATOM      2  F   UNL     1      33.983 -14.972 -24.155  0.00  0.00    -0.199 F 
ATOM      3  N   UNL     1      35.631 -16.844 -21.520  0.00  0.00    -0.331 NA
ATOM      4  C   UNL     1      34.321 -17.315 -23.944  0.00  0.00    +0.031 C 
ATOM      5  C   UNL     1      35.473 -18.093 -22.014  0.00  0.00    +0.298 C 
ATOM      6  C   UNL     1      35.119 -15.849 -22.267  0.00  0.00    +0.312 C 
ATOM      7  C   UNL     1      34.833 -18.379 -23.209  0.00  0.00    +0.270 C 
ATOM      8  C   UNL     1      34.464 -16.016 -23.469  0.00  0.00    +0.201 C 
ATOM      9  C   UNL     1      33.622 -17.566 -25.237  0.00  0.00    +0.032 C 
ENDROOT
BRANCH   5  10
ATOM     10  O   UNL     1      35.984 -19.123 -21.271  0.00  0.00    -0.428 OA
BRANCH  10  11
ATOM     11  C   UNL     1      35.102 -19.842 -20.491  0.00  0.00    +0.148 C 
ATOM     12  C   UNL     1      34.699 -21.351 -18.669  0.00  0.00    +0.032 C 
ATOM     13  C   UNL     1      35.592 -20.623 -19.457  0.00  0.00    +0.040 C 
ATOM     14  C   UNL     1      33.745 -19.769 -20.759  0.00  0.00    +0.038 C 
ATOM     15  C   UNL     1      33.330 -21.287 -18.927  0.00  0.00    +0.003 C 
ATOM     16  C   UNL     1      32.852 -20.497 -19.973  0.00  0.00    +0.003 C 
BRANCH  12  19
ATOM     17  N   UNL     1      34.370 -23.013 -16.938  0.00  0.00    -0.387 N 
ATOM     18  N   UNL     1      36.481 -22.100 -17.211  0.00  0.00    -0.345 N 
ATOM     19  C   UNL     1      35.193 -22.171 -17.586  0.00  0.00    +0.096 C 
ATOM     20  H   UNL     1      34.714 -23.568 -16.201  0.00  0.00    +0.157 HD
ATOM     21  H   UNL     1      33.422 -23.075 -17.201  0.00  0.00    +0.157 HD
ATOM     22  H   UNL     1      36.810 -22.661 -16.471  0.00  0.00    +0.144 HD
ATOM     23  H   UNL     1      37.096 -21.487 -17.675  0.00  0.00    +0.144 HD
ENDBRANCH  12  19
ENDBRANCH  10  11
ENDBRANCH   5  10
BRANCH   6  24
ATOM     24  O   UNL     1      35.273 -14.566 -21.770  0.00  0.00    -0.426 OA
BRANCH  24  25
ATOM     25  C   UNL     1      34.161 -13.926 -21.317  0.00  0.00    +0.148 C 
ATOM     26  C   UNL     1      32.655 -12.038 -21.396  0.00  0.00    +0.034 C 
ATOM     27  C   UNL     1      33.794 -12.695 -21.862  0.00  0.00    +0.040 C 
ATOM     28  C   UNL     1      33.390 -14.499 -20.306  0.00  0.00    +0.038 C 
ATOM     29  C   UNL     1      31.883 -12.611 -20.385  0.00  0.00    +0.003 C 
ATOM     30  C   UNL     1      32.251 -13.842 -19.840  0.00  0.00    +0.003 C 
BRANCH  26  33
ATOM     31  N   UNL     1      32.969 -10.201 -23.036  0.00  0.00    -0.343 N 
ATOM     32  N   UNL     1      31.248 -10.090 -21.459  0.00  0.00    -0.285 NA
ATOM     33  C   UNL     1      32.272 -10.755 -21.964  0.00  0.00    +0.117 C 
ATOM     34  H   UNL     1      32.693  -9.331 -23.405  0.00  0.00    +0.144 HD
ATOM     35  H   UNL     1      33.737 -10.679 -23.425  0.00  0.00    +0.144 HD
ATOM     36  H   UNL     1      30.988  -9.222 -21.842  0.00  0.00    +0.188 HD
ENDBRANCH  26  33
ENDBRANCH  24  25
ENDBRANCH   6  24
TORSDOF 6
ENDMDL
MODEL 6
REMARK VINA RESULT:     -10.9      1.516      2.132
REMARK  Name = 4470378
REMARK  6 active torsions:
REMARK  status: ('A' for Active; 'I' for Inactive)
REMARK    1  A    between atoms: C_5  and  O_10
REMARK    2  A    between atoms: C_6  and  O_24
REMARK    3  A    between atoms: O_10  and  C_11
REMARK    4  A    between atoms: C_12  and  C_19
REMARK    5  A    between atoms: O_24  and  C_25
REMARK    6  A    between atoms: C_26  and  C_33
REMARK                            x       y       z     vdW  Elec       q    Type
REMARK                         _______ _______ _______ _____ _____    ______ ____
ROOT
ATOM      1  F   UNL     1      30.848 -22.060 -17.282  0.00  0.00    -0.221 F 
ATOM      2  F   UNL     1      32.385 -23.815 -13.141  0.00  0.00    -0.199 F 
ATOM      3  N   UNL     1      33.948 -23.733 -16.413  0.00  0.00    -0.331 NA
ATOM      4  C   UNL     1      31.570 -22.922 -15.187  0.00  0.00    +0.031 C 
ATOM      5  C   UNL     1      32.970 -23.102 -17.102  0.00  0.00    +0.298 C 
ATOM      6  C   UNL     1      33.702 -23.945 -15.108  0.00  0.00    +0.312 C 
ATOM      7  C   UNL     1      31.776 -22.680 -16.541  0.00  0.00    +0.270 C 
ATOM      8  C   UNL     1      32.553 -23.570 -14.446  0.00  0.00    +0.201 C 
ATOM      9  C   UNL     1      30.302 -22.491 -14.533  0.00  0.00    +0.032 C 
ENDROOT
BRANCH   5  10
ATOM     10  O   UNL     1      33.196 -22.876 -18.434  0.00  0.00    -0.428 OA
BRANCH  10  11
ATOM     11  C   UNL     1      34.249 -22.049 -18.768  0.00  0.00    +0.148 C 
ATOM     12  C   UNL     1      35.099 -20.165 -19.987  0.00  0.00    +0.032 C 
ATOM     13  C   UNL     1      34.034 -21.001 -19.648  0.00  0.00    +0.040 C 
ATOM     14  C   UNL     1      35.498 -22.285 -18.217  0.00  0.00    +0.038 C 
ATOM     15  C   UNL     1      36.362 -20.389 -19.440  0.00  0.00    +0.003 C 
ATOM     16  C   UNL     1      36.562 -21.449 -18.555  0.00  0.00    +0.003 C 
BRANCH  12  19
ATOM     17  N   UNL     1      34.484 -19.298 -22.163  0.00  0.00    -0.387 N 
ATOM     18  N   UNL     1      35.109 -17.800 -20.510  0.00  0.00    -0.345 N 
ATOM     19  C   UNL     1      34.893 -19.067 -20.903  0.00  0.00    +0.096 C 
ATOM     20  H   UNL     1      34.346 -18.545 -22.781  0.00  0.00    +0.157 HD
ATOM     21  H   UNL     1      34.322 -20.221 -22.467  0.00  0.00    +0.157 HD
ATOM     22  H   UNL     1      34.967 -17.057 -21.140  0.00  0.00    +0.144 HD
ATOM     23  H   UNL     1      35.411 -17.615 -19.591  0.00  0.00    +0.144 HD
ENDBRANCH  12  19
ENDBRANCH  10  11
ENDBRANCH   5  10
BRANCH   6  24
ATOM     24  O   UNL     1      34.696 -24.592 -14.393  0.00  0.00    -0.426 OA
BRANCH  24  25
ATOM     25  C   UNL     1      35.980 -24.187 -14.586  0.00  0.00    +0.148 C 
ATOM     26  C   UNL     1      38.349 -24.665 -14.582  0.00  0.00    +0.034 C 
ATOM     27  C   UNL     1      37.032 -25.081 -14.384  0.00  0.00    +0.040 C 
ATOM     28  C   UNL     1      36.246 -22.877 -14.985  0.00  0.00    +0.038 C 
ATOM     29  C   UNL     1      38.615 -23.355 -14.980  0.00  0.00    +0.003 C 
ATOM     30  C   UNL     1      37.563 -22.461 -15.182  0.00  0.00    +0.003 C 
BRANCH  26  33
ATOM     31  N   UNL     1      39.596 -26.278 -13.164  0.00  0.00    -0.343 N 
ATOM     32  N   UNL     1      40.325 -25.807 -15.334  0.00  0.00    -0.285 NA
ATOM     33  C   UNL     1      39.445 -25.597 -14.371  0.00  0.00    +0.117 C 
ATOM     34  H   UNL     1      40.345 -26.904 -13.042  0.00  0.00    +0.144 HD
ATOM     35  H   UNL     1      38.952 -26.132 -12.433  0.00  0.00    +0.144 HD
ATOM     36  H   UNL     1      41.068 -26.438 -15.192  0.00  0.00    +0.188 HD
ENDBRANCH  26  33
ENDBRANCH  24  25
ENDBRANCH   6  24
TORSDOF 6
ENDMDL
MODEL 7
REMARK VINA RESULT:     -10.8      3.004      7.734
REMARK  Name = 4470378
REMARK  6 active torsions:
REMARK  status: ('A' for Active; 'I' for Inactive)
REMARK    1  A    between atoms: C_5  and  O_10
REMARK    2  A    between atoms: C_6  and  O_24
REMARK    3  A    between atoms: O_10  and  C_11
REMARK    4  A    between atoms: C_12  and  C_19
REMARK    5  A    between atoms: O_24  and  C_25
REMARK    6  A    between atoms: C_26  and  C_33
REMARK                            x       y       z     vdW  Elec       q    Type
REMARK                         _______ _______ _______ _____ _____    ______ ____
ROOT
ATOM      1  F   UNL     1      37.456 -20.435 -18.056  0.00  0.00    -0.221 F 
ATOM      2  F   UNL     1      33.273 -22.376 -19.207  0.00  0.00    -0.199 F 
ATOM      3  N   UNL     1      35.439 -22.920 -16.347  0.00  0.00    -0.331 NA
ATOM      4  C   UNL     1      35.363 -21.376 -18.677  0.00  0.00    +0.031 C 
ATOM      5  C   UNL     1      36.431 -22.056 -16.663  0.00  0.00    +0.298 C 
ATOM      6  C   UNL     1      34.420 -22.986 -17.223  0.00  0.00    +0.312 C 
ATOM      7  C   UNL     1      36.440 -21.270 -17.803  0.00  0.00    +0.270 C 
ATOM      8  C   UNL     1      34.324 -22.254 -18.386  0.00  0.00    +0.201 C 
ATOM      9  C   UNL     1      35.323 -20.554 -19.920  0.00  0.00    +0.032 C 
ENDROOT
BRANCH   5  10
ATOM     10  O   UNL     1      37.481 -21.971 -15.788  0.00  0.00    -0.428 OA
BRANCH  10  11
ATOM     11  C   UNL     1      37.565 -22.933 -14.802  0.00  0.00    +0.148 C 
ATOM     12  C   UNL     1      36.928 -23.742 -12.634  0.00  0.00    +0.032 C 
ATOM     13  C   UNL     1      36.841 -22.770 -13.632  0.00  0.00    +0.040 C 
ATOM     14  C   UNL     1      38.372 -24.040 -15.002  0.00  0.00    +0.038 C 
ATOM     15  C   UNL     1      37.736 -24.863 -12.822  0.00  0.00    +0.003 C 
ATOM     16  C   UNL     1      38.459 -25.012 -14.006  0.00  0.00    +0.003 C 
BRANCH  12  19
ATOM     17  N   UNL     1      34.837 -23.512 -11.433  0.00  0.00    -0.387 N 
ATOM     18  N   UNL     1      36.814 -23.516 -10.226  0.00  0.00    -0.345 N 
ATOM     19  C   UNL     1      36.179 -23.588 -11.408  0.00  0.00    +0.096 C 
ATOM     20  H   UNL     1      34.334 -23.406 -10.593  0.00  0.00    +0.157 HD
ATOM     21  H   UNL     1      34.357 -23.562 -12.292  0.00  0.00    +0.157 HD
ATOM     22  H   UNL     1      36.297 -23.409  -9.394  0.00  0.00    +0.144 HD
ATOM     23  H   UNL     1      37.797 -23.568 -10.191  0.00  0.00    +0.144 HD
ENDBRANCH  12  19
ENDBRANCH  10  11
ENDBRANCH   5  10
BRANCH   6  24
ATOM     24  O   UNL     1      33.399 -23.869 -16.911  0.00  0.00    -0.426 OA
BRANCH  24  25
ATOM     25  C   UNL     1      32.495 -23.482 -15.971  0.00  0.00    +0.148 C 
ATOM     26  C   UNL     1      30.235 -22.877 -15.366  0.00  0.00    +0.034 C 
ATOM     27  C   UNL     1      31.162 -23.275 -16.329  0.00  0.00    +0.040 C 
ATOM     28  C   UNL     1      32.899 -23.290 -14.650  0.00  0.00    +0.038 C 
ATOM     29  C   UNL     1      30.639 -22.685 -14.045  0.00  0.00    +0.003 C 
ATOM     30  C   UNL     1      31.972 -22.892 -13.687  0.00  0.00    +0.003 C 
BRANCH  26  33
ATOM     31  N   UNL     1      28.331 -23.161 -16.934  0.00  0.00    -0.343 N 
ATOM     32  N   UNL     1      28.048 -21.975 -14.941  0.00  0.00    -0.285 NA
ATOM     33  C   UNL     1      28.845 -22.661 -15.739  0.00  0.00    +0.117 C 
ATOM     34  H   UNL     1      27.388 -23.004 -17.168  0.00  0.00    +0.144 HD
ATOM     35  H   UNL     1      28.910 -23.673 -17.545  0.00  0.00    +0.144 HD
ATOM     36  H   UNL     1      27.108 -21.828 -15.192  0.00  0.00    +0.188 HD
ENDBRANCH  26  33
ENDBRANCH  24  25
ENDBRANCH   6  24
TORSDOF 6
ENDMDL
MODEL 8
REMARK VINA RESULT:     -10.8      2.510      3.042
REMARK  Name = 4470378
REMARK  6 active torsions:
REMARK  status: ('A' for Active; 'I' for Inactive)
REMARK    1  A    between atoms: C_5  and  O_10
REMARK    2  A    between atoms: C_6  and  O_24
REMARK    3  A    between atoms: O_10  and  C_11
REMARK    4  A    between atoms: C_12  and  C_19
REMARK    5  A    between atoms: O_24  and  C_25
REMARK    6  A    between atoms: C_26  and  C_33
REMARK                            x       y       z     vdW  Elec       q    Type
REMARK                         _______ _______ _______ _____ _____    ______ ____
ROOT
ATOM      1  F   UNL     1      30.559 -21.912 -16.926  0.00  0.00    -0.221 F 
ATOM      2  F   UNL     1      32.650 -24.491 -13.525  0.00  0.00    -0.199 F 
ATOM      3  N   UNL     1      33.771 -23.598 -16.858  0.00  0.00    -0.331 NA
ATOM      4  C   UNL     1      31.561 -23.194 -15.193  0.00  0.00    +0.031 C 
ATOM      5  C   UNL     1      32.702 -22.871 -17.255  0.00  0.00    +0.298 C 
ATOM      6  C   UNL     1      33.701 -24.111 -15.616  0.00  0.00    +0.312 C 
ATOM      7  C   UNL     1      31.584 -22.641 -16.469  0.00  0.00    +0.270 C 
ATOM      8  C   UNL     1      32.642 -23.948 -14.748  0.00  0.00    +0.201 C 
ATOM      9  C   UNL     1      30.383 -22.979 -14.305  0.00  0.00    +0.032 C 
ENDROOT
BRANCH   5  10
ATOM     10  O   UNL     1      32.748 -22.339 -18.517  0.00  0.00    -0.428 OA
BRANCH  10  11
ATOM     11  C   UNL     1      33.904 -21.684 -18.887  0.00  0.00    +0.148 C 
ATOM     12  C   UNL     1      35.004 -19.995 -20.189  0.00  0.00    +0.032 C 
ATOM     13  C   UNL     1      33.834 -20.657 -19.815  0.00  0.00    +0.040 C 
ATOM     14  C   UNL     1      35.111 -22.066 -18.324  0.00  0.00    +0.038 C 
ATOM     15  C   UNL     1      36.226 -20.368 -19.631  0.00  0.00    +0.003 C 
ATOM     16  C   UNL     1      36.280 -21.405 -18.698  0.00  0.00    +0.003 C 
BRANCH  12  19
ATOM     17  N   UNL     1      35.424 -17.702 -20.849  0.00  0.00    -0.387 N 
ATOM     18  N   UNL     1      34.420 -19.128 -22.374  0.00  0.00    -0.345 N 
ATOM     19  C   UNL     1      34.949 -18.922 -21.156  0.00  0.00    +0.096 C 
ATOM     20  H   UNL     1      35.382 -16.976 -21.512  0.00  0.00    +0.157 HD
ATOM     21  H   UNL     1      35.814 -17.535 -19.960  0.00  0.00    +0.157 HD
ATOM     22  H   UNL     1      34.385 -18.391 -23.027  0.00  0.00    +0.144 HD
ATOM     23  H   UNL     1      34.067 -20.015 -22.613  0.00  0.00    +0.144 HD
ENDBRANCH  12  19
ENDBRANCH  10  11
ENDBRANCH   5  10
BRANCH   6  24
ATOM     24  O   UNL     1      34.789 -24.859 -15.199  0.00  0.00    -0.426 OA
BRANCH  24  25
ATOM     25  C   UNL     1      35.648 -24.286 -14.313  0.00  0.00    +0.148 C 
ATOM     26  C   UNL     1      36.343 -23.883 -12.034  0.00  0.00    +0.034 C 
ATOM     27  C   UNL     1      35.464 -24.472 -12.943  0.00  0.00    +0.040 C 
ATOM     28  C   UNL     1      36.711 -23.510 -14.775  0.00  0.00    +0.038 C 
ATOM     29  C   UNL     1      37.407 -23.107 -12.496  0.00  0.00    +0.003 C 
ATOM     30  C   UNL     1      37.591 -22.922 -13.866  0.00  0.00    +0.003 C 
BRANCH  26  33
ATOM     31  N   UNL     1      36.754 -23.235  -9.673  0.00  0.00    -0.343 N 
ATOM     32  N   UNL     1      35.396 -25.070 -10.172  0.00  0.00    -0.285 NA
ATOM     33  C   UNL     1      36.151 -24.077 -10.606  0.00  0.00    +0.117 C 
ATOM     34  H   UNL     1      36.611 -23.384  -8.711  0.00  0.00    +0.144 HD
ATOM     35  H   UNL     1      37.324 -22.491  -9.976  0.00  0.00    +0.144 HD
ATOM     36  H   UNL     1      35.265 -25.202  -9.205  0.00  0.00    +0.188 HD
ENDBRANCH  26  33
ENDBRANCH  24  25
ENDBRANCH   6  24
TORSDOF 6
ENDMDL
MODEL 9
REMARK VINA RESULT:     -10.8      1.732      2.568
REMARK  Name = 4470378
REMARK  6 active torsions:
REMARK  status: ('A' for Active; 'I' for Inactive)
REMARK    1  A    between atoms: C_5  and  O_10
REMARK    2  A    between atoms: C_6  and  O_24
REMARK    3  A    between atoms: O_10  and  C_11
REMARK    4  A    between atoms: C_12  and  C_19
REMARK    5  A    between atoms: O_24  and  C_25
REMARK    6  A    between atoms: C_26  and  C_33
REMARK                            x       y       z     vdW  Elec       q    Type
REMARK                         _______ _______ _______ _____ _____    ______ ____
ROOT
ATOM      1  F   UNL     1      31.174 -22.568 -16.855  0.00  0.00    -0.221 F 
ATOM      2  F   UNL     1      31.247 -23.426 -12.180  0.00  0.00    -0.199 F 
ATOM      3  N   UNL     1      33.734 -24.042 -14.748  0.00  0.00    -0.331 NA
ATOM      4  C   UNL     1      31.160 -22.977 -14.513  0.00  0.00    +0.031 C 
ATOM      5  C   UNL     1      33.060 -23.563 -15.818  0.00  0.00    +0.298 C 
ATOM      6  C   UNL     1      33.088 -23.973 -13.571  0.00  0.00    +0.312 C 
ATOM      7  C   UNL     1      31.785 -23.025 -15.755  0.00  0.00    +0.270 C 
ATOM      8  C   UNL     1      31.822 -23.461 -13.389  0.00  0.00    +0.201 C 
ATOM      9  C   UNL     1      29.787 -22.410 -14.387  0.00  0.00    +0.032 C 
ENDROOT
BRANCH   5  10
ATOM     10  O   UNL     1      33.696 -23.623 -17.030  0.00  0.00    -0.428 OA
BRANCH  10  11
ATOM     11  C   UNL     1      34.764 -22.772 -17.229  0.00  0.00    +0.148 C 
ATOM     12  C   UNL     1      35.896 -21.146 -18.584  0.00  0.00    +0.032 C 
ATOM     13  C   UNL     1      34.815 -22.006 -18.382  0.00  0.00    +0.040 C 
ATOM     14  C   UNL     1      35.763 -22.702 -16.272  0.00  0.00    +0.038 C 
ATOM     15  C   UNL     1      36.909 -21.065 -17.629  0.00  0.00    +0.003 C 
ATOM     16  C   UNL     1      36.843 -21.844 -16.473  0.00  0.00    +0.003 C 
BRANCH  12  19
ATOM     17  N   UNL     1      36.986 -19.487 -19.971  0.00  0.00    -0.387 N 
ATOM     18  N   UNL     1      35.007 -20.430 -20.720  0.00  0.00    -0.345 N 
ATOM     19  C   UNL     1      35.965 -20.340 -19.781  0.00  0.00    +0.096 C 
ATOM     20  H   UNL     1      37.026 -18.941 -20.789  0.00  0.00    +0.157 HD
ATOM     21  H   UNL     1      37.695 -19.409 -19.292  0.00  0.00    +0.157 HD
ATOM     22  H   UNL     1      35.060 -19.877 -21.532  0.00  0.00    +0.144 HD
ATOM     23  H   UNL     1      34.252 -21.049 -20.594  0.00  0.00    +0.144 HD
ENDBRANCH  12  19
ENDBRANCH  10  11
ENDBRANCH   5  10
BRANCH   6  24
ATOM     24  O   UNL     1      33.768 -24.463 -12.468  0.00  0.00    -0.426 OA
BRANCH  24  25
ATOM     25  C   UNL     1      35.116 -24.285 -12.427  0.00  0.00    +0.148 C 
ATOM     26  C   UNL     1      37.328 -24.858 -13.212  0.00  0.00    +0.034 C 
ATOM     27  C   UNL     1      35.946 -25.040 -13.256  0.00  0.00    +0.040 C 
ATOM     28  C   UNL     1      35.670 -23.348 -11.553  0.00  0.00    +0.038 C 
ATOM     29  C   UNL     1      37.882 -23.922 -12.339  0.00  0.00    +0.003 C 
ATOM     30  C   UNL     1      37.052 -23.166 -11.510  0.00  0.00    +0.003 C 
BRANCH  26  33
ATOM     31  N   UNL     1      39.194 -25.047 -14.839  0.00  0.00    -0.343 N 
ATOM     32  N   UNL     1      38.032 -26.955 -14.153  0.00  0.00    -0.285 NA
ATOM     33  C   UNL     1      38.193 -25.646 -14.077  0.00  0.00    +0.117 C 
ATOM     34  H   UNL     1      39.768 -25.599 -15.418  0.00  0.00    +0.144 HD
ATOM     35  H   UNL     1      39.328 -24.073 -14.799  0.00  0.00    +0.144 HD
ATOM     36  H   UNL     1      38.616 -27.489 -14.738  0.00  0.00    +0.188 HD
ENDBRANCH  26  33
ENDBRANCH  24  25
ENDBRANCH   6  24
TORSDOF 6
ENDMDL
