MODEL 1
REMARK VINA RESULT:     -12.1      0.000      0.000
REMARK  Name = 5288250
REMARK  9 active torsions:
REMARK  status: ('A' for Active; 'I' for Inactive)
REMARK    1  A    between atoms: C_1  and  N_3
REMARK    2  A    between atoms: C_1  and  C_20
REMARK    3  A    between atoms: C_1  and  C_23
REMARK    4  A    between atoms: C_4  and  C_6
REMARK    5  A    between atoms: C_6  and  C_10
REMARK    6  A    between atoms: C_20  and  O_21
REMARK    7  A    between atoms: C_23  and  C_24
REMARK    8  A    between atoms: C_29  and  C_30
REMARK    9  A    between atoms: C_31  and  C_32
REMARK                            x       y       z     vdW  Elec       q    Type
REMARK                         _______ _______ _______ _____ _____    ______ ____
ROOT
ATOM      1  C   UNL     1      35.125 -21.919 -18.114  0.00  0.00    +0.176 C 
ENDROOT
BRANCH   1   3
ATOM      2  O   UNL     1      37.255 -20.736 -16.552  0.00  0.00    -0.275 OA
ATOM      3  N   UNL     1      35.860 -22.532 -17.032  0.00  0.00    -0.297 N 
ATOM      4  C   UNL     1      36.870 -21.882 -16.338  0.00  0.00    +0.223 C 
ATOM      5  H   UNL     1      35.632 -23.455 -16.774  0.00  0.00    +0.150 HD
BRANCH   4   6
ATOM      6  C   UNL     1      37.453 -22.771 -15.259  0.00  0.00    +0.087 C 
BRANCH   6  10
ATOM      7  N   UNL     1      36.250 -23.911 -11.834  0.00  0.00    -0.282 N 
ATOM      8  N   UNL     1      37.334 -22.436 -10.473  0.00  0.00    -0.331 N 
ATOM      9  N   UNL     1      36.128 -24.210  -9.519  0.00  0.00    -0.273 NA
ATOM     10  C   UNL     1      36.512 -22.928 -14.066  0.00  0.00    +0.029 C 
ATOM     11  C   UNL     1      35.203 -23.610 -14.491  0.00  0.00    +0.004 C 
ATOM     12  C   UNL     1      37.190 -23.716 -12.937  0.00  0.00    +0.094 C 
ATOM     13  C   UNL     1      34.288 -23.829 -13.287  0.00  0.00    +0.022 C 
ATOM     14  C   UNL     1      35.004 -24.592 -12.177  0.00  0.00    +0.093 C 
ATOM     15  C   UNL     1      36.548 -23.554 -10.563  0.00  0.00    +0.174 C 
ATOM     16  H   UNL     1      37.628 -21.972 -11.290  0.00  0.00    +0.145 HD
ATOM     17  H   UNL     1      37.606 -22.095  -9.589  0.00  0.00    +0.145 HD
ATOM     18  H   UNL     1      35.565 -25.010  -9.635  0.00  0.00    +0.189 HD
ENDBRANCH   6  10
ENDBRANCH   4   6
ENDBRANCH   1   3
BRANCH   1  20
ATOM     19  O   UNL     1      33.970 -23.739 -19.208  0.00  0.00    -0.248 OA
ATOM     20  C   UNL     1      33.899 -22.728 -18.515  0.00  0.00    +0.335 C 
BRANCH  20  21
ATOM     21  O   UNL     1      32.745 -22.187 -18.032  0.00  0.00    -0.443 OA
ATOM     22  C   UNL     1      32.229 -22.788 -16.840  0.00  0.00    +0.256 C 
ENDBRANCH  20  21
ENDBRANCH   1  20
BRANCH   1  23
ATOM     23  C   UNL     1      36.038 -21.627 -19.314  0.00  0.00    +0.057 C 
BRANCH  23  24
ATOM     24  C   UNL     1      35.711 -20.353 -20.062  0.00  0.00    -0.020 C 
ATOM     25  C   UNL     1      34.421 -20.141 -20.548  0.00  0.00    -0.004 C 
ATOM     26  C   UNL     1      36.699 -19.389 -20.263  0.00  0.00    -0.004 C 
ATOM     27  C   UNL     1      34.119 -18.967 -21.238  0.00  0.00    +0.008 C 
ATOM     28  C   UNL     1      36.397 -18.215 -20.952  0.00  0.00    +0.008 C 
ATOM     29  C   UNL     1      35.108 -18.003 -21.439  0.00  0.00    +0.042 C 
BRANCH  29  30
ATOM     30  C   UNL     1      34.798 -16.801 -22.146  0.00  0.00    -0.060 C 
ATOM     31  C   UNL     1      34.539 -15.789 -22.739  0.00  0.00    -0.060 C 
BRANCH  31  32
ATOM     32  C   UNL     1      34.231 -14.584 -23.447  0.00  0.00    +0.042 C 
ATOM     33  C   UNL     1      33.710 -14.648 -24.738  0.00  0.00    +0.008 C 
ATOM     34  C   UNL     1      34.453 -13.345 -22.844  0.00  0.00    +0.008 C 
ATOM     35  C   UNL     1      33.409 -13.474 -25.429  0.00  0.00    +0.001 C 
ATOM     36  C   UNL     1      34.152 -12.171 -23.535  0.00  0.00    +0.001 C 
ATOM     37  C   UNL     1      33.630 -12.236 -24.827  0.00  0.00    +0.000 C 
ENDBRANCH  31  32
ENDBRANCH  29  30
ENDBRANCH  23  24
ENDBRANCH   1  23
TORSDOF 9
ENDMDL
MODEL 2
REMARK VINA RESULT:     -12.1      3.193      5.723
REMARK  Name = 5288250
REMARK  9 active torsions:
REMARK  status: ('A' for Active; 'I' for Inactive)
REMARK    1  A    between atoms: C_1  and  N_3
REMARK    2  A    between atoms: C_1  and  C_20
REMARK    3  A    between atoms: C_1  and  C_23
REMARK    4  A    between atoms: C_4  and  C_6
REMARK    5  A    between atoms: C_6  and  C_10
REMARK    6  A    between atoms: C_20  and  O_21
REMARK    7  A    between atoms: C_23  and  C_24
REMARK    8  A    between atoms: C_29  and  C_30
REMARK    9  A    between atoms: C_31  and  C_32
REMARK                            x       y       z     vdW  Elec       q    Type
REMARK                         _______ _______ _______ _____ _____    ______ ____
ROOT
ATOM      1  C   UNL     1      35.502 -24.632 -15.193  0.00  0.00    +0.176 C 
ENDROOT
BRANCH   1   3
ATOM      2  O   UNL     1      35.245 -23.327 -12.622  0.00  0.00    -0.275 OA
ATOM      3  N   UNL     1      34.295 -24.450 -14.421  0.00  0.00    -0.297 N 
ATOM      4  C   UNL     1      34.270 -23.808 -13.192  0.00  0.00    +0.223 C 
ATOM      5  H   UNL     1      33.449 -24.798 -14.786  0.00  0.00    +0.150 HD
BRANCH   4   6
ATOM      6  C   UNL     1      32.867 -23.765 -12.624  0.00  0.00    +0.087 C 
BRANCH   6  10
ATOM      7  N   UNL     1      29.959 -23.305 -15.035  0.00  0.00    -0.282 N 
ATOM      8  N   UNL     1      31.012 -22.348 -16.818  0.00  0.00    -0.331 N 
ATOM      9  N   UNL     1      28.672 -22.531 -16.826  0.00  0.00    -0.273 NA
ATOM     10  C   UNL     1      31.810 -24.143 -13.660  0.00  0.00    +0.029 C 
ATOM     11  C   UNL     1      30.875 -25.232 -13.113  0.00  0.00    +0.004 C 
ATOM     12  C   UNL     1      31.006 -22.910 -14.095  0.00  0.00    +0.094 C 
ATOM     13  C   UNL     1      29.777 -25.564 -14.121  0.00  0.00    +0.022 C 
ATOM     14  C   UNL     1      29.018 -24.311 -14.548  0.00  0.00    +0.093 C 
ATOM     15  C   UNL     1      29.824 -22.721 -16.248  0.00  0.00    +0.174 C 
ATOM     16  H   UNL     1      31.859 -22.512 -16.344  0.00  0.00    +0.145 HD
ATOM     17  H   UNL     1      31.019 -21.914 -17.702  0.00  0.00    +0.145 HD
ATOM     18  H   UNL     1      27.843 -22.817 -16.376  0.00  0.00    +0.189 HD
ENDBRANCH   6  10
ENDBRANCH   4   6
ENDBRANCH   1   3
BRANCH   1  20
ATOM     19  O   UNL     1      36.205 -26.940 -15.065  0.00  0.00    -0.248 OA
ATOM     20  C   UNL     1      36.353 -25.785 -14.678  0.00  0.00    +0.335 C 
BRANCH  20  21
ATOM     21  O   UNL     1      37.259 -25.379 -13.745  0.00  0.00    -0.443 OA
ATOM     22  C   UNL     1      37.301 -26.153 -12.542  0.00  0.00    +0.256 C 
ENDBRANCH  20  21
ENDBRANCH   1  20
BRANCH   1  23
ATOM     23  C   UNL     1      36.304 -23.325 -15.292  0.00  0.00    +0.057 C 
BRANCH  23  24
ATOM     24  C   UNL     1      36.038 -22.514 -16.541  0.00  0.00    -0.020 C 
ATOM     25  C   UNL     1      37.011 -21.642 -17.027  0.00  0.00    -0.004 C 
ATOM     26  C   UNL     1      34.818 -22.639 -17.206  0.00  0.00    -0.004 C 
ATOM     27  C   UNL     1      36.765 -20.894 -18.178  0.00  0.00    +0.008 C 
ATOM     28  C   UNL     1      34.572 -21.892 -18.358  0.00  0.00    +0.008 C 
ATOM     29  C   UNL     1      35.546 -21.019 -18.844  0.00  0.00    +0.042 C 
BRANCH  29  30
ATOM     30  C   UNL     1      35.294 -20.252 -20.023  0.00  0.00    -0.060 C 
ATOM     31  C   UNL     1      35.083 -19.607 -21.013  0.00  0.00    -0.060 C 
BRANCH  31  32
ATOM     32  C   UNL     1      34.832 -18.838 -22.194  0.00  0.00    +0.042 C 
ATOM     33  C   UNL     1      35.260 -17.513 -22.268  0.00  0.00    +0.008 C 
ATOM     34  C   UNL     1      34.158 -19.415 -23.271  0.00  0.00    +0.008 C 
ATOM     35  C   UNL     1      35.016 -16.764 -23.419  0.00  0.00    +0.001 C 
ATOM     36  C   UNL     1      33.914 -18.665 -24.422  0.00  0.00    +0.001 C 
ATOM     37  C   UNL     1      34.342 -17.339 -24.495  0.00  0.00    +0.000 C 
ENDBRANCH  31  32
ENDBRANCH  29  30
ENDBRANCH  23  24
ENDBRANCH   1  23
TORSDOF 9
ENDMDL
MODEL 3
REMARK VINA RESULT:     -11.9      1.038      1.686
REMARK  Name = 5288250
REMARK  9 active torsions:
REMARK  status: ('A' for Active; 'I' for Inactive)
REMARK    1  A    between atoms: C_1  and  N_3
REMARK    2  A    between atoms: C_1  and  C_20
REMARK    3  A    between atoms: C_1  and  C_23
REMARK    4  A    between atoms: C_4  and  C_6
REMARK    5  A    between atoms: C_6  and  C_10
REMARK    6  A    between atoms: C_20  and  O_21
REMARK    7  A    between atoms: C_23  and  C_24
REMARK    8  A    between atoms: C_29  and  C_30
REMARK    9  A    between atoms: C_31  and  C_32
REMARK                            x       y       z     vdW  Elec       q    Type
REMARK                         _______ _______ _______ _____ _____    ______ ____
ROOT
ATOM      1  C   UNL     1      35.286 -21.857 -17.999  0.00  0.00    +0.176 C 
ENDROOT
BRANCH   1   3
ATOM      2  O   UNL     1      37.407 -20.211 -16.918  0.00  0.00    -0.275 OA
ATOM      3  N   UNL     1      36.202 -22.198 -16.934  0.00  0.00    -0.297 N 
ATOM      4  C   UNL     1      37.192 -21.338 -16.481  0.00  0.00    +0.223 C 
ATOM      5  H   UNL     1      36.118 -23.082 -16.509  0.00  0.00    +0.150 HD
BRANCH   4   6
ATOM      6  C   UNL     1      37.990 -21.965 -15.358  0.00  0.00    +0.087 C 
BRANCH   6  10
ATOM      7  N   UNL     1      36.250 -24.179 -12.800  0.00  0.00    -0.282 N 
ATOM      8  N   UNL     1      34.126 -23.351 -12.872  0.00  0.00    -0.331 N 
ATOM      9  N   UNL     1      34.679 -24.963 -11.257  0.00  0.00    -0.273 NA
ATOM     10  C   UNL     1      37.311 -23.207 -14.787  0.00  0.00    +0.029 C 
ATOM     11  C   UNL     1      38.254 -24.418 -14.842  0.00  0.00    +0.004 C 
ATOM     12  C   UNL     1      36.837 -22.958 -13.349  0.00  0.00    +0.094 C 
ATOM     13  C   UNL     1      37.602 -25.647 -14.210  0.00  0.00    +0.022 C 
ATOM     14  C   UNL     1      37.122 -25.352 -12.793  0.00  0.00    +0.093 C 
ATOM     15  C   UNL     1      35.009 -24.202 -12.262  0.00  0.00    +0.174 C 
ATOM     16  H   UNL     1      34.421 -22.795 -13.629  0.00  0.00    +0.145 HD
ATOM     17  H   UNL     1      33.196 -23.295 -12.553  0.00  0.00    +0.145 HD
ATOM     18  H   UNL     1      35.349 -25.560 -10.851  0.00  0.00    +0.189 HD
ENDBRANCH   6  10
ENDBRANCH   4   6
ENDBRANCH   1   3
BRANCH   1  20
ATOM     19  O   UNL     1      33.467 -22.971 -19.134  0.00  0.00    -0.248 OA
ATOM     20  C   UNL     1      34.133 -22.844 -18.111  0.00  0.00    +0.335 C 
BRANCH  20  21
ATOM     21  O   UNL     1      33.933 -23.536 -16.954  0.00  0.00    -0.443 OA
ATOM     22  C   UNL     1      32.711 -23.251 -16.264  0.00  0.00    +0.256 C 
ENDBRANCH  20  21
ENDBRANCH   1  20
BRANCH   1  23
ATOM     23  C   UNL     1      36.024 -21.680 -19.334  0.00  0.00    +0.057 C 
BRANCH  23  24
ATOM     24  C   UNL     1      35.701 -20.398 -20.069  0.00  0.00    -0.020 C 
ATOM     25  C   UNL     1      34.411 -20.173 -20.547  0.00  0.00    -0.004 C 
ATOM     26  C   UNL     1      36.695 -19.440 -20.268  0.00  0.00    -0.004 C 
ATOM     27  C   UNL     1      34.113 -18.991 -21.225  0.00  0.00    +0.008 C 
ATOM     28  C   UNL     1      36.398 -18.257 -20.945  0.00  0.00    +0.008 C 
ATOM     29  C   UNL     1      35.107 -18.033 -21.424  0.00  0.00    +0.042 C 
BRANCH  29  30
ATOM     30  C   UNL     1      34.803 -16.822 -22.119  0.00  0.00    -0.060 C 
ATOM     31  C   UNL     1      34.546 -15.804 -22.701  0.00  0.00    -0.060 C 
BRANCH  31  32
ATOM     32  C   UNL     1      34.241 -14.590 -23.396  0.00  0.00    +0.042 C 
ATOM     33  C   UNL     1      34.457 -13.360 -22.778  0.00  0.00    +0.008 C 
ATOM     34  C   UNL     1      33.726 -14.640 -24.692  0.00  0.00    +0.008 C 
ATOM     35  C   UNL     1      34.161 -12.177 -23.454  0.00  0.00    +0.001 C 
ATOM     36  C   UNL     1      33.429 -13.456 -25.369  0.00  0.00    +0.001 C 
ATOM     37  C   UNL     1      33.646 -12.225 -24.749  0.00  0.00    +0.000 C 
ENDBRANCH  31  32
ENDBRANCH  29  30
ENDBRANCH  23  24
ENDBRANCH   1  23
TORSDOF 9
ENDMDL
MODEL 4
REMARK VINA RESULT:     -11.8      1.437      2.220
REMARK  Name = 5288250
REMARK  9 active torsions:
REMARK  status: ('A' for Active; 'I' for Inactive)
REMARK    1  A    between atoms: C_1  and  N_3
REMARK    2  A    between atoms: C_1  and  C_20
REMARK    3  A    between atoms: C_1  and  C_23
REMARK    4  A    between atoms: C_4  and  C_6
REMARK    5  A    between atoms: C_6  and  C_10
REMARK    6  A    between atoms: C_20  and  O_21
REMARK    7  A    between atoms: C_23  and  C_24
REMARK    8  A    between atoms: C_29  and  C_30
REMARK    9  A    between atoms: C_31  and  C_32
REMARK                            x       y       z     vdW  Elec       q    Type
REMARK                         _______ _______ _______ _____ _____    ______ ____
ROOT
ATOM      1  C   UNL     1      35.162 -21.725 -18.453  0.00  0.00    +0.176 C 
ENDROOT
BRANCH   1   3
ATOM      2  O   UNL     1      37.277 -20.240 -17.149  0.00  0.00    -0.275 OA
ATOM      3  N   UNL     1      35.960 -22.147 -17.325  0.00  0.00    -0.297 N 
ATOM      4  C   UNL     1      36.958 -21.362 -16.766  0.00  0.00    +0.223 C 
ATOM      5  H   UNL     1      35.788 -23.034 -16.935  0.00  0.00    +0.150 HD
BRANCH   4   6
ATOM      6  C   UNL     1      37.618 -22.064 -15.598  0.00  0.00    +0.087 C 
BRANCH   6  10
ATOM      7  N   UNL     1      35.069 -24.062 -13.601  0.00  0.00    -0.282 N 
ATOM      8  N   UNL     1      33.138 -23.527 -14.690  0.00  0.00    -0.331 N 
ATOM      9  N   UNL     1      33.033 -24.792 -12.715  0.00  0.00    -0.273 NA
ATOM     10  C   UNL     1      36.823 -23.280 -15.128  0.00  0.00    +0.029 C 
ATOM     11  C   UNL     1      37.759 -24.358 -14.562  0.00  0.00    +0.004 C 
ATOM     12  C   UNL     1      35.772 -22.876 -14.085  0.00  0.00    +0.094 C 
ATOM     13  C   UNL     1      36.962 -25.547 -14.029  0.00  0.00    +0.022 C 
ATOM     14  C   UNL     1      35.913 -25.102 -13.015  0.00  0.00    +0.093 C 
ATOM     15  C   UNL     1      33.720 -24.158 -13.622  0.00  0.00    +0.174 C 
ATOM     16  H   UNL     1      33.698 -23.060 -15.351  0.00  0.00    +0.145 HD
ATOM     17  H   UNL     1      32.159 -23.539 -14.795  0.00  0.00    +0.145 HD
ATOM     18  H   UNL     1      33.497 -25.231 -11.965  0.00  0.00    +0.189 HD
ENDBRANCH   6  10
ENDBRANCH   4   6
ENDBRANCH   1   3
BRANCH   1  20
ATOM     19  O   UNL     1      34.224 -23.783 -19.301  0.00  0.00    -0.248 OA
ATOM     20  C   UNL     1      34.033 -22.698 -18.761  0.00  0.00    +0.335 C 
BRANCH  20  21
ATOM     21  O   UNL     1      32.817 -22.211 -18.387  0.00  0.00    -0.443 OA
ATOM     22  C   UNL     1      32.459 -20.941 -18.941  0.00  0.00    +0.256 C 
ENDBRANCH  20  21
ENDBRANCH   1  20
BRANCH   1  23
ATOM     23  C   UNL     1      36.037 -21.449 -19.685  0.00  0.00    +0.057 C 
BRANCH  23  24
ATOM     24  C   UNL     1      35.702 -20.172 -20.423  0.00  0.00    -0.020 C 
ATOM     25  C   UNL     1      36.551 -19.069 -20.331  0.00  0.00    -0.004 C 
ATOM     26  C   UNL     1      34.545 -20.098 -21.199  0.00  0.00    -0.004 C 
ATOM     27  C   UNL     1      36.242 -17.892 -21.012  0.00  0.00    +0.008 C 
ATOM     28  C   UNL     1      34.236 -18.921 -21.881  0.00  0.00    +0.008 C 
ATOM     29  C   UNL     1      35.084 -17.818 -21.787  0.00  0.00    +0.042 C 
BRANCH  29  30
ATOM     30  C   UNL     1      34.768 -16.612 -22.485  0.00  0.00    -0.060 C 
ATOM     31  C   UNL     1      34.500 -15.598 -23.069  0.00  0.00    -0.060 C 
BRANCH  31  32
ATOM     32  C   UNL     1      34.183 -14.389 -23.767  0.00  0.00    +0.042 C 
ATOM     33  C   UNL     1      34.358 -13.156 -23.140  0.00  0.00    +0.008 C 
ATOM     34  C   UNL     1      33.697 -14.445 -25.073  0.00  0.00    +0.008 C 
ATOM     35  C   UNL     1      34.049 -11.977 -23.819  0.00  0.00    +0.001 C 
ATOM     36  C   UNL     1      33.387 -13.266 -25.752  0.00  0.00    +0.001 C 
ATOM     37  C   UNL     1      33.563 -12.033 -25.125  0.00  0.00    +0.000 C 
ENDBRANCH  31  32
ENDBRANCH  29  30
ENDBRANCH  23  24
ENDBRANCH   1  23
TORSDOF 9
ENDMDL
MODEL 5
REMARK VINA RESULT:     -11.8      1.691      2.737
REMARK  Name = 5288250
REMARK  9 active torsions:
REMARK  status: ('A' for Active; 'I' for Inactive)
REMARK    1  A    between atoms: C_1  and  N_3
REMARK    2  A    between atoms: C_1  and  C_20
REMARK    3  A    between atoms: C_1  and  C_23
REMARK    4  A    between atoms: C_4  and  C_6
REMARK    5  A    between atoms: C_6  and  C_10
REMARK    6  A    between atoms: C_20  and  O_21
REMARK    7  A    between atoms: C_23  and  C_24
REMARK    8  A    between atoms: C_29  and  C_30
REMARK    9  A    between atoms: C_31  and  C_32
REMARK                            x       y       z     vdW  Elec       q    Type
REMARK                         _______ _______ _______ _____ _____    ______ ____
ROOT
ATOM      1  C   UNL     1      34.170 -22.958 -15.963  0.00  0.00    +0.176 C 
ENDROOT
BRANCH   1   3
ATOM      2  O   UNL     1      36.614 -21.428 -16.210  0.00  0.00    -0.275 OA
ATOM      3  N   UNL     1      35.479 -23.314 -15.466  0.00  0.00    -0.297 N 
ATOM      4  C   UNL     1      36.598 -22.511 -15.634  0.00  0.00    +0.223 C 
ATOM      5  H   UNL     1      35.582 -24.167 -14.985  0.00  0.00    +0.150 HD
BRANCH   4   6
ATOM      6  C   UNL     1      37.823 -23.141 -15.005  0.00  0.00    +0.087 C 
BRANCH   6  10
ATOM      7  N   UNL     1      36.954 -24.127 -11.434  0.00  0.00    -0.282 N 
ATOM      8  N   UNL     1      34.744 -23.567 -11.349  0.00  0.00    -0.331 N 
ATOM      9  N   UNL     1      35.833 -24.264  -9.388  0.00  0.00    -0.273 NA
ATOM     10  C   UNL     1      37.470 -24.052 -13.832  0.00  0.00    +0.029 C 
ATOM     11  C   UNL     1      38.574 -25.094 -13.599  0.00  0.00    +0.004 C 
ATOM     12  C   UNL     1      37.225 -23.231 -12.558  0.00  0.00    +0.094 C 
ATOM     13  C   UNL     1      38.255 -25.964 -12.384  0.00  0.00    +0.022 C 
ATOM     14  C   UNL     1      37.993 -25.112 -11.146  0.00  0.00    +0.093 C 
ATOM     15  C   UNL     1      35.849 -23.999 -10.664  0.00  0.00    +0.174 C 
ATOM     16  H   UNL     1      34.804 -23.380 -12.313  0.00  0.00    +0.145 HD
ATOM     17  H   UNL     1      33.889 -23.443 -10.875  0.00  0.00    +0.145 HD
ATOM     18  H   UNL     1      36.654 -24.572  -8.939  0.00  0.00    +0.189 HD
ENDBRANCH   6  10
ENDBRANCH   4   6
ENDBRANCH   1   3
BRANCH   1  20
ATOM     19  O   UNL     1      33.242 -23.867 -13.926  0.00  0.00    -0.248 OA
ATOM     20  C   UNL     1      33.050 -23.481 -15.075  0.00  0.00    +0.335 C 
BRANCH  20  21
ATOM     21  O   UNL     1      31.845 -23.481 -15.712  0.00  0.00    -0.443 OA
ATOM     22  C   UNL     1      30.701 -23.288 -14.875  0.00  0.00    +0.256 C 
ENDBRANCH  20  21
ENDBRANCH   1  20
BRANCH   1  23
ATOM     23  C   UNL     1      33.992 -23.387 -17.427  0.00  0.00    +0.057 C 
BRANCH  23  24
ATOM     24  C   UNL     1      34.097 -22.262 -18.433  0.00  0.00    -0.020 C 
ATOM     25  C   UNL     1      32.961 -21.534 -18.786  0.00  0.00    -0.004 C 
ATOM     26  C   UNL     1      35.330 -21.952 -19.006  0.00  0.00    -0.004 C 
ATOM     27  C   UNL     1      33.058 -20.497 -19.714  0.00  0.00    +0.008 C 
ATOM     28  C   UNL     1      35.427 -20.915 -19.933  0.00  0.00    +0.008 C 
ATOM     29  C   UNL     1      34.291 -20.187 -20.287  0.00  0.00    +0.042 C 
BRANCH  29  30
ATOM     30  C   UNL     1      34.390 -19.125 -21.237  0.00  0.00    -0.060 C 
ATOM     31  C   UNL     1      34.474 -18.233 -22.037  0.00  0.00    -0.060 C 
BRANCH  31  32
ATOM     32  C   UNL     1      34.573 -17.170 -22.990  0.00  0.00    +0.042 C 
ATOM     33  C   UNL     1      34.327 -17.418 -24.339  0.00  0.00    +0.008 C 
ATOM     34  C   UNL     1      34.918 -15.885 -22.568  0.00  0.00    +0.008 C 
ATOM     35  C   UNL     1      34.423 -16.383 -25.269  0.00  0.00    +0.001 C 
ATOM     36  C   UNL     1      35.015 -14.850 -23.498  0.00  0.00    +0.001 C 
ATOM     37  C   UNL     1      34.767 -15.099 -24.848  0.00  0.00    +0.000 C 
ENDBRANCH  31  32
ENDBRANCH  29  30
ENDBRANCH  23  24
ENDBRANCH   1  23
TORSDOF 9
ENDMDL
MODEL 6
REMARK VINA RESULT:     -11.5      2.734      4.257
REMARK  Name = 5288250
REMARK  9 active torsions:
REMARK  status: ('A' for Active; 'I' for Inactive)
REMARK    1  A    between atoms: C_1  and  N_3
REMARK    2  A    between atoms: C_1  and  C_20
REMARK    3  A    between atoms: C_1  and  C_23
REMARK    4  A    between atoms: C_4  and  C_6
REMARK    5  A    between atoms: C_6  and  C_10
REMARK    6  A    between atoms: C_20  and  O_21
REMARK    7  A    between atoms: C_23  and  C_24
REMARK    8  A    between atoms: C_29  and  C_30
REMARK    9  A    between atoms: C_31  and  C_32
REMARK                            x       y       z     vdW  Elec       q    Type
REMARK                         _______ _______ _______ _____ _____    ______ ____
ROOT
ATOM      1  C   UNL     1      32.799 -22.881 -15.154  0.00  0.00    +0.176 C 
ENDROOT
BRANCH   1   3
ATOM      2  O   UNL     1      32.734 -25.267 -13.517  0.00  0.00    -0.275 OA
ATOM      3  N   UNL     1      33.518 -23.117 -13.923  0.00  0.00    -0.297 N 
ATOM      4  C   UNL     1      33.423 -24.300 -13.205  0.00  0.00    +0.223 C 
ATOM      5  H   UNL     1      34.105 -22.405 -13.579  0.00  0.00    +0.150 HD
BRANCH   4   6
ATOM      6  C   UNL     1      34.291 -24.259 -11.964  0.00  0.00    +0.087 C 
BRANCH   6  10
ATOM      7  N   UNL     1      37.946 -25.100 -12.605  0.00  0.00    -0.282 N 
ATOM      8  N   UNL     1      37.847 -25.895 -14.741  0.00  0.00    -0.331 N 
ATOM      9  N   UNL     1      39.867 -26.034 -13.553  0.00  0.00    -0.273 NA
ATOM     10  C   UNL     1      35.763 -24.024 -12.294  0.00  0.00    +0.029 C 
ATOM     11  C   UNL     1      36.406 -23.076 -11.271  0.00  0.00    +0.004 C 
ATOM     12  C   UNL     1      36.528 -25.353 -12.354  0.00  0.00    +0.094 C 
ATOM     13  C   UNL     1      37.896 -22.893 -11.559  0.00  0.00    +0.022 C 
ATOM     14  C   UNL     1      38.615 -24.236 -11.636  0.00  0.00    +0.093 C 
ATOM     15  C   UNL     1      38.613 -25.691 -13.624  0.00  0.00    +0.174 C 
ATOM     16  H   UNL     1      36.902 -25.619 -14.748  0.00  0.00    +0.145 HD
ATOM     17  H   UNL     1      38.242 -26.319 -15.538  0.00  0.00    +0.145 HD
ATOM     18  H   UNL     1      40.377 -25.866 -12.727  0.00  0.00    +0.189 HD
ENDBRANCH   6  10
ENDBRANCH   4   6
ENDBRANCH   1   3
BRANCH   1  20
ATOM     19  O   UNL     1      30.975 -24.352 -15.743  0.00  0.00    -0.248 OA
ATOM     20  C   UNL     1      31.364 -23.386 -15.094  0.00  0.00    +0.335 C 
BRANCH  20  21
ATOM     21  O   UNL     1      30.589 -22.635 -14.263  0.00  0.00    -0.443 OA
ATOM     22  C   UNL     1      29.210 -22.525 -14.631  0.00  0.00    +0.256 C 
ENDBRANCH  20  21
ENDBRANCH   1  20
BRANCH   1  23
ATOM     23  C   UNL     1      33.559 -23.448 -16.362  0.00  0.00    +0.057 C 
BRANCH  23  24
ATOM     24  C   UNL     1      33.736 -22.478 -17.509  0.00  0.00    -0.020 C 
ATOM     25  C   UNL     1      35.014 -22.190 -17.988  0.00  0.00    -0.004 C 
ATOM     26  C   UNL     1      32.621 -21.873 -18.088  0.00  0.00    -0.004 C 
ATOM     27  C   UNL     1      35.177 -21.294 -19.045  0.00  0.00    +0.008 C 
ATOM     28  C   UNL     1      32.784 -20.978 -19.146  0.00  0.00    +0.008 C 
ATOM     29  C   UNL     1      34.062 -20.689 -19.624  0.00  0.00    +0.042 C 
BRANCH  29  30
ATOM     30  C   UNL     1      34.229 -19.772 -20.707  0.00  0.00    -0.060 C 
ATOM     31  C   UNL     1      34.371 -19.002 -21.618  0.00  0.00    -0.060 C 
BRANCH  31  32
ATOM     32  C   UNL     1      34.538 -18.084 -22.703  0.00  0.00    +0.042 C 
ATOM     33  C   UNL     1      35.210 -16.880 -22.500  0.00  0.00    +0.008 C 
ATOM     34  C   UNL     1      34.027 -18.394 -23.964  0.00  0.00    +0.008 C 
ATOM     35  C   UNL     1      35.374 -15.984 -23.557  0.00  0.00    +0.001 C 
ATOM     36  C   UNL     1      34.191 -17.499 -25.021  0.00  0.00    +0.001 C 
ATOM     37  C   UNL     1      34.864 -16.294 -24.817  0.00  0.00    +0.000 C 
ENDBRANCH  31  32
ENDBRANCH  29  30
ENDBRANCH  23  24
ENDBRANCH   1  23
TORSDOF 9
ENDMDL
MODEL 7
REMARK VINA RESULT:     -11.4      4.006      7.164
REMARK  Name = 5288250
REMARK  9 active torsions:
REMARK  status: ('A' for Active; 'I' for Inactive)
REMARK    1  A    between atoms: C_1  and  N_3
REMARK    2  A    between atoms: C_1  and  C_20
REMARK    3  A    between atoms: C_1  and  C_23
REMARK    4  A    between atoms: C_4  and  C_6
REMARK    5  A    between atoms: C_6  and  C_10
REMARK    6  A    between atoms: C_20  and  O_21
REMARK    7  A    between atoms: C_23  and  C_24
REMARK    8  A    between atoms: C_29  and  C_30
REMARK    9  A    between atoms: C_31  and  C_32
REMARK                            x       y       z     vdW  Elec       q    Type
REMARK                         _______ _______ _______ _____ _____    ______ ____
ROOT
ATOM      1  C   UNL     1      34.304 -16.935 -23.436  0.00  0.00    +0.176 C 
ENDROOT
BRANCH   1   3
ATOM      2  O   UNL     1      35.225 -16.956 -20.693  0.00  0.00    -0.275 OA
ATOM      3  N   UNL     1      35.066 -17.970 -22.778  0.00  0.00    -0.297 N 
ATOM      4  C   UNL     1      35.464 -17.891 -21.451  0.00  0.00    +0.223 C 
ATOM      5  H   UNL     1      35.314 -18.771 -23.295  0.00  0.00    +0.150 HD
BRANCH   4   6
ATOM      6  C   UNL     1      36.242 -19.123 -21.038  0.00  0.00    +0.087 C 
BRANCH   6  10
ATOM      7  N   UNL     1      35.857 -21.677 -18.244  0.00  0.00    -0.282 N 
ATOM      8  N   UNL     1      37.215 -20.787 -16.643  0.00  0.00    -0.331 N 
ATOM      9  N   UNL     1      36.267 -22.907 -16.300  0.00  0.00    -0.273 NA
ATOM     10  C   UNL     1      35.599 -19.847 -19.857  0.00  0.00    +0.029 C 
ATOM     11  C   UNL     1      34.231 -20.423 -20.252  0.00  0.00    +0.004 C 
ATOM     12  C   UNL     1      36.520 -20.955 -19.329  0.00  0.00    +0.094 C 
ATOM     13  C   UNL     1      33.615 -21.206 -19.093  0.00  0.00    +0.022 C 
ATOM     14  C   UNL     1      34.569 -22.280 -18.580  0.00  0.00    +0.093 C 
ATOM     15  C   UNL     1      36.435 -21.843 -17.032  0.00  0.00    +0.174 C 
ATOM     16  H   UNL     1      37.312 -20.003 -17.230  0.00  0.00    +0.145 HD
ATOM     17  H   UNL     1      37.679 -20.812 -15.774  0.00  0.00    +0.145 HD
ATOM     18  H   UNL     1      35.696 -23.642 -16.623  0.00  0.00    +0.189 HD
ENDBRANCH   6  10
ENDBRANCH   4   6
ENDBRANCH   1   3
BRANCH   1  20
ATOM     19  O   UNL     1      33.221 -16.774 -25.590  0.00  0.00    -0.248 OA
ATOM     20  C   UNL     1      33.502 -17.466 -24.616  0.00  0.00    +0.335 C 
BRANCH  20  21
ATOM     21  O   UNL     1      33.133 -18.766 -24.445  0.00  0.00    -0.443 OA
ATOM     22  C   UNL     1      32.019 -19.204 -25.229  0.00  0.00    +0.256 C 
ENDBRANCH  20  21
ENDBRANCH   1  20
BRANCH   1  23
ATOM     23  C   UNL     1      35.198 -15.751 -23.834  0.00  0.00    +0.057 C 
BRANCH  23  24
ATOM     24  C   UNL     1      34.602 -14.388 -23.559  0.00  0.00    -0.020 C 
ATOM     25  C   UNL     1      34.101 -13.620 -24.609  0.00  0.00    -0.004 C 
ATOM     26  C   UNL     1      34.552 -13.901 -22.253  0.00  0.00    -0.004 C 
ATOM     27  C   UNL     1      33.552 -12.364 -24.355  0.00  0.00    +0.008 C 
ATOM     28  C   UNL     1      34.002 -12.645 -21.998  0.00  0.00    +0.008 C 
ATOM     29  C   UNL     1      33.502 -11.876 -23.049  0.00  0.00    +0.042 C 
BRANCH  29  30
ATOM     30  C   UNL     1      32.939 -10.588 -22.789  0.00  0.00    -0.060 C 
ATOM     31  C   UNL     1      32.467  -9.507 -22.568  0.00  0.00    -0.060 C 
BRANCH  31  32
ATOM     32  C   UNL     1      31.904  -8.217 -22.307  0.00  0.00    +0.042 C 
ATOM     33  C   UNL     1      31.977  -7.672 -21.026  0.00  0.00    +0.008 C 
ATOM     34  C   UNL     1      31.283  -7.506 -23.334  0.00  0.00    +0.008 C 
ATOM     35  C   UNL     1      31.429  -6.415 -20.770  0.00  0.00    +0.001 C 
ATOM     36  C   UNL     1      30.735  -6.249 -23.078  0.00  0.00    +0.001 C 
ATOM     37  C   UNL     1      30.808  -5.704 -21.796  0.00  0.00    +0.000 C 
ENDBRANCH  31  32
ENDBRANCH  29  30
ENDBRANCH  23  24
ENDBRANCH   1  23
TORSDOF 9
ENDMDL
MODEL 8
REMARK VINA RESULT:     -11.1      4.521     11.730
REMARK  Name = 5288250
REMARK  9 active torsions:
REMARK  status: ('A' for Active; 'I' for Inactive)
REMARK    1  A    between atoms: C_1  and  N_3
REMARK    2  A    between atoms: C_1  and  C_20
REMARK    3  A    between atoms: C_1  and  C_23
REMARK    4  A    between atoms: C_4  and  C_6
REMARK    5  A    between atoms: C_6  and  C_10
REMARK    6  A    between atoms: C_20  and  O_21
REMARK    7  A    between atoms: C_23  and  C_24
REMARK    8  A    between atoms: C_29  and  C_30
REMARK    9  A    between atoms: C_31  and  C_32
REMARK                            x       y       z     vdW  Elec       q    Type
REMARK                         _______ _______ _______ _____ _____    ______ ____
ROOT
ATOM      1  C   UNL     1      34.647 -19.240 -21.333  0.00  0.00    +0.176 C 
ENDROOT
BRANCH   1   3
ATOM      2  O   UNL     1      36.248 -16.937 -22.047  0.00  0.00    -0.275 OA
ATOM      3  N   UNL     1      34.510 -17.891 -20.834  0.00  0.00    -0.297 N 
ATOM      4  C   UNL     1      35.329 -16.847 -21.238  0.00  0.00    +0.223 C 
ATOM      5  H   UNL     1      33.800 -17.704 -20.178  0.00  0.00    +0.150 HD
BRANCH   4   6
ATOM      6  C   UNL     1      34.946 -15.553 -20.551  0.00  0.00    +0.087 C 
BRANCH   6  10
ATOM      7  N   UNL     1      33.711 -13.246 -23.314  0.00  0.00    -0.282 N 
ATOM      8  N   UNL     1      33.601 -14.689 -25.077  0.00  0.00    -0.331 N 
ATOM      9  N   UNL     1      33.231 -12.399 -25.439  0.00  0.00    -0.273 NA
ATOM     10  C   UNL     1      33.958 -14.729 -21.375  0.00  0.00    +0.029 C 
ATOM     11  C   UNL     1      33.282 -13.660 -20.505  0.00  0.00    +0.004 C 
ATOM     12  C   UNL     1      34.659 -14.082 -22.578  0.00  0.00    +0.094 C 
ATOM     13  C   UNL     1      32.344 -12.790 -21.341  0.00  0.00    +0.022 C 
ATOM     14  C   UNL     1      33.069 -12.186 -22.540  0.00  0.00    +0.093 C 
ATOM     15  C   UNL     1      33.503 -13.394 -24.643  0.00  0.00    +0.174 C 
ATOM     16  H   UNL     1      33.808 -15.409 -24.438  0.00  0.00    +0.145 HD
ATOM     17  H   UNL     1      33.465 -14.901 -26.029  0.00  0.00    +0.145 HD
ATOM     18  H   UNL     1      33.171 -11.484 -25.079  0.00  0.00    +0.189 HD
ENDBRANCH   6  10
ENDBRANCH   4   6
ENDBRANCH   1   3
BRANCH   1  20
ATOM     19  O   UNL     1      35.383 -19.878 -23.544  0.00  0.00    -0.248 OA
ATOM     20  C   UNL     1      34.545 -19.312 -22.850  0.00  0.00    +0.335 C 
BRANCH  20  21
ATOM     21  O   UNL     1      33.441 -18.667 -23.322  0.00  0.00    -0.443 OA
ATOM     22  C   UNL     1      33.493 -18.273 -24.697  0.00  0.00    +0.256 C 
ENDBRANCH  20  21
ENDBRANCH   1  20
BRANCH   1  23
ATOM     23  C   UNL     1      33.660 -20.194 -20.644  0.00  0.00    +0.057 C 
BRANCH  23  24
ATOM     24  C   UNL     1      34.226 -20.936 -19.453  0.00  0.00    -0.020 C 
ATOM     25  C   UNL     1      33.384 -21.694 -18.639  0.00  0.00    -0.004 C 
ATOM     26  C   UNL     1      35.590 -20.864 -19.171  0.00  0.00    -0.004 C 
ATOM     27  C   UNL     1      33.906 -22.378 -17.541  0.00  0.00    +0.008 C 
ATOM     28  C   UNL     1      36.112 -21.549 -18.074  0.00  0.00    +0.008 C 
ATOM     29  C   UNL     1      35.270 -22.306 -17.259  0.00  0.00    +0.042 C 
BRANCH  29  30
ATOM     30  C   UNL     1      35.804 -23.007 -16.134  0.00  0.00    -0.060 C 
ATOM     31  C   UNL     1      36.255 -23.594 -15.189  0.00  0.00    -0.060 C 
BRANCH  31  32
ATOM     32  C   UNL     1      36.790 -24.295 -14.062  0.00  0.00    +0.042 C 
ATOM     33  C   UNL     1      36.826 -25.689 -14.060  0.00  0.00    +0.008 C 
ATOM     34  C   UNL     1      37.275 -23.583 -12.964  0.00  0.00    +0.008 C 
ATOM     35  C   UNL     1      37.348 -26.373 -12.962  0.00  0.00    +0.001 C 
ATOM     36  C   UNL     1      37.797 -24.267 -11.866  0.00  0.00    +0.001 C 
ATOM     37  C   UNL     1      37.833 -25.662 -11.865  0.00  0.00    +0.000 C 
ENDBRANCH  31  32
ENDBRANCH  29  30
ENDBRANCH  23  24
ENDBRANCH   1  23
TORSDOF 9
ENDMDL
MODEL 9
REMARK VINA RESULT:     -10.5      6.827     12.318
REMARK  Name = 5288250
REMARK  9 active torsions:
REMARK  status: ('A' for Active; 'I' for Inactive)
REMARK    1  A    between atoms: C_1  and  N_3
REMARK    2  A    between atoms: C_1  and  C_20
REMARK    3  A    between atoms: C_1  and  C_23
REMARK    4  A    between atoms: C_4  and  C_6
REMARK    5  A    between atoms: C_6  and  C_10
REMARK    6  A    between atoms: C_20  and  O_21
REMARK    7  A    between atoms: C_23  and  C_24
REMARK    8  A    between atoms: C_29  and  C_30
REMARK    9  A    between atoms: C_31  and  C_32
REMARK                            x       y       z     vdW  Elec       q    Type
REMARK                         _______ _______ _______ _____ _____    ______ ____
ROOT
ATOM      1  C   UNL     1      34.049 -13.629 -24.824  0.00  0.00    +0.176 C 
ENDROOT
BRANCH   1   3
ATOM      2  O   UNL     1      34.245 -12.532 -22.153  0.00  0.00    -0.275 OA
ATOM      3  N   UNL     1      32.988 -13.499 -23.852  0.00  0.00    -0.297 N 
ATOM      4  C   UNL     1      33.179 -12.956 -22.590  0.00  0.00    +0.223 C 
ATOM      5  H   UNL     1      32.086 -13.808 -24.098  0.00  0.00    +0.150 HD
BRANCH   4   6
ATOM      6  C   UNL     1      31.888 -12.946 -21.797  0.00  0.00    +0.087 C 
BRANCH   6  10
ATOM      7  N   UNL     1      32.199  -9.214 -21.122  0.00  0.00    -0.282 N 
ATOM      8  N   UNL     1      30.865  -8.358 -22.762  0.00  0.00    -0.331 N 
ATOM      9  N   UNL     1      32.130  -6.898 -21.427  0.00  0.00    -0.273 NA
ATOM     10  C   UNL     1      31.636 -11.603 -21.117  0.00  0.00    +0.029 C 
ATOM     11  C   UNL     1      32.023 -11.663 -19.632  0.00  0.00    +0.004 C 
ATOM     12  C   UNL     1      32.401 -10.478 -21.829  0.00  0.00    +0.094 C 
ATOM     13  C   UNL     1      31.835 -10.301 -18.964  0.00  0.00    +0.022 C 
ATOM     14  C   UNL     1      32.589  -9.207 -19.714  0.00  0.00    +0.093 C 
ATOM     15  C   UNL     1      31.753  -8.102 -21.751  0.00  0.00    +0.174 C 
ATOM     16  H   UNL     1      30.609  -9.285 -22.971  0.00  0.00    +0.145 HD
ATOM     17  H   UNL     1      30.482  -7.613 -23.281  0.00  0.00    +0.145 HD
ATOM     18  H   UNL     1      32.772  -6.765 -20.692  0.00  0.00    +0.189 HD
ENDBRANCH   6  10
ENDBRANCH   4   6
ENDBRANCH   1   3
BRANCH   1  20
ATOM     19  O   UNL     1      34.065 -12.953 -27.144  0.00  0.00    -0.248 OA
ATOM     20  C   UNL     1      33.913 -12.634 -25.969  0.00  0.00    +0.335 C 
BRANCH  20  21
ATOM     21  O   UNL     1      33.627 -11.378 -25.527  0.00  0.00    -0.443 OA
ATOM     22  C   UNL     1      34.746 -10.608 -25.076  0.00  0.00    +0.256 C 
ENDBRANCH  20  21
ENDBRANCH   1  20
BRANCH   1  23
ATOM     23  C   UNL     1      34.169 -15.075 -25.329  0.00  0.00    +0.057 C 
BRANCH  23  24
ATOM     24  C   UNL     1      34.341 -16.112 -24.242  0.00  0.00    -0.020 C 
ATOM     25  C   UNL     1      33.863 -17.408 -24.431  0.00  0.00    -0.004 C 
ATOM     26  C   UNL     1      34.979 -15.771 -23.049  0.00  0.00    -0.004 C 
ATOM     27  C   UNL     1      34.022 -18.364 -23.428  0.00  0.00    +0.008 C 
ATOM     28  C   UNL     1      35.138 -16.727 -22.045  0.00  0.00    +0.008 C 
ATOM     29  C   UNL     1      34.660 -18.023 -22.235  0.00  0.00    +0.042 C 
BRANCH  29  30
ATOM     30  C   UNL     1      34.821 -19.002 -21.207  0.00  0.00    -0.060 C 
ATOM     31  C   UNL     1      34.959 -19.825 -20.343  0.00  0.00    -0.060 C 
BRANCH  31  32
ATOM     32  C   UNL     1      35.122 -20.805 -19.312  0.00  0.00    +0.042 C 
ATOM     33  C   UNL     1      36.358 -20.959 -18.686  0.00  0.00    +0.008 C 
ATOM     34  C   UNL     1      34.043 -21.606 -18.936  0.00  0.00    +0.008 C 
ATOM     35  C   UNL     1      36.517 -21.914 -17.682  0.00  0.00    +0.001 C 
ATOM     36  C   UNL     1      34.203 -22.561 -17.931  0.00  0.00    +0.001 C 
ATOM     37  C   UNL     1      35.440 -22.715 -17.305  0.00  0.00    +0.000 C 
ENDBRANCH  31  32
ENDBRANCH  29  30
ENDBRANCH  23  24
ENDBRANCH   1  23
TORSDOF 9
ENDMDL
