MODEL 1
REMARK VINA RESULT:     -13.1      0.000      0.000
REMARK  Name = 11560856
REMARK  5 active torsions:
REMARK  status: ('A' for Active; 'I' for Inactive)
REMARK    1  A    between atoms: C_2  and  O_24
REMARK    2  A    between atoms: C_3  and  N_10
REMARK    3  A    between atoms: C_12  and  C_16
REMARK    4  A    between atoms: C_16  and  C_18
REMARK    5  A    between atoms: O_24  and  C_28
REMARK                            x       y       z     vdW  Elec       q    Type
REMARK                         _______ _______ _______ _____ _____    ______ ____
ROOT
ATOM      1  F   UNL     1      36.677 -22.220 -18.294  0.00  0.00    -0.201 F 
ATOM      2  C   UNL     1      34.334 -22.218 -18.665  0.00  0.00    +0.173 C 
ATOM      3  C   UNL     1      34.588 -19.901 -20.160  0.00  0.00    +0.054 C 
ATOM      4  C   UNL     1      35.590 -21.658 -18.839  0.00  0.00    +0.176 C 
ATOM      5  C   UNL     1      33.204 -21.645 -19.222  0.00  0.00    +0.041 C 
ATOM      6  C   UNL     1      35.717 -20.492 -19.592  0.00  0.00    +0.047 C 
ATOM      7  C   UNL     1      33.332 -20.478 -19.975  0.00  0.00    +0.018 C 
ENDROOT
BRANCH   3  10
ATOM      8  O   UNL     1      34.498 -17.392 -24.987  0.00  0.00    -0.274 OA
ATOM      9  O   UNL     1      34.330 -19.463 -23.119  0.00  0.00    -0.252 OA
ATOM     10  N   UNL     1      34.717 -18.734 -20.914  0.00  0.00    -0.268 N 
ATOM     11  N   UNL     1      34.792 -17.230 -22.678  0.00  0.00    -0.239 N 
ATOM     12  C   UNL     1      34.735 -16.728 -23.981  0.00  0.00    +0.234 C 
ATOM     13  C   UNL     1      34.586 -18.574 -22.310  0.00  0.00    +0.310 C 
ATOM     14  H   UNL     1      34.926 -17.917 -20.408  0.00  0.00    +0.156 HD
ATOM     15  H   UNL     1      34.992 -16.591 -21.957  0.00  0.00    +0.159 HD
BRANCH  12  16
ATOM     16  C   UNL     1      35.008 -15.236 -24.008  0.00  0.00    +0.112 C 
BRANCH  16  18
ATOM     17  F   UNL     1      32.237 -12.397 -20.026  0.00  0.00    -0.204 F 
ATOM     18  C   UNL     1      34.266 -14.474 -22.941  0.00  0.00    -0.013 C 
ATOM     19  C   UNL     1      33.149 -13.727 -23.287  0.00  0.00    -0.001 C 
ATOM     20  C   UNL     1      34.709 -14.532 -21.628  0.00  0.00    -0.001 C 
ATOM     21  C   UNL     1      32.461 -13.022 -22.299  0.00  0.00    +0.029 C 
ATOM     22  C   UNL     1      34.022 -13.827 -20.640  0.00  0.00    +0.029 C 
ATOM     23  C   UNL     1      32.898 -13.073 -20.975  0.00  0.00    +0.140 C 
ENDBRANCH  16  18
ENDBRANCH  12  16
ENDBRANCH   3  10
BRANCH   2  24
ATOM     24  O   UNL     1      34.208 -23.374 -17.920  0.00  0.00    -0.451 OA
BRANCH  24  28
ATOM     25  N   UNL     1      34.782 -23.062 -13.310  0.00  0.00    -0.297 N 
ATOM     26  N   UNL     1      32.498 -23.029 -14.075  0.00  0.00    -0.229 NA
ATOM     27  C   UNL     1      34.472 -23.211 -15.517  0.00  0.00    +0.067 C 
ATOM     28  C   UNL     1      33.670 -23.263 -16.669  0.00  0.00    +0.150 C 
ATOM     29  C   UNL     1      33.824 -23.096 -14.290  0.00  0.00    +0.135 C 
ATOM     30  C   UNL     1      35.865 -23.245 -15.245  0.00  0.00    +0.022 C 
ATOM     31  C   UNL     1      36.026 -23.151 -13.879  0.00  0.00    +0.063 C 
ATOM     32  C   UNL     1      32.288 -23.197 -16.503  0.00  0.00    +0.058 C 
ATOM     33  C   UNL     1      31.774 -23.085 -15.217  0.00  0.00    +0.103 C 
ATOM     34  H   UNL     1      34.603 -22.984 -12.345  0.00  0.00    +0.154 HD
ENDBRANCH  24  28
ENDBRANCH   2  24
TORSDOF 5
ENDMDL
MODEL 2
REMARK VINA RESULT:     -12.9      4.233      6.156
REMARK  Name = 11560856
REMARK  5 active torsions:
REMARK  status: ('A' for Active; 'I' for Inactive)
REMARK    1  A    between atoms: C_2  and  O_24
REMARK    2  A    between atoms: C_3  and  N_10
REMARK    3  A    between atoms: C_12  and  C_16
REMARK    4  A    between atoms: C_16  and  C_18
REMARK    5  A    between atoms: O_24  and  C_28
REMARK                            x       y       z     vdW  Elec       q    Type
REMARK                         _______ _______ _______ _____ _____    ______ ____
ROOT
ATOM      1  F   UNL     1      34.592 -18.436 -24.324  0.00  0.00    -0.201 F 
ATOM      2  C   UNL     1      35.191 -17.912 -22.090  0.00  0.00    +0.173 C 
ATOM      3  C   UNL     1      34.703 -15.235 -22.603  0.00  0.00    +0.054 C 
ATOM      4  C   UNL     1      34.767 -17.531 -23.352  0.00  0.00    +0.176 C 
ATOM      5  C   UNL     1      35.377 -16.984 -21.079  0.00  0.00    +0.041 C 
ATOM      6  C   UNL     1      34.521 -16.182 -23.610  0.00  0.00    +0.047 C 
ATOM      7  C   UNL     1      35.131 -15.636 -21.337  0.00  0.00    +0.018 C 
ENDROOT
BRANCH   3  10
ATOM      8  O   UNL     1      31.856 -10.706 -21.613  0.00  0.00    -0.274 OA
ATOM      9  O   UNL     1      32.678 -13.368 -21.409  0.00  0.00    -0.252 OA
ATOM     10  N   UNL     1      34.456 -13.886 -22.861  0.00  0.00    -0.268 N 
ATOM     11  N   UNL     1      33.566 -11.745 -22.813  0.00  0.00    -0.239 N 
ATOM     12  C   UNL     1      32.752 -10.668 -22.453  0.00  0.00    +0.234 C 
ATOM     13  C   UNL     1      33.488 -13.044 -22.273  0.00  0.00    +0.310 C 
ATOM     14  H   UNL     1      35.030 -13.468 -23.542  0.00  0.00    +0.156 HD
ATOM     15  H   UNL     1      34.250 -11.583 -23.502  0.00  0.00    +0.159 HD
BRANCH  12  16
ATOM     16  C   UNL     1      33.112  -9.420 -23.236  0.00  0.00    +0.112 C 
BRANCH  16  18
ATOM     17  F   UNL     1      31.035  -4.701 -20.998  0.00  0.00    -0.204 F 
ATOM     18  C   UNL     1      32.555  -8.156 -22.635  0.00  0.00    -0.013 C 
ATOM     19  C   UNL     1      33.279  -7.487 -21.658  0.00  0.00    -0.001 C 
ATOM     20  C   UNL     1      31.327  -7.678 -23.069  0.00  0.00    -0.001 C 
ATOM     21  C   UNL     1      32.763  -6.316 -21.102  0.00  0.00    +0.029 C 
ATOM     22  C   UNL     1      30.811  -6.507 -22.513  0.00  0.00    +0.029 C 
ATOM     23  C   UNL     1      31.529  -5.826 -21.531  0.00  0.00    +0.140 C 
ENDBRANCH  16  18
ENDBRANCH  12  16
ENDBRANCH   3  10
BRANCH   2  24
ATOM     24  O   UNL     1      35.434 -19.247 -21.833  0.00  0.00    -0.451 OA
BRANCH  24  28
ATOM     25  N   UNL     1      35.040 -21.880 -18.013  0.00  0.00    -0.297 N 
ATOM     26  N   UNL     1      32.962 -21.134 -18.977  0.00  0.00    -0.229 NA
ATOM     27  C   UNL     1      35.194 -20.615 -19.848  0.00  0.00    +0.067 C 
ATOM     28  C   UNL     1      34.648 -19.864 -20.901  0.00  0.00    +0.150 C 
ATOM     29  C   UNL     1      34.306 -21.202 -18.951  0.00  0.00    +0.135 C 
ATOM     30  C   UNL     1      36.502 -20.963 -19.418  0.00  0.00    +0.022 C 
ATOM     31  C   UNL     1      36.376 -21.741 -18.287  0.00  0.00    +0.063 C 
ATOM     32  C   UNL     1      33.260 -19.760 -20.975  0.00  0.00    +0.058 C 
ATOM     33  C   UNL     1      32.491 -20.400 -20.011  0.00  0.00    +0.103 C 
ATOM     34  H   UNL     1      34.665 -22.388 -17.258  0.00  0.00    +0.154 HD
ENDBRANCH  24  28
ENDBRANCH   2  24
TORSDOF 5
ENDMDL
MODEL 3
REMARK VINA RESULT:     -12.7      4.609     11.746
REMARK  Name = 11560856
REMARK  5 active torsions:
REMARK  status: ('A' for Active; 'I' for Inactive)
REMARK    1  A    between atoms: C_2  and  O_24
REMARK    2  A    between atoms: C_3  and  N_10
REMARK    3  A    between atoms: C_12  and  C_16
REMARK    4  A    between atoms: C_16  and  C_18
REMARK    5  A    between atoms: O_24  and  C_28
REMARK                            x       y       z     vdW  Elec       q    Type
REMARK                         _______ _______ _______ _____ _____    ______ ____
ROOT
ATOM      1  F   UNL     1      33.230 -10.585 -23.479  0.00  0.00    -0.201 F 
ATOM      2  C   UNL     1      31.947 -11.103 -21.552  0.00  0.00    +0.173 C 
ATOM      3  C   UNL     1      33.440 -13.406 -21.194  0.00  0.00    +0.054 C 
ATOM      4  C   UNL     1      32.963 -11.397 -22.447  0.00  0.00    +0.176 C 
ATOM      5  C   UNL     1      31.661 -11.935 -20.483  0.00  0.00    +0.041 C 
ATOM      6  C   UNL     1      33.715 -12.557 -22.265  0.00  0.00    +0.047 C 
ATOM      7  C   UNL     1      32.413 -13.095 -20.303  0.00  0.00    +0.018 C 
ENDROOT
BRANCH   3  10
ATOM      8  O   UNL     1      35.680 -17.924 -23.237  0.00  0.00    -0.274 OA
ATOM      9  O   UNL     1      34.240 -15.532 -23.158  0.00  0.00    -0.252 OA
ATOM     10  N   UNL     1      34.194 -14.566 -21.013  0.00  0.00    -0.268 N 
ATOM     11  N   UNL     1      35.320 -16.561 -21.378  0.00  0.00    -0.239 N 
ATOM     12  C   UNL     1      35.833 -17.678 -22.043  0.00  0.00    +0.234 C 
ATOM     13  C   UNL     1      34.547 -15.541 -21.969  0.00  0.00    +0.310 C 
ATOM     14  H   UNL     1      34.523 -14.725 -20.099  0.00  0.00    +0.156 HD
ATOM     15  H   UNL     1      35.514 -16.479 -20.417  0.00  0.00    +0.159 HD
BRANCH  12  16
ATOM     16  C   UNL     1      36.616 -18.569 -21.098  0.00  0.00    +0.112 C 
BRANCH  16  18
ATOM     17  F   UNL     1      33.424 -22.371 -18.461  0.00  0.00    -0.204 F 
ATOM     18  C   UNL     1      35.761 -19.588 -20.392  0.00  0.00    -0.013 C 
ATOM     19  C   UNL     1      36.363 -20.548 -19.591  0.00  0.00    -0.001 C 
ATOM     20  C   UNL     1      34.384 -19.552 -20.552  0.00  0.00    -0.001 C 
ATOM     21  C   UNL     1      35.571 -21.492 -18.937  0.00  0.00    +0.029 C 
ATOM     22  C   UNL     1      33.591 -20.496 -19.898  0.00  0.00    +0.029 C 
ATOM     23  C   UNL     1      34.185 -21.464 -19.090  0.00  0.00    +0.140 C 
ENDBRANCH  16  18
ENDBRANCH  12  16
ENDBRANCH   3  10
BRANCH   2  24
ATOM     24  O   UNL     1      31.202  -9.953 -21.730  0.00  0.00    -0.451 OA
BRANCH  24  28
ATOM     25  N   UNL     1      32.152  -5.494 -22.673  0.00  0.00    -0.297 N 
ATOM     26  N   UNL     1      32.991  -6.309 -20.566  0.00  0.00    -0.229 NA
ATOM     27  C   UNL     1      31.714  -7.630 -22.191  0.00  0.00    +0.067 C 
ATOM     28  C   UNL     1      31.775  -8.767 -21.369  0.00  0.00    +0.150 C 
ATOM     29  C   UNL     1      32.330  -6.470 -21.728  0.00  0.00    +0.135 C 
ATOM     30  C   UNL     1      31.152  -7.320 -23.457  0.00  0.00    +0.022 C 
ATOM     31  C   UNL     1      31.438  -5.998 -23.727  0.00  0.00    +0.063 C 
ATOM     32  C   UNL     1      32.447  -8.655 -20.153  0.00  0.00    +0.058 C 
ATOM     33  C   UNL     1      33.020  -7.435 -19.816  0.00  0.00    +0.103 C 
ATOM     34  H   UNL     1      32.487  -4.570 -22.603  0.00  0.00    +0.154 HD
ENDBRANCH  24  28
ENDBRANCH   2  24
TORSDOF 5
ENDMDL
MODEL 4
REMARK VINA RESULT:     -12.6      2.943      9.664
REMARK  Name = 11560856
REMARK  5 active torsions:
REMARK  status: ('A' for Active; 'I' for Inactive)
REMARK    1  A    between atoms: C_2  and  O_24
REMARK    2  A    between atoms: C_3  and  N_10
REMARK    3  A    between atoms: C_12  and  C_16
REMARK    4  A    between atoms: C_16  and  C_18
REMARK    5  A    between atoms: O_24  and  C_28
REMARK                            x       y       z     vdW  Elec       q    Type
REMARK                         _______ _______ _______ _____ _____    ______ ____
ROOT
ATOM      1  F   UNL     1      37.004 -21.040 -19.750  0.00  0.00    -0.201 F 
ATOM      2  C   UNL     1      35.052 -19.958 -20.554  0.00  0.00    +0.173 C 
ATOM      3  C   UNL     1      33.517 -21.468 -18.813  0.00  0.00    +0.054 C 
ATOM      4  C   UNL     1      35.675 -20.875 -19.722  0.00  0.00    +0.176 C 
ATOM      5  C   UNL     1      33.679 -19.781 -20.535  0.00  0.00    +0.041 C 
ATOM      6  C   UNL     1      34.901 -21.634 -18.845  0.00  0.00    +0.047 C 
ATOM      7  C   UNL     1      32.906 -20.541 -19.657  0.00  0.00    +0.018 C 
ENDROOT
BRANCH   3  10
ATOM      8  O   UNL     1      33.075 -24.306 -14.192  0.00  0.00    -0.274 OA
ATOM      9  O   UNL     1      34.246 -22.759 -16.202  0.00  0.00    -0.252 OA
ATOM     10  N   UNL     1      32.744 -22.227 -17.934  0.00  0.00    -0.268 N 
ATOM     11  N   UNL     1      32.047 -23.503 -16.126  0.00  0.00    -0.239 N 
ATOM     12  C   UNL     1      32.087 -24.198 -14.915  0.00  0.00    +0.234 C 
ATOM     13  C   UNL     1      33.130 -22.817 -16.711  0.00  0.00    +0.310 C 
ATOM     14  H   UNL     1      31.808 -22.370 -18.200  0.00  0.00    +0.156 HD
ATOM     15  H   UNL     1      31.191 -23.492 -16.612  0.00  0.00    +0.159 HD
BRANCH  12  16
ATOM     16  C   UNL     1      30.741 -24.816 -14.590  0.00  0.00    +0.112 C 
BRANCH  16  18
ATOM     17  F   UNL     1      26.386 -21.755 -16.395  0.00  0.00    -0.204 F 
ATOM     18  C   UNL     1      29.574 -23.995 -15.075  0.00  0.00    -0.013 C 
ATOM     19  C   UNL     1      28.820 -24.447 -16.148  0.00  0.00    -0.001 C 
ATOM     20  C   UNL     1      29.270 -22.800 -14.439  0.00  0.00    -0.001 C 
ATOM     21  C   UNL     1      27.739 -23.687 -16.596  0.00  0.00    +0.029 C 
ATOM     22  C   UNL     1      28.190 -22.040 -14.887  0.00  0.00    +0.029 C 
ATOM     23  C   UNL     1      27.424 -22.484 -15.965  0.00  0.00    +0.140 C 
ENDBRANCH  16  18
ENDBRANCH  12  16
ENDBRANCH   3  10
BRANCH   2  24
ATOM     24  O   UNL     1      35.818 -19.205 -21.422  0.00  0.00    -0.451 OA
BRANCH  24  28
ATOM     25  N   UNL     1      34.305 -15.532 -23.851  0.00  0.00    -0.297 N 
ATOM     26  N   UNL     1      33.902 -17.681 -24.863  0.00  0.00    -0.229 NA
ATOM     27  C   UNL     1      35.018 -17.315 -22.711  0.00  0.00    +0.067 C 
ATOM     28  C   UNL     1      35.200 -18.696 -22.530  0.00  0.00    +0.150 C 
ATOM     29  C   UNL     1      34.377 -16.901 -23.875  0.00  0.00    +0.135 C 
ATOM     30  C   UNL     1      35.334 -16.143 -21.975  0.00  0.00    +0.022 C 
ATOM     31  C   UNL     1      34.883 -15.061 -22.702  0.00  0.00    +0.063 C 
ATOM     32  C   UNL     1      34.727 -19.550 -23.524  0.00  0.00    +0.058 C 
ATOM     33  C   UNL     1      34.103 -19.000 -24.636  0.00  0.00    +0.103 C 
ATOM     34  H   UNL     1      33.899 -14.974 -24.553  0.00  0.00    +0.154 HD
ENDBRANCH  24  28
ENDBRANCH   2  24
TORSDOF 5
ENDMDL
MODEL 5
REMARK VINA RESULT:     -12.5      2.466      3.967
REMARK  Name = 11560856
REMARK  5 active torsions:
REMARK  status: ('A' for Active; 'I' for Inactive)
REMARK    1  A    between atoms: C_2  and  O_24
REMARK    2  A    between atoms: C_3  and  N_10
REMARK    3  A    between atoms: C_12  and  C_16
REMARK    4  A    between atoms: C_16  and  C_18
REMARK    5  A    between atoms: O_24  and  C_28
REMARK                            x       y       z     vdW  Elec       q    Type
REMARK                         _______ _______ _______ _____ _____    ______ ____
ROOT
ATOM      1  F   UNL     1      32.886 -23.854 -16.357  0.00  0.00    -0.201 F 
ATOM      2  C   UNL     1      35.078 -23.397 -15.574  0.00  0.00    +0.173 C 
ATOM      3  C   UNL     1      35.505 -21.762 -17.767  0.00  0.00    +0.054 C 
ATOM      4  C   UNL     1      34.064 -23.233 -16.504  0.00  0.00    +0.176 C 
ATOM      5  C   UNL     1      36.300 -22.762 -15.717  0.00  0.00    +0.041 C 
ATOM      6  C   UNL     1      34.279 -22.408 -17.607  0.00  0.00    +0.047 C 
ATOM      7  C   UNL     1      36.515 -21.938 -16.821  0.00  0.00    +0.018 C 
ENDROOT
BRANCH   3  10
ATOM      8  O   UNL     1      33.603 -19.281 -22.220  0.00  0.00    -0.274 OA
ATOM      9  O   UNL     1      33.612 -20.863 -19.918  0.00  0.00    -0.252 OA
ATOM     10  N   UNL     1      35.719 -20.936 -18.871  0.00  0.00    -0.268 N 
ATOM     11  N   UNL     1      35.412 -19.696 -20.807  0.00  0.00    -0.239 N 
ATOM     12  C   UNL     1      34.783 -19.126 -21.917  0.00  0.00    +0.234 C 
ATOM     13  C   UNL     1      34.795 -20.538 -19.861  0.00  0.00    +0.310 C 
ATOM     14  H   UNL     1      36.632 -20.585 -18.973  0.00  0.00    +0.156 HD
ATOM     15  H   UNL     1      36.366 -19.493 -20.676  0.00  0.00    +0.159 HD
BRANCH  12  16
ATOM     16  C   UNL     1      35.749 -18.276 -22.721  0.00  0.00    +0.112 C 
BRANCH  16  18
ATOM     17  F   UNL     1      33.521 -13.415 -24.454  0.00  0.00    -0.204 F 
ATOM     18  C   UNL     1      35.153 -16.973 -23.185  0.00  0.00    -0.013 C 
ATOM     19  C   UNL     1      34.604 -16.889 -24.457  0.00  0.00    -0.001 C 
ATOM     20  C   UNL     1      35.161 -15.877 -22.335  0.00  0.00    -0.001 C 
ATOM     21  C   UNL     1      34.051 -15.682 -24.887  0.00  0.00    +0.029 C 
ATOM     22  C   UNL     1      34.608 -14.670 -22.765  0.00  0.00    +0.029 C 
ATOM     23  C   UNL     1      34.053 -14.573 -24.040  0.00  0.00    +0.140 C 
ENDBRANCH  16  18
ENDBRANCH  12  16
ENDBRANCH   3  10
BRANCH   2  24
ATOM     24  O   UNL     1      34.865 -24.213 -14.480  0.00  0.00    -0.451 OA
BRANCH  24  28
ATOM     25  N   UNL     1      38.130 -24.248 -11.160  0.00  0.00    -0.297 N 
ATOM     26  N   UNL     1      38.244 -26.059 -12.745  0.00  0.00    -0.229 NA
ATOM     27  C   UNL     1      36.578 -24.260 -12.766  0.00  0.00    +0.067 C 
ATOM     28  C   UNL     1      35.959 -24.798 -13.906  0.00  0.00    +0.150 C 
ATOM     29  C   UNL     1      37.686 -24.934 -12.260  0.00  0.00    +0.135 C 
ATOM     30  C   UNL     1      36.364 -23.133 -11.929  0.00  0.00    +0.022 C 
ATOM     31  C   UNL     1      37.334 -23.153 -10.949  0.00  0.00    +0.063 C 
ATOM     32  C   UNL     1      36.496 -25.964 -14.449  0.00  0.00    +0.058 C 
ATOM     33  C   UNL     1      37.609 -26.532 -13.842  0.00  0.00    +0.103 C 
ATOM     34  H   UNL     1      38.903 -24.504 -10.606  0.00  0.00    +0.154 HD
ENDBRANCH  24  28
ENDBRANCH   2  24
TORSDOF 5
ENDMDL
MODEL 6
REMARK VINA RESULT:     -12.4      4.104     11.246
REMARK  Name = 11560856
REMARK  5 active torsions:
REMARK  status: ('A' for Active; 'I' for Inactive)
REMARK    1  A    between atoms: C_2  and  O_24
REMARK    2  A    between atoms: C_3  and  N_10
REMARK    3  A    between atoms: C_12  and  C_16
REMARK    4  A    between atoms: C_16  and  C_18
REMARK    5  A    between atoms: O_24  and  C_28
REMARK                            x       y       z     vdW  Elec       q    Type
REMARK                         _______ _______ _______ _____ _____    ______ ____
ROOT
ATOM      1  F   UNL     1      31.026 -11.846 -20.412  0.00  0.00    -0.201 F 
ATOM      2  C   UNL     1      32.578 -11.478 -22.168  0.00  0.00    +0.173 C 
ATOM      3  C   UNL     1      33.896 -13.811 -21.470  0.00  0.00    +0.054 C 
ATOM      4  C   UNL     1      32.106 -12.231 -21.104  0.00  0.00    +0.176 C 
ATOM      5  C   UNL     1      33.694 -11.866 -22.889  0.00  0.00    +0.041 C 
ATOM      6  C   UNL     1      32.770 -13.406 -20.755  0.00  0.00    +0.047 C 
ATOM      7  C   UNL     1      34.358 -13.042 -22.538  0.00  0.00    +0.018 C 
ENDROOT
BRANCH   3  10
ATOM      8  O   UNL     1      35.937 -18.654 -22.880  0.00  0.00    -0.274 OA
ATOM      9  O   UNL     1      34.659 -16.184 -23.145  0.00  0.00    -0.252 OA
ATOM     10  N   UNL     1      34.559 -14.988 -21.120  0.00  0.00    -0.268 N 
ATOM     11  N   UNL     1      35.566 -17.076 -21.202  0.00  0.00    -0.239 N 
ATOM     12  C   UNL     1      36.038 -18.288 -21.711  0.00  0.00    +0.234 C 
ATOM     13  C   UNL     1      34.898 -16.082 -21.945  0.00  0.00    +0.310 C 
ATOM     14  H   UNL     1      34.824 -15.066 -20.176  0.00  0.00    +0.156 HD
ATOM     15  H   UNL     1      35.711 -16.902 -20.244  0.00  0.00    +0.159 HD
BRANCH  12  16
ATOM     16  C   UNL     1      36.705 -19.117 -20.630  0.00  0.00    +0.112 C 
BRANCH  16  18
ATOM     17  F   UNL     1      33.214 -22.745 -18.131  0.00  0.00    -0.204 F 
ATOM     18  C   UNL     1      35.770 -20.090 -19.961  0.00  0.00    -0.013 C 
ATOM     19  C   UNL     1      36.286 -21.062 -19.116  0.00  0.00    -0.001 C 
ATOM     20  C   UNL     1      34.406 -19.998 -20.199  0.00  0.00    -0.001 C 
ATOM     21  C   UNL     1      35.419 -21.963 -18.496  0.00  0.00    +0.029 C 
ATOM     22  C   UNL     1      33.540 -20.899 -19.579  0.00  0.00    +0.029 C 
ATOM     23  C   UNL     1      34.046 -21.880 -18.727  0.00  0.00    +0.140 C 
ENDBRANCH  16  18
ENDBRANCH  12  16
ENDBRANCH   3  10
BRANCH   2  24
ATOM     24  O   UNL     1      31.920 -10.315 -22.516  0.00  0.00    -0.451 OA
BRANCH  24  28
ATOM     25  N   UNL     1      33.343  -7.025 -19.544  0.00  0.00    -0.297 N 
ATOM     26  N   UNL     1      33.922  -6.656 -21.853  0.00  0.00    -0.229 NA
ATOM     27  C   UNL     1      32.674  -8.585 -20.996  0.00  0.00    +0.067 C 
ATOM     28  C   UNL     1      32.564  -9.132 -22.284  0.00  0.00    +0.150 C 
ATOM     29  C   UNL     1      33.352  -7.375 -20.869  0.00  0.00    +0.135 C 
ATOM     30  C   UNL     1      32.251  -8.958 -19.693  0.00  0.00    +0.022 C 
ATOM     31  C   UNL     1      32.677  -7.980 -18.820  0.00  0.00    +0.063 C 
ATOM     32  C   UNL     1      33.139  -8.428 -23.341  0.00  0.00    +0.058 C 
ATOM     33  C   UNL     1      33.785  -7.229 -23.071  0.00  0.00    +0.103 C 
ATOM     34  H   UNL     1      33.753  -6.212 -19.169  0.00  0.00    +0.154 HD
ENDBRANCH  24  28
ENDBRANCH   2  24
TORSDOF 5
ENDMDL
MODEL 7
REMARK VINA RESULT:     -12.4      3.027     10.644
REMARK  Name = 11560856
REMARK  5 active torsions:
REMARK  status: ('A' for Active; 'I' for Inactive)
REMARK    1  A    between atoms: C_2  and  O_24
REMARK    2  A    between atoms: C_3  and  N_10
REMARK    3  A    between atoms: C_12  and  C_16
REMARK    4  A    between atoms: C_16  and  C_18
REMARK    5  A    between atoms: O_24  and  C_28
REMARK                            x       y       z     vdW  Elec       q    Type
REMARK                         _______ _______ _______ _____ _____    ______ ____
ROOT
ATOM      1  F   UNL     1      37.965 -18.287 -21.579  0.00  0.00    -0.201 F 
ATOM      2  C   UNL     1      35.620 -18.608 -21.737  0.00  0.00    +0.173 C 
ATOM      3  C   UNL     1      35.753 -20.476 -19.698  0.00  0.00    +0.054 C 
ATOM      4  C   UNL     1      36.847 -18.896 -21.162  0.00  0.00    +0.176 C 
ATOM      5  C   UNL     1      34.458 -19.232 -21.315  0.00  0.00    +0.041 C 
ATOM      6  C   UNL     1      36.913 -19.836 -20.134  0.00  0.00    +0.047 C 
ATOM      7  C   UNL     1      34.526 -20.173 -20.288  0.00  0.00    +0.018 C 
ENDROOT
BRANCH   3  10
ATOM      8  O   UNL     1      37.718 -22.022 -14.865  0.00  0.00    -0.274 OA
ATOM      9  O   UNL     1      37.298 -20.432 -17.124  0.00  0.00    -0.252 OA
ATOM     10  N   UNL     1      35.820 -21.415 -18.668  0.00  0.00    -0.268 N 
ATOM     11  N   UNL     1      36.354 -22.510 -16.695  0.00  0.00    -0.239 N 
ATOM     12  C   UNL     1      36.939 -22.770 -15.453  0.00  0.00    +0.234 C 
ATOM     13  C   UNL     1      36.563 -21.353 -17.471  0.00  0.00    +0.310 C 
ATOM     14  H   UNL     1      35.279 -22.227 -18.794  0.00  0.00    +0.156 HD
ATOM     15  H   UNL     1      35.746 -23.193 -17.059  0.00  0.00    +0.159 HD
BRANCH  12  16
ATOM     16  C   UNL     1      36.492 -24.111 -14.903  0.00  0.00    +0.112 C 
BRANCH  16  18
ATOM     17  F   UNL     1      35.876 -24.142  -9.316  0.00  0.00    -0.204 F 
ATOM     18  C   UNL     1      36.327 -24.118 -13.406  0.00  0.00    -0.013 C 
ATOM     19  C   UNL     1      35.102 -23.775 -12.853  0.00  0.00    -0.001 C 
ATOM     20  C   UNL     1      37.402 -24.470 -12.603  0.00  0.00    -0.001 C 
ATOM     21  C   UNL     1      34.949 -23.782 -11.466  0.00  0.00    +0.029 C 
ATOM     22  C   UNL     1      37.250 -24.477 -11.216  0.00  0.00    +0.029 C 
ATOM     23  C   UNL     1      36.023 -24.134 -10.648  0.00  0.00    +0.140 C 
ENDBRANCH  16  18
ENDBRANCH  12  16
ENDBRANCH   3  10
BRANCH   2  24
ATOM     24  O   UNL     1      35.553 -17.675 -22.754  0.00  0.00    -0.451 OA
BRANCH  24  28
ATOM     25  N   UNL     1      33.342 -13.799 -24.082  0.00  0.00    -0.297 N 
ATOM     26  N   UNL     1      33.993 -13.878 -21.764  0.00  0.00    -0.229 NA
ATOM     27  C   UNL     1      34.406 -15.645 -23.413  0.00  0.00    +0.067 C 
ATOM     28  C   UNL     1      35.043 -16.445 -22.450  0.00  0.00    +0.150 C 
ATOM     29  C   UNL     1      33.920 -14.408 -22.999  0.00  0.00    +0.135 C 
ATOM     30  C   UNL     1      34.099 -15.766 -24.794  0.00  0.00    +0.022 C 
ATOM     31  C   UNL     1      33.444 -14.615 -25.177  0.00  0.00    +0.063 C 
ATOM     32  C   UNL     1      35.146 -15.944 -21.153  0.00  0.00    +0.058 C 
ATOM     33  C   UNL     1      34.618 -14.689 -20.878  0.00  0.00    +0.103 C 
ATOM     34  H   UNL     1      32.917 -12.911 -24.073  0.00  0.00    +0.154 HD
ENDBRANCH  24  28
ENDBRANCH   2  24
TORSDOF 5
ENDMDL
MODEL 8
REMARK VINA RESULT:     -12.4      0.929      2.173
REMARK  Name = 11560856
REMARK  5 active torsions:
REMARK  status: ('A' for Active; 'I' for Inactive)
REMARK    1  A    between atoms: C_2  and  O_24
REMARK    2  A    between atoms: C_3  and  N_10
REMARK    3  A    between atoms: C_12  and  C_16
REMARK    4  A    between atoms: C_16  and  C_18
REMARK    5  A    between atoms: O_24  and  C_28
REMARK                            x       y       z     vdW  Elec       q    Type
REMARK                         _______ _______ _______ _____ _____    ______ ____
ROOT
ATOM      1  F   UNL     1      32.232 -21.830 -18.624  0.00  0.00    -0.201 F 
ATOM      2  C   UNL     1      34.592 -22.044 -18.726  0.00  0.00    +0.173 C 
ATOM      3  C   UNL     1      34.716 -19.761 -20.289  0.00  0.00    +0.054 C 
ATOM      4  C   UNL     1      33.420 -21.382 -19.052  0.00  0.00    +0.176 C 
ATOM      5  C   UNL     1      35.825 -21.591 -19.165  0.00  0.00    +0.041 C 
ATOM      6  C   UNL     1      33.483 -20.231 -19.838  0.00  0.00    +0.047 C 
ATOM      7  C   UNL     1      35.887 -20.441 -19.952  0.00  0.00    +0.018 C 
ENDROOT
BRANCH   3  10
ATOM      8  O   UNL     1      34.405 -17.378 -25.170  0.00  0.00    -0.274 OA
ATOM      9  O   UNL     1      34.366 -19.407 -23.249  0.00  0.00    -0.252 OA
ATOM     10  N   UNL     1      34.779 -18.610 -21.074  0.00  0.00    -0.268 N 
ATOM     11  N   UNL     1      34.749 -17.147 -22.874  0.00  0.00    -0.239 N 
ATOM     12  C   UNL     1      34.640 -16.680 -24.186  0.00  0.00    +0.234 C 
ATOM     13  C   UNL     1      34.607 -18.489 -22.469  0.00  0.00    +0.310 C 
ATOM     14  H   UNL     1      34.968 -17.773 -20.593  0.00  0.00    +0.156 HD
ATOM     15  H   UNL     1      34.942 -16.483 -22.173  0.00  0.00    +0.159 HD
BRANCH  12  16
ATOM     16  C   UNL     1      34.852 -15.180 -24.256  0.00  0.00    +0.112 C 
BRANCH  16  18
ATOM     17  F   UNL     1      32.428 -12.385 -20.024  0.00  0.00    -0.204 F 
ATOM     18  C   UNL     1      34.201 -14.432 -23.122  0.00  0.00    -0.013 C 
ATOM     19  C   UNL     1      34.746 -14.515 -21.848  0.00  0.00    -0.001 C 
ATOM     20  C   UNL     1      33.069 -13.669 -23.368  0.00  0.00    -0.001 C 
ATOM     21  C   UNL     1      34.143 -13.822 -20.797  0.00  0.00    +0.029 C 
ATOM     22  C   UNL     1      32.467 -12.976 -22.317  0.00  0.00    +0.029 C 
ATOM     23  C   UNL     1      33.005 -13.051 -21.033  0.00  0.00    +0.140 C 
ENDBRANCH  16  18
ENDBRANCH  12  16
ENDBRANCH   3  10
BRANCH   2  24
ATOM     24  O   UNL     1      34.531 -23.183 -17.947  0.00  0.00    -0.451 OA
BRANCH  24  28
ATOM     25  N   UNL     1      32.718 -23.135 -13.658  0.00  0.00    -0.297 N 
ATOM     26  N   UNL     1      35.087 -22.714 -13.787  0.00  0.00    -0.229 NA
ATOM     27  C   UNL     1      33.619 -23.150 -15.702  0.00  0.00    +0.067 C 
ATOM     28  C   UNL     1      34.694 -23.034 -16.598  0.00  0.00    +0.150 C 
ATOM     29  C   UNL     1      33.893 -22.982 -14.347  0.00  0.00    +0.135 C 
ATOM     30  C   UNL     1      32.228 -23.413 -15.811  0.00  0.00    +0.022 C 
ATOM     31  C   UNL     1      31.700 -23.398 -14.537  0.00  0.00    +0.063 C 
ATOM     32  C   UNL     1      35.954 -22.758 -16.070  0.00  0.00    +0.058 C 
ATOM     33  C   UNL     1      36.085 -22.612 -14.695  0.00  0.00    +0.103 C 
ATOM     34  H   UNL     1      32.622 -23.068 -12.680  0.00  0.00    +0.154 HD
ENDBRANCH  24  28
ENDBRANCH   2  24
TORSDOF 5
ENDMDL
MODEL 9
REMARK VINA RESULT:     -12.3      2.694     10.021
REMARK  Name = 11560856
REMARK  5 active torsions:
REMARK  status: ('A' for Active; 'I' for Inactive)
REMARK    1  A    between atoms: C_2  and  O_24
REMARK    2  A    between atoms: C_3  and  N_10
REMARK    3  A    between atoms: C_12  and  C_16
REMARK    4  A    between atoms: C_16  and  C_18
REMARK    5  A    between atoms: O_24  and  C_28
REMARK                            x       y       z     vdW  Elec       q    Type
REMARK                         _______ _______ _______ _____ _____    ______ ____
ROOT
ATOM      1  F   UNL     1      38.007 -18.289 -21.521  0.00  0.00    -0.201 F 
ATOM      2  C   UNL     1      35.658 -18.477 -21.791  0.00  0.00    +0.173 C 
ATOM      3  C   UNL     1      35.585 -20.331 -19.736  0.00  0.00    +0.054 C 
ATOM      4  C   UNL     1      36.837 -18.830 -21.155  0.00  0.00    +0.176 C 
ATOM      5  C   UNL     1      34.444 -19.031 -21.423  0.00  0.00    +0.041 C 
ATOM      6  C   UNL     1      36.800 -19.763 -20.120  0.00  0.00    +0.047 C 
ATOM      7  C   UNL     1      34.407 -19.965 -20.387  0.00  0.00    +0.018 C 
ENDROOT
BRANCH   3  10
ATOM      8  O   UNL     1      37.509 -22.156 -14.985  0.00  0.00    -0.274 OA
ATOM      9  O   UNL     1      37.244 -20.530 -17.241  0.00  0.00    -0.252 OA
ATOM     10  N   UNL     1      35.549 -21.264 -18.699  0.00  0.00    -0.268 N 
ATOM     11  N   UNL     1      35.994 -22.422 -16.740  0.00  0.00    -0.239 N 
ATOM     12  C   UNL     1      36.590 -22.768 -15.524  0.00  0.00    +0.234 C 
ATOM     13  C   UNL     1      36.351 -21.318 -17.540  0.00  0.00    +0.310 C 
ATOM     14  H   UNL     1      34.876 -21.976 -18.787  0.00  0.00    +0.156 HD
ATOM     15  H   UNL     1      35.265 -22.998 -17.065  0.00  0.00    +0.159 HD
BRANCH  12  16
ATOM     16  C   UNL     1      35.957 -24.015 -14.936  0.00  0.00    +0.112 C 
BRANCH  16  18
ATOM     17  F   UNL     1      30.569 -23.314 -13.496  0.00  0.00    -0.204 F 
ATOM     18  C   UNL     1      34.513 -23.826 -14.550  0.00  0.00    -0.013 C 
ATOM     19  C   UNL     1      33.576 -23.535 -15.532  0.00  0.00    -0.001 C 
ATOM     20  C   UNL     1      34.142 -23.947 -13.219  0.00  0.00    -0.001 C 
ATOM     21  C   UNL     1      32.239 -23.361 -15.174  0.00  0.00    +0.029 C 
ATOM     22  C   UNL     1      32.804 -23.772 -12.862  0.00  0.00    +0.029 C 
ATOM     23  C   UNL     1      31.854 -23.481 -13.839  0.00  0.00    +0.140 C 
ENDBRANCH  16  18
ENDBRANCH  12  16
ENDBRANCH   3  10
BRANCH   2  24
ATOM     24  O   UNL     1      35.694 -17.552 -22.816  0.00  0.00    -0.451 OA
BRANCH  24  28
ATOM     25  N   UNL     1      33.345 -13.864 -24.416  0.00  0.00    -0.297 N 
ATOM     26  N   UNL     1      33.896 -13.805 -22.072  0.00  0.00    -0.229 NA
ATOM     27  C   UNL     1      34.473 -15.618 -23.617  0.00  0.00    +0.067 C 
ATOM     28  C   UNL     1      35.108 -16.338 -22.592  0.00  0.00    +0.150 C 
ATOM     29  C   UNL     1      33.905 -14.392 -23.282  0.00  0.00    +0.135 C 
ATOM     30  C   UNL     1      34.235 -15.818 -25.003  0.00  0.00    +0.022 C 
ATOM     31  C   UNL     1      33.538 -14.722 -25.467  0.00  0.00    +0.063 C 
ATOM     32  C   UNL     1      35.126 -15.775 -21.317  0.00  0.00    +0.058 C 
ATOM     33  C   UNL     1      34.521 -14.540 -21.124  0.00  0.00    +0.103 C 
ATOM     34  H   UNL     1      32.874 -13.001 -24.467  0.00  0.00    +0.154 HD
ENDBRANCH  24  28
ENDBRANCH   2  24
TORSDOF 5
ENDMDL
