MODEL 1
REMARK VINA RESULT:     -11.9      0.000      0.000
REMARK  Name = 66571548
REMARK  8 active torsions:
REMARK  status: ('A' for Active; 'I' for Inactive)
REMARK    1  A    between atoms: C_2  and  C_10
REMARK    2  A    between atoms: C_2  and  C_22
REMARK    3  A    between atoms: N_3  and  C_15
REMARK    4  A    between atoms: C_15  and  C_18
REMARK    5  A    between atoms: C_18  and  O_19
REMARK    6  A    between atoms: C_25  and  N_28
REMARK    7  A    between atoms: C_29  and  C_31
REMARK    8  A    between atoms: C_31  and  C_34
REMARK                            x       y       z     vdW  Elec       q    Type
REMARK                         _______ _______ _______ _____ _____    ______ ____
ROOT
ATOM      1  O   UNL     1      36.536 -22.387 -17.742  0.00  0.00    -0.286 OA
ATOM      2  C   UNL     1      35.311 -22.261 -17.527  0.00  0.00    +0.199 C 
ENDROOT
BRANCH   2  10
ATOM      3  N   UNL     1      33.140 -23.458 -14.905  0.00  0.00    -0.261 N 
ATOM      4  N   UNL     1      34.513 -24.348 -13.134  0.00  0.00    -0.322 NA
ATOM      5  N   UNL     1      36.896 -24.186 -13.608  0.00  0.00    -0.170 NA
ATOM      6  N   UNL     1      36.111 -25.123 -11.613  0.00  0.00    -0.293 N 
ATOM      7  C   UNL     1      34.346 -23.766 -14.334  0.00  0.00    +0.201 C 
ATOM      8  C   UNL     1      33.347 -22.877 -16.129  0.00  0.00    +0.071 C 
ATOM      9  C   UNL     1      35.348 -23.372 -15.213  0.00  0.00    +0.069 C 
ATOM     10  C   UNL     1      34.707 -22.810 -16.347  0.00  0.00    +0.059 C 
ATOM     11  C   UNL     1      36.662 -23.603 -14.807  0.00  0.00    +0.116 C 
ATOM     12  C   UNL     1      35.822 -24.518 -12.857  0.00  0.00    +0.143 C 
ATOM     13  H   UNL     1      35.376 -25.391 -11.014  0.00  0.00    +0.155 HD
ATOM     14  H   UNL     1      37.045 -25.278 -11.345  0.00  0.00    +0.155 HD
BRANCH   3  15
ATOM     15  C   UNL     1      31.756 -23.717 -14.278  0.00  0.00    +0.091 C 
ATOM     16  C   UNL     1      31.467 -22.846 -13.032  0.00  0.00    +0.023 C 
ATOM     17  C   UNL     1      30.662 -23.389 -15.320  0.00  0.00    +0.023 C 
BRANCH  15  18
ATOM     18  C   UNL     1      31.621 -25.206 -13.870  0.00  0.00    +0.155 C 
BRANCH  18  19
ATOM     19  O   UNL     1      31.922 -25.379 -12.489  0.00  0.00    -0.380 OA
ATOM     20  H   UNL     1      31.368 -26.086 -12.123  0.00  0.00    +0.211 HD
ENDBRANCH  18  19
ENDBRANCH  15  18
ENDBRANCH   3  15
ENDBRANCH   2  10
BRANCH   2  22
ATOM     21  N   UNL     1      32.395 -20.962 -19.559  0.00  0.00    -0.241 NA
ATOM     22  C   UNL     1      34.534 -21.508 -18.572  0.00  0.00    +0.059 C 
ATOM     23  C   UNL     1      35.177 -20.690 -19.495  0.00  0.00    +0.021 C 
ATOM     24  C   UNL     1      33.154 -21.610 -18.646  0.00  0.00    +0.102 C 
ATOM     25  C   UNL     1      34.431 -20.008 -20.450  0.00  0.00    +0.070 C 
ATOM     26  C   UNL     1      33.055 -20.176 -20.440  0.00  0.00    +0.113 C 
BRANCH  25  28
ATOM     27  O   UNL     1      35.348 -17.158 -20.226  0.00  0.00    -0.274 OA
ATOM     28  N   UNL     1      35.048 -19.183 -21.387  0.00  0.00    -0.282 N 
ATOM     29  C   UNL     1      35.461 -17.848 -21.235  0.00  0.00    +0.232 C 
ATOM     30  H   UNL     1      35.214 -19.586 -22.269  0.00  0.00    +0.155 HD
BRANCH  29  31
ATOM     31  C   UNL     1      36.094 -17.319 -22.513  0.00  0.00    +0.131 C 
BRANCH  31  34
ATOM     32 CL   UNL     1      32.682 -13.355 -25.347  0.00  0.00    -0.081 Cl
ATOM     33  N   UNL     1      35.183 -15.078 -22.769  0.00  0.00    -0.247 NA
ATOM     34  C   UNL     1      35.221 -16.340 -23.253  0.00  0.00    +0.068 C 
ATOM     35  C   UNL     1      34.514 -16.765 -24.366  0.00  0.00    +0.016 C 
ATOM     36  C   UNL     1      33.718 -15.836 -25.026  0.00  0.00    +0.014 C 
ATOM     37  C   UNL     1      34.399 -14.202 -23.437  0.00  0.00    +0.110 C 
ATOM     38  C   UNL     1      33.653 -14.528 -24.559  0.00  0.00    +0.077 C 
ENDBRANCH  31  34
ENDBRANCH  29  31
ENDBRANCH  25  28
ENDBRANCH   2  22
TORSDOF 8
ENDMDL
MODEL 2
REMARK VINA RESULT:     -11.3      1.630      3.193
REMARK  Name = 66571548
REMARK  8 active torsions:
REMARK  status: ('A' for Active; 'I' for Inactive)
REMARK    1  A    between atoms: C_2  and  C_10
REMARK    2  A    between atoms: C_2  and  C_22
REMARK    3  A    between atoms: N_3  and  C_15
REMARK    4  A    between atoms: C_15  and  C_18
REMARK    5  A    between atoms: C_18  and  O_19
REMARK    6  A    between atoms: C_25  and  N_28
REMARK    7  A    between atoms: C_29  and  C_31
REMARK    8  A    between atoms: C_31  and  C_34
REMARK                            x       y       z     vdW  Elec       q    Type
REMARK                         _______ _______ _______ _____ _____    ______ ____
ROOT
ATOM      1  O   UNL     1      37.590 -20.963 -16.471  0.00  0.00    -0.286 OA
ATOM      2  C   UNL     1      36.636 -21.764 -16.578  0.00  0.00    +0.199 C 
ENDROOT
BRANCH   2  10
ATOM      3  N   UNL     1      36.839 -24.415 -14.138  0.00  0.00    -0.261 N 
ATOM      4  N   UNL     1      34.607 -24.910 -13.372  0.00  0.00    -0.322 NA
ATOM      5  N   UNL     1      32.910 -23.524 -14.434  0.00  0.00    -0.170 NA
ATOM      6  N   UNL     1      32.341 -25.145 -12.845  0.00  0.00    -0.293 N 
ATOM      7  C   UNL     1      35.483 -24.226 -14.129  0.00  0.00    +0.201 C 
ATOM      8  C   UNL     1      37.417 -23.544 -15.025  0.00  0.00    +0.071 C 
ATOM      9  C   UNL     1      35.186 -23.213 -15.032  0.00  0.00    +0.069 C 
ATOM     10  C   UNL     1      36.416 -22.787 -15.596  0.00  0.00    +0.059 C 
ATOM     11  C   UNL     1      33.841 -22.872 -15.169  0.00  0.00    +0.116 C 
ATOM     12  C   UNL     1      33.346 -24.489 -13.593  0.00  0.00    +0.143 C 
ATOM     13  H   UNL     1      32.586 -25.859 -12.213  0.00  0.00    +0.155 HD
ATOM     14  H   UNL     1      31.398 -24.889 -12.956  0.00  0.00    +0.155 HD
BRANCH   3  15
ATOM     15  C   UNL     1      37.610 -25.444 -13.288  0.00  0.00    +0.091 C 
ATOM     16  C   UNL     1      37.285 -26.914 -13.649  0.00  0.00    +0.023 C 
ATOM     17  C   UNL     1      39.127 -25.250 -13.515  0.00  0.00    +0.023 C 
BRANCH  15  18
ATOM     18  C   UNL     1      37.303 -25.237 -11.783  0.00  0.00    +0.155 C 
BRANCH  18  19
ATOM     19  O   UNL     1      37.100 -26.487 -11.133  0.00  0.00    -0.380 OA
ATOM     20  H   UNL     1      37.716 -27.143 -11.497  0.00  0.00    +0.211 HD
ENDBRANCH  18  19
ENDBRANCH  15  18
ENDBRANCH   3  15
ENDBRANCH   2  10
BRANCH   2  22
ATOM     21  N   UNL     1      33.689 -22.098 -18.929  0.00  0.00    -0.241 NA
ATOM     22  C   UNL     1      35.755 -21.582 -17.784  0.00  0.00    +0.059 C 
ATOM     23  C   UNL     1      36.149 -20.772 -18.844  0.00  0.00    +0.021 C 
ATOM     24  C   UNL     1      34.528 -22.218 -17.875  0.00  0.00    +0.102 C 
ATOM     25  C   UNL     1      35.314 -20.625 -19.947  0.00  0.00    +0.070 C 
ATOM     26  C   UNL     1      34.105 -21.302 -19.940  0.00  0.00    +0.113 C 
BRANCH  25  28
ATOM     27  O   UNL     1      35.264 -17.638 -20.250  0.00  0.00    -0.274 OA
ATOM     28  N   UNL     1      35.682 -19.822 -21.024  0.00  0.00    -0.282 N 
ATOM     29  C   UNL     1      35.641 -18.420 -21.119  0.00  0.00    +0.232 C 
ATOM     30  H   UNL     1      36.012 -20.297 -21.819  0.00  0.00    +0.155 HD
BRANCH  29  31
ATOM     31  C   UNL     1      36.135 -17.946 -22.477  0.00  0.00    +0.131 C 
BRANCH  31  34
ATOM     32 CL   UNL     1      32.946 -13.423 -24.658  0.00  0.00    -0.081 Cl
ATOM     33  N   UNL     1      35.374 -15.637 -22.405  0.00  0.00    -0.247 NA
ATOM     34  C   UNL     1      35.317 -16.821 -23.054  0.00  0.00    +0.068 C 
ATOM     35  C   UNL     1      34.562 -17.046 -24.194  0.00  0.00    +0.016 C 
ATOM     36  C   UNL     1      33.818 -15.986 -24.701  0.00  0.00    +0.014 C 
ATOM     37  C   UNL     1      34.638 -14.630 -22.927  0.00  0.00    +0.110 C 
ATOM     38  C   UNL     1      33.850 -14.752 -24.061  0.00  0.00    +0.077 C 
ENDBRANCH  31  34
ENDBRANCH  29  31
ENDBRANCH  25  28
ENDBRANCH   2  22
TORSDOF 8
ENDMDL
MODEL 3
REMARK VINA RESULT:     -11.0      3.836     11.113
REMARK  Name = 66571548
REMARK  8 active torsions:
REMARK  status: ('A' for Active; 'I' for Inactive)
REMARK    1  A    between atoms: C_2  and  C_10
REMARK    2  A    between atoms: C_2  and  C_22
REMARK    3  A    between atoms: N_3  and  C_15
REMARK    4  A    between atoms: C_15  and  C_18
REMARK    5  A    between atoms: C_18  and  O_19
REMARK    6  A    between atoms: C_25  and  N_28
REMARK    7  A    between atoms: C_29  and  C_31
REMARK    8  A    between atoms: C_31  and  C_34
REMARK                            x       y       z     vdW  Elec       q    Type
REMARK                         _______ _______ _______ _____ _____    ______ ____
ROOT
ATOM      1  O   UNL     1      34.798 -19.062 -23.781  0.00  0.00    -0.286 OA
ATOM      2  C   UNL     1      34.990 -18.325 -22.789  0.00  0.00    +0.199 C 
ENDROOT
BRANCH   2  10
ATOM      3  N   UNL     1      34.167 -14.879 -22.105  0.00  0.00    -0.261 N 
ATOM      4  N   UNL     1      33.668 -13.792 -24.199  0.00  0.00    -0.322 NA
ATOM      5  N   UNL     1      33.853 -15.286 -26.112  0.00  0.00    -0.170 NA
ATOM      6  N   UNL     1      33.245 -13.041 -26.372  0.00  0.00    -0.293 N 
ATOM      7  C   UNL     1      34.021 -14.863 -23.467  0.00  0.00    +0.201 C 
ATOM      8  C   UNL     1      34.537 -16.135 -21.699  0.00  0.00    +0.071 C 
ATOM      9  C   UNL     1      34.301 -16.138 -23.942  0.00  0.00    +0.069 C 
ATOM     10  C   UNL     1      34.627 -16.938 -22.818  0.00  0.00    +0.059 C 
ATOM     11  C   UNL     1      34.205 -16.326 -25.320  0.00  0.00    +0.116 C 
ATOM     12  C   UNL     1      33.610 -14.100 -25.510  0.00  0.00    +0.143 C 
ATOM     13  H   UNL     1      33.054 -12.149 -26.002  0.00  0.00    +0.155 HD
ATOM     14  H   UNL     1      33.183 -13.195 -27.342  0.00  0.00    +0.155 HD
BRANCH   3  15
ATOM     15  C   UNL     1      33.952 -13.679 -21.163  0.00  0.00    +0.091 C 
ATOM     16  C   UNL     1      32.601 -13.717 -20.409  0.00  0.00    +0.023 C 
ATOM     17  C   UNL     1      35.066 -13.675 -20.090  0.00  0.00    +0.023 C 
BRANCH  15  18
ATOM     18  C   UNL     1      34.025 -12.351 -21.958  0.00  0.00    +0.155 C 
BRANCH  18  19
ATOM     19  O   UNL     1      32.723 -11.813 -22.162  0.00  0.00    -0.380 OA
ATOM     20  H   UNL     1      32.278 -12.303 -22.871  0.00  0.00    +0.211 HD
ENDBRANCH  18  19
ENDBRANCH  15  18
ENDBRANCH   3  15
ENDBRANCH   2  10
BRANCH   2  22
ATOM     21  N   UNL     1      37.488 -19.155 -20.070  0.00  0.00    -0.241 NA
ATOM     22  C   UNL     1      35.616 -18.986 -21.591  0.00  0.00    +0.059 C 
ATOM     23  C   UNL     1      34.957 -20.001 -20.905  0.00  0.00    +0.021 C 
ATOM     24  C   UNL     1      36.868 -18.604 -21.138  0.00  0.00    +0.102 C 
ATOM     25  C   UNL     1      35.563 -20.593 -19.802  0.00  0.00    +0.070 C 
ATOM     26  C   UNL     1      36.817 -20.138 -19.428  0.00  0.00    +0.113 C 
BRANCH  25  28
ATOM     27  O   UNL     1      32.704 -20.860 -18.923  0.00  0.00    -0.274 OA
ATOM     28  N   UNL     1      34.927 -21.612 -19.096  0.00  0.00    -0.282 N 
ATOM     29  C   UNL     1      33.579 -21.693 -18.706  0.00  0.00    +0.232 C 
ATOM     30  H   UNL     1      35.496 -22.372 -18.837  0.00  0.00    +0.155 HD
BRANCH  29  31
ATOM     31  C   UNL     1      33.302 -22.982 -17.948  0.00  0.00    +0.131 C 
BRANCH  31  34
ATOM     32 CL   UNL     1      36.098 -23.199 -12.702  0.00  0.00    -0.081 Cl
ATOM     33  N   UNL     1      35.302 -22.760 -16.581  0.00  0.00    -0.247 NA
ATOM     34  C   UNL     1      33.981 -23.046 -16.605  0.00  0.00    +0.068 C 
ATOM     35  C   UNL     1      33.240 -23.386 -15.485  0.00  0.00    +0.016 C 
ATOM     36  C   UNL     1      33.897 -23.436 -14.261  0.00  0.00    +0.014 C 
ATOM     37  C   UNL     1      35.907 -22.818 -15.373  0.00  0.00    +0.110 C 
ATOM     38  C   UNL     1      35.256 -23.148 -14.195  0.00  0.00    +0.077 C 
ENDBRANCH  31  34
ENDBRANCH  29  31
ENDBRANCH  25  28
ENDBRANCH   2  22
TORSDOF 8
ENDMDL
MODEL 4
REMARK VINA RESULT:     -10.7      5.666     12.995
REMARK  Name = 66571548
REMARK  8 active torsions:
REMARK  status: ('A' for Active; 'I' for Inactive)
REMARK    1  A    between atoms: C_2  and  C_10
REMARK    2  A    between atoms: C_2  and  C_22
REMARK    3  A    between atoms: N_3  and  C_15
REMARK    4  A    between atoms: C_15  and  C_18
REMARK    5  A    between atoms: C_18  and  O_19
REMARK    6  A    between atoms: C_25  and  N_28
REMARK    7  A    between atoms: C_29  and  C_31
REMARK    8  A    between atoms: C_31  and  C_34
REMARK                            x       y       z     vdW  Elec       q    Type
REMARK                         _______ _______ _______ _____ _____    ______ ____
ROOT
ATOM      1  O   UNL     1      34.959 -10.792 -25.293  0.00  0.00    -0.286 OA
ATOM      2  C   UNL     1      34.185 -11.164 -24.384  0.00  0.00    +0.199 C 
ENDROOT
BRANCH   2  10
ATOM      3  N   UNL     1      32.960  -8.262 -22.624  0.00  0.00    -0.261 N 
ATOM      4  N   UNL     1      31.679  -9.015 -20.725  0.00  0.00    -0.322 NA
ATOM      5  N   UNL     1      31.586 -11.442 -20.545  0.00  0.00    -0.170 NA
ATOM      6  N   UNL     1      30.514 -10.061 -18.988  0.00  0.00    -0.293 N 
ATOM      7  C   UNL     1      32.426  -9.234 -21.821  0.00  0.00    +0.201 C 
ATOM      8  C   UNL     1      33.659  -8.846 -23.648  0.00  0.00    +0.071 C 
ATOM      9  C   UNL     1      32.794 -10.469 -22.342  0.00  0.00    +0.069 C 
ATOM     10  C   UNL     1      33.574 -10.215 -23.499  0.00  0.00    +0.059 C 
ATOM     11  C   UNL     1      32.343 -11.596 -21.656  0.00  0.00    +0.116 C 
ATOM     12  C   UNL     1      31.306 -10.178 -20.154  0.00  0.00    +0.143 C 
ATOM     13  H   UNL     1      30.271  -9.170 -18.646  0.00  0.00    +0.155 HD
ATOM     14  H   UNL     1      30.206 -10.869 -18.519  0.00  0.00    +0.155 HD
BRANCH   3  15
ATOM     15  C   UNL     1      32.807  -6.742 -22.419  0.00  0.00    +0.091 C 
ATOM     16  C   UNL     1      33.085  -6.281 -20.968  0.00  0.00    +0.023 C 
ATOM     17  C   UNL     1      33.820  -6.007 -23.327  0.00  0.00    +0.023 C 
BRANCH  15  18
ATOM     18  C   UNL     1      31.376  -6.289 -22.805  0.00  0.00    +0.155 C 
BRANCH  18  19
ATOM     19  O   UNL     1      30.575  -6.105 -21.641  0.00  0.00    -0.380 OA
ATOM     20  H   UNL     1      30.307  -5.175 -21.577  0.00  0.00    +0.211 HD
ENDBRANCH  18  19
ENDBRANCH  15  18
ENDBRANCH   3  15
ENDBRANCH   2  10
BRANCH   2  22
ATOM     21  N   UNL     1      32.788 -14.608 -25.101  0.00  0.00    -0.241 NA
ATOM     22  C   UNL     1      33.946 -12.647 -24.289  0.00  0.00    +0.059 C 
ATOM     23  C   UNL     1      34.616 -13.423 -23.349  0.00  0.00    +0.021 C 
ATOM     24  C   UNL     1      33.050 -13.281 -25.134  0.00  0.00    +0.102 C 
ATOM     25  C   UNL     1      34.373 -14.790 -23.285  0.00  0.00    +0.070 C 
ATOM     26  C   UNL     1      33.459 -15.329 -24.175  0.00  0.00    +0.113 C 
BRANCH  25  28
ATOM     27  O   UNL     1      35.098 -17.702 -23.396  0.00  0.00    -0.274 OA
ATOM     28  N   UNL     1      35.028 -15.593 -22.353  0.00  0.00    -0.282 N 
ATOM     29  C   UNL     1      35.348 -16.958 -22.451  0.00  0.00    +0.232 C 
ATOM     30  H   UNL     1      35.302 -15.146 -21.521  0.00  0.00    +0.155 HD
BRANCH  29  31
ATOM     31  C   UNL     1      36.068 -17.445 -21.203  0.00  0.00    +0.131 C 
BRANCH  31  34
ATOM     32 CL   UNL     1      33.941 -22.518 -18.940  0.00  0.00    -0.081 Cl
ATOM     33  N   UNL     1      36.369 -19.553 -20.026  0.00  0.00    -0.247 NA
ATOM     34  C   UNL     1      35.499 -18.721 -20.641  0.00  0.00    +0.068 C 
ATOM     35  C   UNL     1      34.144 -18.978 -20.776  0.00  0.00    +0.016 C 
ATOM     36  C   UNL     1      33.650 -20.164 -20.246  0.00  0.00    +0.014 C 
ATOM     37  C   UNL     1      35.853 -20.696 -19.523  0.00  0.00    +0.110 C 
ATOM     38  C   UNL     1      34.515 -21.046 -19.606  0.00  0.00    +0.077 C 
ENDBRANCH  31  34
ENDBRANCH  29  31
ENDBRANCH  25  28
ENDBRANCH   2  22
TORSDOF 8
ENDMDL
MODEL 5
REMARK VINA RESULT:     -10.4      2.130      3.327
REMARK  Name = 66571548
REMARK  8 active torsions:
REMARK  status: ('A' for Active; 'I' for Inactive)
REMARK    1  A    between atoms: C_2  and  C_10
REMARK    2  A    between atoms: C_2  and  C_22
REMARK    3  A    between atoms: N_3  and  C_15
REMARK    4  A    between atoms: C_15  and  C_18
REMARK    5  A    between atoms: C_18  and  O_19
REMARK    6  A    between atoms: C_25  and  N_28
REMARK    7  A    between atoms: C_29  and  C_31
REMARK    8  A    between atoms: C_31  and  C_34
REMARK                            x       y       z     vdW  Elec       q    Type
REMARK                         _______ _______ _______ _____ _____    ______ ____
ROOT
ATOM      1  O   UNL     1      37.875 -20.792 -16.179  0.00  0.00    -0.286 OA
ATOM      2  C   UNL     1      37.133 -21.794 -16.089  0.00  0.00    +0.199 C 
ENDROOT
BRANCH   2  10
ATOM      3  N   UNL     1      36.923 -23.926 -13.184  0.00  0.00    -0.261 N 
ATOM      4  N   UNL     1      38.857 -25.366 -13.163  0.00  0.00    -0.322 NA
ATOM      5  N   UNL     1      40.350 -24.977 -15.047  0.00  0.00    -0.170 NA
ATOM      6  N   UNL     1      40.825 -26.601 -13.429  0.00  0.00    -0.293 N 
ATOM      7  C   UNL     1      38.105 -24.389 -13.699  0.00  0.00    +0.201 C 
ATOM      8  C   UNL     1      36.431 -22.932 -13.990  0.00  0.00    +0.071 C 
ATOM      9  C   UNL     1      38.375 -23.674 -14.859  0.00  0.00    +0.069 C 
ATOM     10  C   UNL     1      37.311 -22.753 -15.037  0.00  0.00    +0.059 C 
ATOM     11  C   UNL     1      39.549 -24.002 -15.536  0.00  0.00    +0.116 C 
ATOM     12  C   UNL     1      39.959 -25.590 -13.907  0.00  0.00    +0.143 C 
ATOM     13  H   UNL     1      40.602 -27.089 -12.604  0.00  0.00    +0.155 HD
ATOM     14  H   UNL     1      41.648 -26.818 -13.923  0.00  0.00    +0.155 HD
BRANCH   3  15
ATOM     15  C   UNL     1      36.241 -24.434 -11.899  0.00  0.00    +0.091 C 
ATOM     16  C   UNL     1      36.709 -25.844 -11.465  0.00  0.00    +0.023 C 
ATOM     17  C   UNL     1      36.577 -23.471 -10.737  0.00  0.00    +0.023 C 
BRANCH  15  18
ATOM     18  C   UNL     1      34.703 -24.470 -12.085  0.00  0.00    +0.155 C 
BRANCH  18  19
ATOM     19  O   UNL     1      34.105 -23.289 -11.561  0.00  0.00    -0.380 OA
ATOM     20  H   UNL     1      33.241 -23.151 -11.981  0.00  0.00    +0.211 HD
ENDBRANCH  18  19
ENDBRANCH  15  18
ENDBRANCH   3  15
ENDBRANCH   2  10
BRANCH   2  22
ATOM     21  N   UNL     1      33.898 -22.776 -17.790  0.00  0.00    -0.241 NA
ATOM     22  C   UNL     1      36.063 -21.918 -17.139  0.00  0.00    +0.059 C 
ATOM     23  C   UNL     1      36.214 -21.328 -18.390  0.00  0.00    +0.021 C 
ATOM     24  C   UNL     1      34.898 -22.625 -16.892  0.00  0.00    +0.102 C 
ATOM     25  C   UNL     1      35.208 -21.462 -19.341  0.00  0.00    +0.070 C 
ATOM     26  C   UNL     1      34.080 -22.189 -18.995  0.00  0.00    +0.113 C 
BRANCH  25  28
ATOM     27  O   UNL     1      34.767 -18.629 -20.231  0.00  0.00    -0.274 OA
ATOM     28  N   UNL     1      35.331 -20.884 -20.602  0.00  0.00    -0.282 N 
ATOM     29  C   UNL     1      35.113 -19.545 -20.972  0.00  0.00    +0.232 C 
ATOM     30  H   UNL     1      35.605 -21.490 -21.327  0.00  0.00    +0.155 HD
BRANCH  29  31
ATOM     31  C   UNL     1      35.361 -19.337 -22.458  0.00  0.00    +0.131 C 
BRANCH  31  34
ATOM     32 CL   UNL     1      33.834 -13.888 -24.291  0.00  0.00    -0.081 Cl
ATOM     33  N   UNL     1      35.379 -16.917 -22.215  0.00  0.00    -0.247 NA
ATOM     34  C   UNL     1      34.958 -17.971 -22.948  0.00  0.00    +0.068 C 
ATOM     35  C   UNL     1      34.194 -17.861 -24.099  0.00  0.00    +0.016 C 
ATOM     36  C   UNL     1      33.840 -16.586 -24.524  0.00  0.00    +0.014 C 
ATOM     37  C   UNL     1      35.015 -15.693 -22.659  0.00  0.00    +0.110 C 
ATOM     38  C   UNL     1      34.253 -15.476 -23.796  0.00  0.00    +0.077 C 
ENDBRANCH  31  34
ENDBRANCH  29  31
ENDBRANCH  25  28
ENDBRANCH   2  22
TORSDOF 8
ENDMDL
MODEL 6
REMARK VINA RESULT:      -9.8      5.671     12.624
REMARK  Name = 66571548
REMARK  8 active torsions:
REMARK  status: ('A' for Active; 'I' for Inactive)
REMARK    1  A    between atoms: C_2  and  C_10
REMARK    2  A    between atoms: C_2  and  C_22
REMARK    3  A    between atoms: N_3  and  C_15
REMARK    4  A    between atoms: C_15  and  C_18
REMARK    5  A    between atoms: C_18  and  O_19
REMARK    6  A    between atoms: C_25  and  N_28
REMARK    7  A    between atoms: C_29  and  C_31
REMARK    8  A    between atoms: C_31  and  C_34
REMARK                            x       y       z     vdW  Elec       q    Type
REMARK                         _______ _______ _______ _____ _____    ______ ____
ROOT
ATOM      1  O   UNL     1      34.941 -10.958 -25.081  0.00  0.00    -0.286 OA
ATOM      2  C   UNL     1      34.163 -11.493 -24.262  0.00  0.00    +0.199 C 
ENDROOT
BRANCH   2  10
ATOM      3  N   UNL     1      32.372 -10.229 -21.395  0.00  0.00    -0.261 N 
ATOM      4  N   UNL     1      32.426  -7.819 -21.473  0.00  0.00    -0.322 NA
ATOM      5  N   UNL     1      33.634  -6.959 -23.405  0.00  0.00    -0.170 NA
ATOM      6  N   UNL     1      32.658  -5.521 -21.837  0.00  0.00    -0.293 N 
ATOM      7  C   UNL     1      32.729  -9.034 -21.963  0.00  0.00    +0.201 C 
ATOM      8  C   UNL     1      32.850 -11.260 -22.161  0.00  0.00    +0.071 C 
ATOM      9  C   UNL     1      33.450  -9.308 -23.118  0.00  0.00    +0.069 C 
ATOM     10  C   UNL     1      33.523 -10.719 -23.237  0.00  0.00    +0.059 C 
ATOM     11  C   UNL     1      33.906  -8.209 -23.845  0.00  0.00    +0.116 C 
ATOM     12  C   UNL     1      32.921  -6.844 -22.262  0.00  0.00    +0.143 C 
ATOM     13  H   UNL     1      32.144  -5.362 -21.013  0.00  0.00    +0.155 HD
ATOM     14  H   UNL     1      32.989  -4.759 -22.365  0.00  0.00    +0.155 HD
BRANCH   3  15
ATOM     15  C   UNL     1      31.557 -10.401 -20.098  0.00  0.00    +0.091 C 
ATOM     16  C   UNL     1      30.045 -10.627 -20.341  0.00  0.00    +0.023 C 
ATOM     17  C   UNL     1      32.081 -11.640 -19.336  0.00  0.00    +0.023 C 
BRANCH  15  18
ATOM     18  C   UNL     1      31.720  -9.154 -19.192  0.00  0.00    +0.155 C 
BRANCH  18  19
ATOM     19  O   UNL     1      32.965  -9.193 -18.502  0.00  0.00    -0.380 OA
ATOM     20  H   UNL     1      33.503  -8.429 -18.762  0.00  0.00    +0.211 HD
ENDBRANCH  18  19
ENDBRANCH  15  18
ENDBRANCH   3  15
ENDBRANCH   2  10
BRANCH   2  22
ATOM     21  N   UNL     1      32.685 -14.782 -25.410  0.00  0.00    -0.241 NA
ATOM     22  C   UNL     1      33.951 -12.974 -24.425  0.00  0.00    +0.059 C 
ATOM     23  C   UNL     1      34.773 -13.891 -23.778  0.00  0.00    +0.021 C 
ATOM     24  C   UNL     1      32.930 -13.466 -25.221  0.00  0.00    +0.102 C 
ATOM     25  C   UNL     1      34.551 -15.254 -23.947  0.00  0.00    +0.070 C 
ATOM     26  C   UNL     1      33.504 -15.644 -24.767  0.00  0.00    +0.113 C 
BRANCH  25  28
ATOM     27  O   UNL     1      34.784 -15.971 -21.041  0.00  0.00    -0.274 OA
ATOM     28  N   UNL     1      35.357 -16.196 -23.313  0.00  0.00    -0.282 N 
ATOM     29  C   UNL     1      35.431 -16.498 -21.942  0.00  0.00    +0.232 C 
ATOM     30  H   UNL     1      35.951 -16.717 -23.899  0.00  0.00    +0.155 HD
BRANCH  29  31
ATOM     31  C   UNL     1      36.446 -17.598 -21.675  0.00  0.00    +0.131 C 
BRANCH  31  34
ATOM     32 CL   UNL     1      34.330 -22.228 -18.597  0.00  0.00    -0.081 Cl
ATOM     33  N   UNL     1      36.743 -19.452 -20.128  0.00  0.00    -0.247 NA
ATOM     34  C   UNL     1      35.880 -18.765 -20.909  0.00  0.00    +0.068 C 
ATOM     35  C   UNL     1      34.535 -19.073 -21.036  0.00  0.00    +0.016 C 
ATOM     36  C   UNL     1      34.044 -20.155 -20.315  0.00  0.00    +0.014 C 
ATOM     37  C   UNL     1      36.229 -20.498 -19.442  0.00  0.00    +0.110 C 
ATOM     38  C   UNL     1      34.900 -20.887 -19.501  0.00  0.00    +0.077 C 
ENDBRANCH  31  34
ENDBRANCH  29  31
ENDBRANCH  25  28
ENDBRANCH   2  22
TORSDOF 8
ENDMDL
MODEL 7
REMARK VINA RESULT:      -9.7      4.032     11.835
REMARK  Name = 66571548
REMARK  8 active torsions:
REMARK  status: ('A' for Active; 'I' for Inactive)
REMARK    1  A    between atoms: C_2  and  C_10
REMARK    2  A    between atoms: C_2  and  C_22
REMARK    3  A    between atoms: N_3  and  C_15
REMARK    4  A    between atoms: C_15  and  C_18
REMARK    5  A    between atoms: C_18  and  O_19
REMARK    6  A    between atoms: C_25  and  N_28
REMARK    7  A    between atoms: C_29  and  C_31
REMARK    8  A    between atoms: C_31  and  C_34
REMARK                            x       y       z     vdW  Elec       q    Type
REMARK                         _______ _______ _______ _____ _____    ______ ____
ROOT
ATOM      1  O   UNL     1      35.131 -15.026 -19.987  0.00  0.00    -0.286 OA
ATOM      2  C   UNL     1      34.742 -15.160 -21.167  0.00  0.00    +0.199 C 
ENDROOT
BRANCH   2  10
ATOM      3  N   UNL     1      33.828 -12.647 -23.590  0.00  0.00    -0.261 N 
ATOM      4  N   UNL     1      32.329 -11.084 -22.528  0.00  0.00    -0.322 NA
ATOM      5  N   UNL     1      31.881 -11.632 -20.199  0.00  0.00    -0.170 NA
ATOM      6  N   UNL     1      30.914  -9.760 -21.219  0.00  0.00    -0.293 N 
ATOM      7  C   UNL     1      33.109 -12.179 -22.522  0.00  0.00    +0.201 C 
ATOM      8  C   UNL     1      34.503 -13.782 -23.226  0.00  0.00    +0.071 C 
ATOM      9  C   UNL     1      33.331 -13.034 -21.450  0.00  0.00    +0.069 C 
ATOM     10  C   UNL     1      34.215 -14.046 -21.903  0.00  0.00    +0.059 C 
ATOM     11  C   UNL     1      32.680 -12.723 -20.257  0.00  0.00    +0.116 C 
ATOM     12  C   UNL     1      31.757 -10.891 -21.323  0.00  0.00    +0.143 C 
ATOM     13  H   UNL     1      30.778  -9.175 -22.000  0.00  0.00    +0.155 HD
ATOM     14  H   UNL     1      30.463  -9.558 -20.368  0.00  0.00    +0.155 HD
BRANCH   3  15
ATOM     15  C   UNL     1      33.879 -12.005 -24.990  0.00  0.00    +0.091 C 
ATOM     16  C   UNL     1      34.257 -12.999 -26.115  0.00  0.00    +0.023 C 
ATOM     17  C   UNL     1      32.481 -11.442 -25.338  0.00  0.00    +0.023 C 
BRANCH  15  18
ATOM     18  C   UNL     1      34.902 -10.840 -25.011  0.00  0.00    +0.155 C 
BRANCH  18  19
ATOM     19  O   UNL     1      35.119 -10.338 -23.696  0.00  0.00    -0.380 OA
ATOM     20  H   UNL     1      34.597  -9.530 -23.569  0.00  0.00    +0.211 HD
ENDBRANCH  18  19
ENDBRANCH  15  18
ENDBRANCH   3  15
ENDBRANCH   2  10
BRANCH   2  22
ATOM     21  N   UNL     1      34.770 -17.984 -23.686  0.00  0.00    -0.241 NA
ATOM     22  C   UNL     1      34.864 -16.543 -21.747  0.00  0.00    +0.059 C 
ATOM     23  C   UNL     1      35.165 -17.635 -20.941  0.00  0.00    +0.021 C 
ATOM     24  C   UNL     1      34.676 -16.768 -23.101  0.00  0.00    +0.102 C 
ATOM     25  C   UNL     1      35.269 -18.902 -21.506  0.00  0.00    +0.070 C 
ATOM     26  C   UNL     1      35.065 -19.021 -22.871  0.00  0.00    +0.113 C 
BRANCH  25  28
ATOM     27  O   UNL     1      33.572 -20.413 -19.544  0.00  0.00    -0.274 OA
ATOM     28  N   UNL     1      35.569 -20.014 -20.724  0.00  0.00    -0.282 N 
ATOM     29  C   UNL     1      34.737 -20.691 -19.815  0.00  0.00    +0.232 C 
ATOM     30  H   UNL     1      36.481 -20.372 -20.819  0.00  0.00    +0.155 HD
BRANCH  29  31
ATOM     31  C   UNL     1      35.464 -21.860 -19.169  0.00  0.00    +0.131 C 
BRANCH  31  34
ATOM     32 CL   UNL     1      32.979 -23.798 -14.124  0.00  0.00    -0.081 Cl
ATOM     33  N   UNL     1      35.596 -22.473 -16.818  0.00  0.00    -0.247 NA
ATOM     34  C   UNL     1      34.805 -22.353 -17.908  0.00  0.00    +0.068 C 
ATOM     35  C   UNL     1      33.452 -22.654 -17.921  0.00  0.00    +0.016 C 
ATOM     36  C   UNL     1      32.875 -23.106 -16.740  0.00  0.00    +0.014 C 
ATOM     37  C   UNL     1      35.000 -22.915 -15.689  0.00  0.00    +0.110 C 
ATOM     38  C   UNL     1      33.657 -23.243 -15.598  0.00  0.00    +0.077 C 
ENDBRANCH  31  34
ENDBRANCH  29  31
ENDBRANCH  25  28
ENDBRANCH   2  22
TORSDOF 8
ENDMDL
MODEL 8
REMARK VINA RESULT:      -9.7      5.070     12.749
REMARK  Name = 66571548
REMARK  8 active torsions:
REMARK  status: ('A' for Active; 'I' for Inactive)
REMARK    1  A    between atoms: C_2  and  C_10
REMARK    2  A    between atoms: C_2  and  C_22
REMARK    3  A    between atoms: N_3  and  C_15
REMARK    4  A    between atoms: C_15  and  C_18
REMARK    5  A    between atoms: C_18  and  O_19
REMARK    6  A    between atoms: C_25  and  N_28
REMARK    7  A    between atoms: C_29  and  C_31
REMARK    8  A    between atoms: C_31  and  C_34
REMARK                            x       y       z     vdW  Elec       q    Type
REMARK                         _______ _______ _______ _____ _____    ______ ____
ROOT
ATOM      1  O   UNL     1      31.973 -13.364 -21.203  0.00  0.00    -0.286 OA
ATOM      2  C   UNL     1      32.737 -12.996 -22.121  0.00  0.00    +0.199 C 
ENDROOT
BRANCH   2  10
ATOM      3  N   UNL     1      32.868  -9.390 -22.159  0.00  0.00    -0.261 N 
ATOM      4  N   UNL     1      34.322  -8.706 -23.957  0.00  0.00    -0.322 NA
ATOM      5  N   UNL     1      35.253 -10.586 -25.193  0.00  0.00    -0.170 NA
ATOM      6  N   UNL     1      35.771  -8.376 -25.763  0.00  0.00    -0.293 N 
ATOM      7  C   UNL     1      33.703  -9.641 -23.215  0.00  0.00    +0.201 C 
ATOM      8  C   UNL     1      32.421 -10.576 -21.637  0.00  0.00    +0.071 C 
ATOM      9  C   UNL     1      33.790 -11.019 -23.373  0.00  0.00    +0.069 C 
ATOM     10  C   UNL     1      32.976 -11.603 -22.371  0.00  0.00    +0.059 C 
ATOM     11  C   UNL     1      34.602 -11.478 -24.410  0.00  0.00    +0.116 C 
ATOM     12  C   UNL     1      35.075  -9.274 -24.921  0.00  0.00    +0.143 C 
ATOM     13  H   UNL     1      35.687  -7.405 -25.622  0.00  0.00    +0.155 HD
ATOM     14  H   UNL     1      36.339  -8.721 -26.488  0.00  0.00    +0.155 HD
BRANCH   3  15
ATOM     15  C   UNL     1      32.482  -7.995 -21.629  0.00  0.00    +0.091 C 
ATOM     16  C   UNL     1      33.621  -6.953 -21.741  0.00  0.00    +0.023 C 
ATOM     17  C   UNL     1      31.293  -7.453 -22.457  0.00  0.00    +0.023 C 
BRANCH  15  18
ATOM     18  C   UNL     1      32.053  -8.084 -20.143  0.00  0.00    +0.155 C 
BRANCH  18  19
ATOM     19  O   UNL     1      33.188  -8.014 -19.286  0.00  0.00    -0.380 OA
ATOM     20  H   UNL     1      33.281  -8.850 -18.804  0.00  0.00    +0.211 HD
ENDBRANCH  18  19
ENDBRANCH  15  18
ENDBRANCH   3  15
ENDBRANCH   2  10
BRANCH   2  22
ATOM     21  N   UNL     1      33.805 -15.085 -25.090  0.00  0.00    -0.241 NA
ATOM     22  C   UNL     1      33.374 -14.095 -22.926  0.00  0.00    +0.059 C 
ATOM     23  C   UNL     1      34.094 -15.113 -22.309  0.00  0.00    +0.021 C 
ATOM     24  C   UNL     1      33.259 -14.127 -24.307  0.00  0.00    +0.102 C 
ATOM     25  C   UNL     1      34.669 -16.117 -23.081  0.00  0.00    +0.070 C 
ATOM     26  C   UNL     1      34.498 -16.057 -24.455  0.00  0.00    +0.113 C 
BRANCH  25  28
ATOM     27  O   UNL     1      35.276 -16.661 -20.191  0.00  0.00    -0.274 OA
ATOM     28  N   UNL     1      35.395 -17.149 -22.491  0.00  0.00    -0.282 N 
ATOM     29  C   UNL     1      35.653 -17.363 -21.126  0.00  0.00    +0.232 C 
ATOM     30  H   UNL     1      35.777 -17.812 -23.109  0.00  0.00    +0.155 HD
BRANCH  29  31
ATOM     31  C   UNL     1      36.490 -18.615 -20.914  0.00  0.00    +0.131 C 
BRANCH  31  34
ATOM     32 CL   UNL     1      33.719 -22.967 -17.953  0.00  0.00    -0.081 Cl
ATOM     33  N   UNL     1      36.496 -20.471 -19.341  0.00  0.00    -0.247 NA
ATOM     34  C   UNL     1      35.759 -19.708 -20.180  0.00  0.00    +0.068 C 
ATOM     35  C   UNL     1      34.401 -19.878 -20.392  0.00  0.00    +0.016 C 
ATOM     36  C   UNL     1      33.756 -20.896 -19.698  0.00  0.00    +0.014 C 
ATOM     37  C   UNL     1      35.836 -21.450 -18.684  0.00  0.00    +0.110 C 
ATOM     38  C   UNL     1      34.480 -21.702 -18.826  0.00  0.00    +0.077 C 
ENDBRANCH  31  34
ENDBRANCH  29  31
ENDBRANCH  25  28
ENDBRANCH   2  22
TORSDOF 8
ENDMDL
MODEL 9
REMARK VINA RESULT:      -9.6      9.101     16.780
REMARK  Name = 66571548
REMARK  8 active torsions:
REMARK  status: ('A' for Active; 'I' for Inactive)
REMARK    1  A    between atoms: C_2  and  C_10
REMARK    2  A    between atoms: C_2  and  C_22
REMARK    3  A    between atoms: N_3  and  C_15
REMARK    4  A    between atoms: C_15  and  C_18
REMARK    5  A    between atoms: C_18  and  O_19
REMARK    6  A    between atoms: C_25  and  N_28
REMARK    7  A    between atoms: C_29  and  C_31
REMARK    8  A    between atoms: C_31  and  C_34
REMARK                            x       y       z     vdW  Elec       q    Type
REMARK                         _______ _______ _______ _____ _____    ______ ____
ROOT
ATOM      1  O   UNL     1      34.832  -6.736 -21.372  0.00  0.00    -0.286 OA
ATOM      2  C   UNL     1      33.940  -6.910 -22.231  0.00  0.00    +0.199 C 
ENDROOT
BRANCH   2  10
ATOM      3  N   UNL     1      33.777  -4.520 -24.930  0.00  0.00    -0.261 N 
ATOM      4  N   UNL     1      31.732  -3.263 -24.702  0.00  0.00    -0.322 NA
ATOM      5  N   UNL     1      30.408  -3.944 -22.776  0.00  0.00    -0.170 NA
ATOM      6  N   UNL     1      29.692  -2.234 -24.205  0.00  0.00    -0.293 N 
ATOM      7  C   UNL     1      32.598  -4.211 -24.305  0.00  0.00    +0.201 C 
ATOM      8  C   UNL     1      34.401  -5.536 -24.253  0.00  0.00    +0.071 C 
ATOM      9  C   UNL     1      32.467  -5.046 -23.202  0.00  0.00    +0.069 C 
ATOM     10  C   UNL     1      33.612  -5.882 -23.176  0.00  0.00    +0.059 C 
ATOM     11  C   UNL     1      31.319  -4.882 -22.427  0.00  0.00    +0.116 C 
ATOM     12  C   UNL     1      30.668  -3.203 -23.877  0.00  0.00    +0.143 C 
ATOM     13  H   UNL     1      29.817  -1.659 -24.994  0.00  0.00    +0.155 HD
ATOM     14  H   UNL     1      28.889  -2.135 -23.645  0.00  0.00    +0.155 HD
BRANCH   3  15
ATOM     15  C   UNL     1      34.328  -3.840 -26.198  0.00  0.00    +0.091 C 
ATOM     16  C   UNL     1      34.487  -2.307 -26.060  0.00  0.00    +0.023 C 
ATOM     17  C   UNL     1      35.731  -4.412 -26.507  0.00  0.00    +0.023 C 
BRANCH  15  18
ATOM     18  C   UNL     1      33.400  -4.123 -27.407  0.00  0.00    +0.155 C 
BRANCH  18  19
ATOM     19  O   UNL     1      32.680  -2.951 -27.773  0.00  0.00    -0.380 OA
ATOM     20  H   UNL     1      31.741  -3.067 -27.557  0.00  0.00    +0.211 HD
ENDBRANCH  18  19
ENDBRANCH  15  18
ENDBRANCH   3  15
ENDBRANCH   2  10
BRANCH   2  22
ATOM     21  N   UNL     1      31.521  -9.658 -21.271  0.00  0.00    -0.241 NA
ATOM     22  C   UNL     1      33.251  -8.247 -22.201  0.00  0.00    +0.059 C 
ATOM     23  C   UNL     1      33.666  -9.288 -23.026  0.00  0.00    +0.021 C 
ATOM     24  C   UNL     1      32.184  -8.481 -21.349  0.00  0.00    +0.102 C 
ATOM     25  C   UNL     1      33.010 -10.513 -22.974  0.00  0.00    +0.070 C 
ATOM     26  C   UNL     1      31.952 -10.645 -22.088  0.00  0.00    +0.113 C 
BRANCH  25  28
ATOM     27  O   UNL     1      32.417 -13.449 -22.763  0.00  0.00    -0.274 OA
ATOM     28  N   UNL     1      33.403 -11.573 -23.787  0.00  0.00    -0.282 N 
ATOM     29  C   UNL     1      33.099 -12.938 -23.647  0.00  0.00    +0.232 C 
ATOM     30  H   UNL     1      33.967 -11.335 -24.557  0.00  0.00    +0.155 HD
BRANCH  29  31
ATOM     31  C   UNL     1      33.733 -13.759 -24.759  0.00  0.00    +0.131 C 
BRANCH  31  34
ATOM     32 CL   UNL     1      34.881 -19.402 -23.265  0.00  0.00    -0.081 Cl
ATOM     33  N   UNL     1      33.485 -16.155 -25.103  0.00  0.00    -0.247 NA
ATOM     34  C   UNL     1      34.043 -15.177 -24.355  0.00  0.00    +0.068 C 
ATOM     35  C   UNL     1      34.864 -15.408 -23.263  0.00  0.00    +0.016 C 
ATOM     36  C   UNL     1      35.130 -16.728 -22.917  0.00  0.00    +0.014 C 
ATOM     37  C   UNL     1      33.767 -17.426 -24.737  0.00  0.00    +0.110 C 
ATOM     38  C   UNL     1      34.575 -17.762 -23.662  0.00  0.00    +0.077 C 
ENDBRANCH  31  34
ENDBRANCH  29  31
ENDBRANCH  25  28
ENDBRANCH   2  22
TORSDOF 8
ENDMDL
