MODEL 1
REMARK VINA RESULT:     -12.5      0.000      0.000
REMARK  Name = 23729147
REMARK  5 active torsions:
REMARK  status: ('A' for Active; 'I' for Inactive)
REMARK    1  A    between atoms: O_1  and  C_6
REMARK    2  A    between atoms: O_1  and  C_18
REMARK    3  A    between atoms: C_18  and  C_20
REMARK    4  A    between atoms: N_19  and  C_26
REMARK    5  A    between atoms: C_26  and  C_28
REMARK                            x       y       z     vdW  Elec       q    Type
REMARK                         _______ _______ _______ _____ _____    ______ ____
ROOT
ATOM      1  O   UNL     1      34.911 -22.781 -16.811  0.00  0.00    -0.479 OA
ENDROOT
BRANCH   1   6
ATOM      2  N   UNL     1      35.802 -23.808 -12.159  0.00  0.00    -0.332 NA
ATOM      3  N   UNL     1      37.653 -23.169 -13.564  0.00  0.00    -0.317 NA
ATOM      4  N   UNL     1      37.344 -22.653 -15.818  0.00  0.00    -0.335 N 
ATOM      5  N   UNL     1      37.982 -23.685 -11.303  0.00  0.00    -0.283 N 
ATOM      6  C   UNL     1      34.522 -23.156 -15.547  0.00  0.00    +0.130 C 
ATOM      7  C   UNL     1      35.414 -23.289 -14.469  0.00  0.00    +0.177 C 
ATOM      8  C   UNL     1      33.167 -23.411 -15.365  0.00  0.00    +0.033 C 
ATOM      9  C   UNL     1      34.958 -23.678 -13.198  0.00  0.00    +0.137 C 
ATOM     10  C   UNL     1      36.781 -23.049 -14.583  0.00  0.00    +0.181 C 
ATOM     11  C   UNL     1      32.704 -23.797 -14.113  0.00  0.00    +0.005 C 
ATOM     12  C   UNL     1      33.597 -23.926 -13.044  0.00  0.00    +0.030 C 
ATOM     13  C   UNL     1      37.103 -23.546 -12.399  0.00  0.00    +0.197 C 
ATOM     14  H   UNL     1      38.312 -22.485 -15.886  0.00  0.00    +0.144 HD
ATOM     15  H   UNL     1      36.769 -22.543 -16.610  0.00  0.00    +0.144 HD
ATOM     16  H   UNL     1      37.635 -23.959 -10.424  0.00  0.00    +0.156 HD
ATOM     17  H   UNL     1      38.944 -23.506 -11.418  0.00  0.00    +0.156 HD
ENDBRANCH   1   6
BRANCH   1  18
ATOM     18  C   UNL     1      33.884 -22.570 -17.762  0.00  0.00    +0.205 C 
BRANCH  18  20
ATOM     19  N   UNL     1      35.440 -19.389 -20.237  0.00  0.00    +0.390 N 
ATOM     20  C   UNL     1      34.482 -21.854 -18.970  0.00  0.00    +0.040 C 
ATOM     21  C   UNL     1      35.834 -21.222 -18.623  0.00  0.00    -0.019 C 
ATOM     22  C   UNL     1      33.529 -20.778 -19.499  0.00  0.00    -0.019 C 
ATOM     23  C   UNL     1      36.392 -20.419 -19.799  0.00  0.00    -0.077 C 
ATOM     24  C   UNL     1      34.163 -19.988 -20.647  0.00  0.00    -0.077 C 
ATOM     25  H   UNL     1      35.257 -18.773 -19.445  0.00  0.00    -0.079 HD
BRANCH  19  26
ATOM     26  C   UNL     1      36.008 -18.597 -21.327  0.00  0.00    -0.048 C 
BRANCH  26  28
ATOM     27  F   UNL     1      35.430 -17.180 -23.713  0.00  0.00    -0.205 F 
ATOM     28  C   UNL     1      35.468 -17.191 -21.339  0.00  0.00    -0.016 C 
ATOM     29  C   UNL     1      35.206 -16.552 -22.551  0.00  0.00    +0.134 C 
ATOM     30  C   UNL     1      35.232 -16.529 -20.135  0.00  0.00    -0.004 C 
ATOM     31  C   UNL     1      34.707 -15.249 -22.558  0.00  0.00    +0.029 C 
ATOM     32  C   UNL     1      34.733 -15.226 -20.142  0.00  0.00    -0.000 C 
ATOM     33  C   UNL     1      34.471 -14.586 -21.353  0.00  0.00    +0.002 C 
ENDBRANCH  26  28
ENDBRANCH  19  26
ENDBRANCH  18  20
ENDBRANCH   1  18
TORSDOF 5
ENDMDL
MODEL 2
REMARK VINA RESULT:     -12.1      1.445      2.234
REMARK  Name = 23729147
REMARK  5 active torsions:
REMARK  status: ('A' for Active; 'I' for Inactive)
REMARK    1  A    between atoms: O_1  and  C_6
REMARK    2  A    between atoms: O_1  and  C_18
REMARK    3  A    between atoms: C_18  and  C_20
REMARK    4  A    between atoms: N_19  and  C_26
REMARK    5  A    between atoms: C_26  and  C_28
REMARK                            x       y       z     vdW  Elec       q    Type
REMARK                         _______ _______ _______ _____ _____    ______ ____
ROOT
ATOM      1  O   UNL     1      34.481 -23.153 -16.968  0.00  0.00    -0.479 OA
ENDROOT
BRANCH   1   6
ATOM      2  N   UNL     1      33.833 -24.017 -12.244  0.00  0.00    -0.332 NA
ATOM      3  N   UNL     1      36.082 -24.017 -13.109  0.00  0.00    -0.317 NA
ATOM      4  N   UNL     1      36.516 -23.614 -15.365  0.00  0.00    -0.335 N 
ATOM      5  N   UNL     1      35.666 -24.425 -10.839  0.00  0.00    -0.283 N 
ATOM      6  C   UNL     1      33.695 -23.309 -15.852  0.00  0.00    +0.130 C 
ATOM      7  C   UNL     1      34.207 -23.594 -14.575  0.00  0.00    +0.177 C 
ATOM      8  C   UNL     1      32.322 -23.170 -16.036  0.00  0.00    +0.033 C 
ATOM      9  C   UNL     1      33.353 -23.744 -13.470  0.00  0.00    +0.137 C 
ATOM     10  C   UNL     1      35.568 -23.744 -14.323  0.00  0.00    +0.181 C 
ATOM     11  C   UNL     1      31.467 -23.317 -14.951  0.00  0.00    +0.005 C 
ATOM     12  C   UNL     1      31.985 -23.600 -13.683  0.00  0.00    +0.030 C 
ATOM     13  C   UNL     1      35.171 -24.139 -12.130  0.00  0.00    +0.197 C 
ATOM     14  H   UNL     1      37.475 -23.722 -15.174  0.00  0.00    +0.144 HD
ATOM     15  H   UNL     1      36.216 -23.414 -16.281  0.00  0.00    +0.144 HD
ATOM     16  H   UNL     1      35.044 -24.524 -10.084  0.00  0.00    +0.156 HD
ATOM     17  H   UNL     1      36.635 -24.524 -10.695  0.00  0.00    +0.156 HD
ENDBRANCH   1   6
BRANCH   1  18
ATOM     18  C   UNL     1      33.825 -22.800 -18.172  0.00  0.00    +0.205 C 
BRANCH  18  20
ATOM     19  N   UNL     1      35.452 -19.803 -20.822  0.00  0.00    +0.390 N 
ATOM     20  C   UNL     1      34.386 -21.466 -18.656  0.00  0.00    +0.040 C 
ATOM     21  C   UNL     1      33.492 -20.853 -19.739  0.00  0.00    -0.019 C 
ATOM     22  C   UNL     1      35.811 -21.631 -19.194  0.00  0.00    -0.019 C 
ATOM     23  C   UNL     1      34.099 -19.566 -20.301  0.00  0.00    -0.077 C 
ATOM     24  C   UNL     1      36.342 -20.317 -19.773  0.00  0.00    -0.077 C 
ATOM     25  H   UNL     1      35.388 -20.509 -21.554  0.00  0.00    -0.079 HD
BRANCH  19  26
ATOM     26  C   UNL     1      35.999 -18.575 -21.401  0.00  0.00    -0.048 C 
BRANCH  26  28
ATOM     27  F   UNL     1      35.733 -15.857 -22.159  0.00  0.00    -0.205 F 
ATOM     28  C   UNL     1      35.220 -18.131 -22.610  0.00  0.00    -0.016 C 
ATOM     29  C   UNL     1      35.129 -16.775 -22.926  0.00  0.00    +0.134 C 
ATOM     30  C   UNL     1      34.587 -19.078 -23.415  0.00  0.00    -0.004 C 
ATOM     31  C   UNL     1      34.405 -16.367 -24.047  0.00  0.00    +0.029 C 
ATOM     32  C   UNL     1      33.864 -18.670 -24.535  0.00  0.00    -0.000 C 
ATOM     33  C   UNL     1      33.772 -17.314 -24.851  0.00  0.00    +0.002 C 
ENDBRANCH  26  28
ENDBRANCH  19  26
ENDBRANCH  18  20
ENDBRANCH   1  18
TORSDOF 5
ENDMDL
MODEL 3
REMARK VINA RESULT:     -12.0      5.454     11.524
REMARK  Name = 23729147
REMARK  5 active torsions:
REMARK  status: ('A' for Active; 'I' for Inactive)
REMARK    1  A    between atoms: O_1  and  C_6
REMARK    2  A    between atoms: O_1  and  C_18
REMARK    3  A    between atoms: C_18  and  C_20
REMARK    4  A    between atoms: N_19  and  C_26
REMARK    5  A    between atoms: C_26  and  C_28
REMARK                            x       y       z     vdW  Elec       q    Type
REMARK                         _______ _______ _______ _____ _____    ______ ____
ROOT
ATOM      1  O   UNL     1      34.377 -13.109 -22.674  0.00  0.00    -0.479 OA
ENDROOT
BRANCH   1   6
ATOM      2  N   UNL     1      31.653  -9.168 -21.940  0.00  0.00    -0.332 NA
ATOM      3  N   UNL     1      33.400  -9.059 -23.596  0.00  0.00    -0.317 NA
ATOM      4  N   UNL     1      34.774 -10.892 -24.036  0.00  0.00    -0.335 N 
ATOM      5  N   UNL     1      32.031  -7.207 -23.168  0.00  0.00    -0.283 N 
ATOM      6  C   UNL     1      33.362 -12.426 -22.049  0.00  0.00    +0.130 C 
ATOM      7  C   UNL     1      33.029 -11.092 -22.341  0.00  0.00    +0.177 C 
ATOM      8  C   UNL     1      32.649 -13.125 -21.080  0.00  0.00    +0.033 C 
ATOM      9  C   UNL     1      31.981 -10.444 -21.667  0.00  0.00    +0.137 C 
ATOM     10  C   UNL     1      33.701 -10.337 -23.299  0.00  0.00    +0.181 C 
ATOM     11  C   UNL     1      31.610 -12.494 -20.406  0.00  0.00    +0.005 C 
ATOM     12  C   UNL     1      31.284 -11.167 -20.703  0.00  0.00    +0.030 C 
ATOM     13  C   UNL     1      32.381  -8.545 -22.889  0.00  0.00    +0.197 C 
ATOM     14  H   UNL     1      35.241 -10.349 -24.710  0.00  0.00    +0.144 HD
ATOM     15  H   UNL     1      35.052 -11.823 -23.875  0.00  0.00    +0.144 HD
ATOM     16  H   UNL     1      31.291  -6.779 -22.681  0.00  0.00    +0.156 HD
ATOM     17  H   UNL     1      32.526  -6.701 -23.853  0.00  0.00    +0.156 HD
ENDBRANCH   1   6
BRANCH   1  18
ATOM     18  C   UNL     1      34.027 -14.301 -23.351  0.00  0.00    +0.205 C 
BRANCH  18  20
ATOM     19  N   UNL     1      35.183 -18.042 -21.526  0.00  0.00    +0.390 N 
ATOM     20  C   UNL     1      34.912 -15.431 -22.832  0.00  0.00    +0.040 C 
ATOM     21  C   UNL     1      34.604 -16.748 -23.553  0.00  0.00    -0.019 C 
ATOM     22  C   UNL     1      34.740 -15.616 -21.321  0.00  0.00    -0.019 C 
ATOM     23  C   UNL     1      35.417 -17.906 -22.970  0.00  0.00    -0.077 C 
ATOM     24  C   UNL     1      35.548 -16.812 -20.811  0.00  0.00    -0.077 C 
ATOM     25  H   UNL     1      34.186 -18.204 -21.382  0.00  0.00    -0.079 HD
BRANCH  19  26
ATOM     26  C   UNL     1      35.926 -19.183 -20.993  0.00  0.00    -0.048 C 
BRANCH  26  28
ATOM     27  F   UNL     1      36.931 -21.272 -19.360  0.00  0.00    -0.205 F 
ATOM     28  C   UNL     1      35.039 -20.110 -20.204  0.00  0.00    -0.016 C 
ATOM     29  C   UNL     1      35.601 -21.119 -19.420  0.00  0.00    +0.134 C 
ATOM     30  C   UNL     1      33.655 -19.960 -20.259  0.00  0.00    -0.004 C 
ATOM     31  C   UNL     1      34.776 -21.977 -18.692  0.00  0.00    +0.029 C 
ATOM     32  C   UNL     1      32.830 -20.817 -19.531  0.00  0.00    -0.000 C 
ATOM     33  C   UNL     1      33.391 -21.826 -18.747  0.00  0.00    +0.002 C 
ENDBRANCH  26  28
ENDBRANCH  19  26
ENDBRANCH  18  20
ENDBRANCH   1  18
TORSDOF 5
ENDMDL
MODEL 4
REMARK VINA RESULT:     -12.0      5.229     11.062
REMARK  Name = 23729147
REMARK  5 active torsions:
REMARK  status: ('A' for Active; 'I' for Inactive)
REMARK    1  A    between atoms: O_1  and  C_6
REMARK    2  A    between atoms: O_1  and  C_18
REMARK    3  A    between atoms: C_18  and  C_20
REMARK    4  A    between atoms: N_19  and  C_26
REMARK    5  A    between atoms: C_26  and  C_28
REMARK                            x       y       z     vdW  Elec       q    Type
REMARK                         _______ _______ _______ _____ _____    ______ ____
ROOT
ATOM      1  O   UNL     1      33.502 -14.160 -22.806  0.00  0.00    -0.479 OA
ENDROOT
BRANCH   1   6
ATOM      2  N   UNL     1      32.222  -9.683 -21.466  0.00  0.00    -0.332 NA
ATOM      3  N   UNL     1      31.780 -11.502 -19.948  0.00  0.00    -0.317 NA
ATOM      4  N   UNL     1      32.353 -13.698 -20.485  0.00  0.00    -0.335 N 
ATOM      5  N   UNL     1      31.198  -9.302 -19.390  0.00  0.00    -0.283 N 
ATOM      6  C   UNL     1      33.402 -12.806 -23.014  0.00  0.00    +0.130 C 
ATOM      7  C   UNL     1      32.837 -11.918 -22.082  0.00  0.00    +0.177 C 
ATOM      8  C   UNL     1      33.896 -12.325 -24.222  0.00  0.00    +0.033 C 
ATOM      9  C   UNL     1      32.760 -10.541 -22.351  0.00  0.00    +0.137 C 
ATOM     10  C   UNL     1      32.326 -12.333 -20.855  0.00  0.00    +0.181 C 
ATOM     11  C   UNL     1      33.824 -10.965 -24.499  0.00  0.00    +0.005 C 
ATOM     12  C   UNL     1      33.262 -10.088 -23.567  0.00  0.00    +0.030 C 
ATOM     13  C   UNL     1      31.761 -10.210 -20.313  0.00  0.00    +0.197 C 
ATOM     14  H   UNL     1      31.988 -13.979 -19.615  0.00  0.00    +0.144 HD
ATOM     15  H   UNL     1      32.737 -14.367 -21.097  0.00  0.00    +0.144 HD
ATOM     16  H   UNL     1      31.158  -8.343 -19.605  0.00  0.00    +0.156 HD
ATOM     17  H   UNL     1      30.846  -9.629 -18.530  0.00  0.00    +0.156 HD
ENDBRANCH   1   6
BRANCH   1  18
ATOM     18  C   UNL     1      34.100 -14.925 -23.837  0.00  0.00    +0.205 C 
BRANCH  18  20
ATOM     19  N   UNL     1      35.195 -18.371 -21.474  0.00  0.00    +0.390 N 
ATOM     20  C   UNL     1      34.960 -16.011 -23.198  0.00  0.00    +0.040 C 
ATOM     21  C   UNL     1      34.511 -17.406 -23.646  0.00  0.00    -0.019 C 
ATOM     22  C   UNL     1      34.916 -15.921 -21.669  0.00  0.00    -0.019 C 
ATOM     23  C   UNL     1      35.303 -18.503 -22.933  0.00  0.00    -0.077 C 
ATOM     24  C   UNL     1      35.696 -17.067 -21.020  0.00  0.00    -0.077 C 
ATOM     25  H   UNL     1      34.208 -18.433 -21.225  0.00  0.00    -0.079 HD
BRANCH  19  26
ATOM     26  C   UNL     1      35.915 -19.456 -20.808  0.00  0.00    -0.048 C 
BRANCH  26  28
ATOM     27  F   UNL     1      36.831 -21.554 -19.135  0.00  0.00    -0.205 F 
ATOM     28  C   UNL     1      34.990 -20.333 -20.005  0.00  0.00    -0.016 C 
ATOM     29  C   UNL     1      35.509 -21.348 -19.201  0.00  0.00    +0.134 C 
ATOM     30  C   UNL     1      33.612 -20.128 -20.067  0.00  0.00    -0.004 C 
ATOM     31  C   UNL     1      34.648 -22.159 -18.460  0.00  0.00    +0.029 C 
ATOM     32  C   UNL     1      32.752 -20.938 -19.326  0.00  0.00    -0.000 C 
ATOM     33  C   UNL     1      33.270 -21.954 -18.523  0.00  0.00    +0.002 C 
ENDBRANCH  26  28
ENDBRANCH  19  26
ENDBRANCH  18  20
ENDBRANCH   1  18
TORSDOF 5
ENDMDL
MODEL 5
REMARK VINA RESULT:     -11.8      2.271      3.245
REMARK  Name = 23729147
REMARK  5 active torsions:
REMARK  status: ('A' for Active; 'I' for Inactive)
REMARK    1  A    between atoms: O_1  and  C_6
REMARK    2  A    between atoms: O_1  and  C_18
REMARK    3  A    between atoms: C_18  and  C_20
REMARK    4  A    between atoms: N_19  and  C_26
REMARK    5  A    between atoms: C_26  and  C_28
REMARK                            x       y       z     vdW  Elec       q    Type
REMARK                         _______ _______ _______ _____ _____    ______ ____
ROOT
ATOM      1  O   UNL     1      35.082 -22.279 -17.747  0.00  0.00    -0.479 OA
ENDROOT
BRANCH   1   6
ATOM      2  N   UNL     1      32.271 -23.746 -14.081  0.00  0.00    -0.332 NA
ATOM      3  N   UNL     1      31.211 -23.081 -16.141  0.00  0.00    -0.317 NA
ATOM      4  N   UNL     1      32.461 -22.357 -17.972  0.00  0.00    -0.335 N 
ATOM      5  N   UNL     1      29.938 -23.805 -14.312  0.00  0.00    -0.283 N 
ATOM      6  C   UNL     1      34.886 -22.745 -16.469  0.00  0.00    +0.130 C 
ATOM      7  C   UNL     1      33.618 -23.012 -15.926  0.00  0.00    +0.177 C 
ATOM      8  C   UNL     1      36.029 -22.948 -15.702  0.00  0.00    +0.033 C 
ATOM      9  C   UNL     1      33.480 -23.486 -14.611  0.00  0.00    +0.137 C 
ATOM     10  C   UNL     1      32.436 -22.831 -16.640  0.00  0.00    +0.181 C 
ATOM     11  C   UNL     1      35.905 -23.416 -14.399  0.00  0.00    +0.005 C 
ATOM     12  C   UNL     1      34.640 -23.681 -13.866  0.00  0.00    +0.030 C 
ATOM     13  C   UNL     1      31.202 -23.529 -14.875  0.00  0.00    +0.197 C 
ATOM     14  H   UNL     1      31.619 -22.234 -18.467  0.00  0.00    +0.144 HD
ATOM     15  H   UNL     1      33.321 -22.153 -18.406  0.00  0.00    +0.144 HD
ATOM     16  H   UNL     1      29.871 -24.135 -13.388  0.00  0.00    +0.156 HD
ATOM     17  H   UNL     1      29.121 -23.666 -14.845  0.00  0.00    +0.156 HD
ENDBRANCH   1   6
BRANCH   1  18
ATOM     18  C   UNL     1      36.325 -21.661 -18.022  0.00  0.00    +0.205 C 
BRANCH  18  20
ATOM     19  N   UNL     1      35.629 -18.614 -21.004  0.00  0.00    +0.390 N 
ATOM     20  C   UNL     1      36.237 -20.982 -19.386  0.00  0.00    +0.040 C 
ATOM     21  C   UNL     1      37.177 -19.774 -19.462  0.00  0.00    -0.019 C 
ATOM     22  C   UNL     1      34.802 -20.541 -19.691  0.00  0.00    -0.019 C 
ATOM     23  C   UNL     1      37.022 -19.030 -20.790  0.00  0.00    -0.077 C 
ATOM     24  C   UNL     1      34.725 -19.771 -21.012  0.00  0.00    -0.077 C 
ATOM     25  H   UNL     1      35.359 -18.009 -20.228  0.00  0.00    -0.079 HD
BRANCH  19  26
ATOM     26  C   UNL     1      35.507 -17.860 -22.251  0.00  0.00    -0.048 C 
BRANCH  26  28
ATOM     27  F   UNL     1      35.136 -15.974 -24.335  0.00  0.00    -0.205 F 
ATOM     28  C   UNL     1      35.134 -16.422 -22.003  0.00  0.00    -0.016 C 
ATOM     29  C   UNL     1      34.967 -15.547 -23.076  0.00  0.00    +0.134 C 
ATOM     30  C   UNL     1      34.957 -15.967 -20.697  0.00  0.00    -0.004 C 
ATOM     31  C   UNL     1      34.623 -14.214 -22.842  0.00  0.00    +0.029 C 
ATOM     32  C   UNL     1      34.613 -14.636 -20.463  0.00  0.00    -0.000 C 
ATOM     33  C   UNL     1      34.446 -13.759 -21.535  0.00  0.00    +0.002 C 
ENDBRANCH  26  28
ENDBRANCH  19  26
ENDBRANCH  18  20
ENDBRANCH   1  18
TORSDOF 5
ENDMDL
MODEL 6
REMARK VINA RESULT:     -11.7      2.541      3.716
REMARK  Name = 23729147
REMARK  5 active torsions:
REMARK  status: ('A' for Active; 'I' for Inactive)
REMARK    1  A    between atoms: O_1  and  C_6
REMARK    2  A    between atoms: O_1  and  C_18
REMARK    3  A    between atoms: C_18  and  C_20
REMARK    4  A    between atoms: N_19  and  C_26
REMARK    5  A    between atoms: C_26  and  C_28
REMARK                            x       y       z     vdW  Elec       q    Type
REMARK                         _______ _______ _______ _____ _____    ______ ____
ROOT
ATOM      1  O   UNL     1      32.968 -22.620 -17.297  0.00  0.00    -0.479 OA
ENDROOT
BRANCH   1   6
ATOM      2  N   UNL     1      32.197 -24.431 -12.869  0.00  0.00    -0.332 NA
ATOM      3  N   UNL     1      30.288 -23.765 -14.181  0.00  0.00    -0.317 NA
ATOM      4  N   UNL     1      30.537 -22.881 -16.325  0.00  0.00    -0.335 N 
ATOM      5  N   UNL     1      30.018 -24.651 -12.029  0.00  0.00    -0.283 N 
ATOM      6  C   UNL     1      33.395 -23.148 -16.103  0.00  0.00    +0.130 C 
ATOM      7  C   UNL     1      32.525 -23.529 -15.067  0.00  0.00    +0.177 C 
ATOM      8  C   UNL     1      34.770 -23.298 -15.947  0.00  0.00    +0.033 C 
ATOM      9  C   UNL     1      33.021 -24.062 -13.866  0.00  0.00    +0.137 C 
ATOM     10  C   UNL     1      31.141 -23.407 -15.159  0.00  0.00    +0.181 C 
ATOM     11  C   UNL     1      35.272 -23.824 -14.763  0.00  0.00    +0.005 C 
ATOM     12  C   UNL     1      34.400 -24.201 -13.738  0.00  0.00    +0.030 C 
ATOM     13  C   UNL     1      30.875 -24.262 -13.081  0.00  0.00    +0.197 C 
ATOM     14  H   UNL     1      29.557 -22.800 -16.378  0.00  0.00    +0.144 HD
ATOM     15  H   UNL     1      31.096 -22.597 -17.084  0.00  0.00    +0.144 HD
ATOM     16  H   UNL     1      30.393 -25.022 -11.199  0.00  0.00    +0.156 HD
ATOM     17  H   UNL     1      29.043 -24.552 -12.127  0.00  0.00    +0.156 HD
ENDBRANCH   1   6
BRANCH   1  18
ATOM     18  C   UNL     1      33.813 -22.801 -18.418  0.00  0.00    +0.205 C 
BRANCH  18  20
ATOM     19  N   UNL     1      35.381 -19.659 -20.934  0.00  0.00    +0.390 N 
ATOM     20  C   UNL     1      34.354 -21.438 -18.842  0.00  0.00    +0.040 C 
ATOM     21  C   UNL     1      33.443 -20.784 -19.886  0.00  0.00    -0.019 C 
ATOM     22  C   UNL     1      35.776 -21.559 -19.400  0.00  0.00    -0.019 C 
ATOM     23  C   UNL     1      34.030 -19.464 -20.390  0.00  0.00    -0.077 C 
ATOM     24  C   UNL     1      36.286 -20.213 -19.920  0.00  0.00    -0.077 C 
ATOM     25  H   UNL     1      35.318 -20.330 -21.699  0.00  0.00    -0.079 HD
BRANCH  19  26
ATOM     26  C   UNL     1      35.907 -18.398 -21.457  0.00  0.00    -0.048 C 
BRANCH  26  28
ATOM     27  F   UNL     1      35.688 -15.667 -22.186  0.00  0.00    -0.205 F 
ATOM     28  C   UNL     1      35.139 -17.928 -22.664  0.00  0.00    -0.016 C 
ATOM     29  C   UNL     1      35.071 -16.567 -22.964  0.00  0.00    +0.134 C 
ATOM     30  C   UNL     1      34.493 -18.855 -23.480  0.00  0.00    -0.004 C 
ATOM     31  C   UNL     1      34.357 -16.134 -24.083  0.00  0.00    +0.029 C 
ATOM     32  C   UNL     1      33.780 -18.423 -24.598  0.00  0.00    -0.000 C 
ATOM     33  C   UNL     1      33.711 -17.063 -24.899  0.00  0.00    +0.002 C 
ENDBRANCH  26  28
ENDBRANCH  19  26
ENDBRANCH  18  20
ENDBRANCH   1  18
TORSDOF 5
ENDMDL
MODEL 7
REMARK VINA RESULT:     -11.7      3.669     10.236
REMARK  Name = 23729147
REMARK  5 active torsions:
REMARK  status: ('A' for Active; 'I' for Inactive)
REMARK    1  A    between atoms: O_1  and  C_6
REMARK    2  A    between atoms: O_1  and  C_18
REMARK    3  A    between atoms: C_18  and  C_20
REMARK    4  A    between atoms: N_19  and  C_26
REMARK    5  A    between atoms: C_26  and  C_28
REMARK                            x       y       z     vdW  Elec       q    Type
REMARK                         _______ _______ _______ _____ _____    ______ ____
ROOT
ATOM      1  O   UNL     1      35.075 -17.889 -21.947  0.00  0.00    -0.479 OA
ENDROOT
BRANCH   1   6
ATOM      2  N   UNL     1      33.947 -13.624 -23.954  0.00  0.00    -0.332 NA
ATOM      3  N   UNL     1      33.989 -15.578 -25.365  0.00  0.00    -0.317 NA
ATOM      4  N   UNL     1      34.518 -17.682 -24.510  0.00  0.00    -0.335 N 
ATOM      5  N   UNL     1      33.456 -13.471 -26.242  0.00  0.00    -0.283 N 
ATOM      6  C   UNL     1      34.857 -16.534 -21.892  0.00  0.00    +0.130 C 
ATOM      7  C   UNL     1      34.499 -15.759 -23.009  0.00  0.00    +0.177 C 
ATOM      8  C   UNL     1      35.008 -15.931 -20.647  0.00  0.00    +0.033 C 
ATOM      9  C   UNL     1      34.290 -14.375 -22.891  0.00  0.00    +0.137 C 
ATOM     10  C   UNL     1      34.331 -16.299 -24.281  0.00  0.00    +0.181 C 
ATOM     11  C   UNL     1      34.804 -14.562 -20.518  0.00  0.00    +0.005 C 
ATOM     12  C   UNL     1      34.448 -13.799 -21.634  0.00  0.00    +0.030 C 
ATOM     13  C   UNL     1      33.816 -14.267 -25.132  0.00  0.00    +0.197 C 
ATOM     14  H   UNL     1      34.396 -18.053 -25.414  0.00  0.00    +0.144 HD
ATOM     15  H   UNL     1      34.769 -18.276 -23.765  0.00  0.00    +0.144 HD
ATOM     16  H   UNL     1      33.316 -12.504 -26.130  0.00  0.00    +0.156 HD
ATOM     17  H   UNL     1      33.344 -13.886 -27.128  0.00  0.00    +0.156 HD
ENDBRANCH   1   6
BRANCH   1  18
ATOM     18  C   UNL     1      35.860 -18.455 -20.914  0.00  0.00    +0.205 C 
BRANCH  18  20
ATOM     19  N   UNL     1      34.198 -21.762 -18.686  0.00  0.00    +0.390 N 
ATOM     20  C   UNL     1      35.321 -19.849 -20.603  0.00  0.00    +0.040 C 
ATOM     21  C   UNL     1      33.864 -19.784 -20.134  0.00  0.00    -0.019 C 
ATOM     22  C   UNL     1      36.176 -20.546 -19.541  0.00  0.00    -0.019 C 
ATOM     23  C   UNL     1      33.347 -21.165 -19.725  0.00  0.00    -0.077 C 
ATOM     24  C   UNL     1      35.584 -21.903 -19.152  0.00  0.00    -0.077 C 
ATOM     25  H   UNL     1      34.198 -21.135 -17.882  0.00  0.00    -0.079 HD
BRANCH  19  26
ATOM     26  C   UNL     1      33.663 -23.058 -18.270  0.00  0.00    -0.048 C 
BRANCH  26  28
ATOM     27  F   UNL     1      35.494 -23.170 -16.109  0.00  0.00    -0.205 F 
ATOM     28  C   UNL     1      33.233 -23.050 -16.827  0.00  0.00    -0.016 C 
ATOM     29  C   UNL     1      34.189 -23.108 -15.812  0.00  0.00    +0.134 C 
ATOM     30  C   UNL     1      31.878 -22.987 -16.507  0.00  0.00    -0.004 C 
ATOM     31  C   UNL     1      33.787 -23.102 -14.475  0.00  0.00    +0.029 C 
ATOM     32  C   UNL     1      31.476 -22.980 -15.171  0.00  0.00    -0.000 C 
ATOM     33  C   UNL     1      32.431 -23.038 -14.155  0.00  0.00    +0.002 C 
ENDBRANCH  26  28
ENDBRANCH  19  26
ENDBRANCH  18  20
ENDBRANCH   1  18
TORSDOF 5
ENDMDL
MODEL 8
REMARK VINA RESULT:     -11.7      3.867      6.317
REMARK  Name = 23729147
REMARK  5 active torsions:
REMARK  status: ('A' for Active; 'I' for Inactive)
REMARK    1  A    between atoms: O_1  and  C_6
REMARK    2  A    between atoms: O_1  and  C_18
REMARK    3  A    between atoms: C_18  and  C_20
REMARK    4  A    between atoms: N_19  and  C_26
REMARK    5  A    between atoms: C_26  and  C_28
REMARK                            x       y       z     vdW  Elec       q    Type
REMARK                         _______ _______ _______ _____ _____    ______ ____
ROOT
ATOM      1  O   UNL     1      34.364 -18.896 -21.455  0.00  0.00    -0.479 OA
ENDROOT
BRANCH   1   6
ATOM      2  N   UNL     1      34.794 -22.263 -17.996  0.00  0.00    -0.332 NA
ATOM      3  N   UNL     1      32.594 -21.779 -18.854  0.00  0.00    -0.317 NA
ATOM      4  N   UNL     1      32.266 -20.179 -20.519  0.00  0.00    -0.335 N 
ATOM      5  N   UNL     1      32.905 -23.390 -17.181  0.00  0.00    -0.283 N 
ATOM      6  C   UNL     1      35.096 -19.653 -20.572  0.00  0.00    +0.130 C 
ATOM      7  C   UNL     1      34.528 -20.605 -19.709  0.00  0.00    +0.177 C 
ATOM      8  C   UNL     1      36.471 -19.435 -20.559  0.00  0.00    +0.033 C 
ATOM      9  C   UNL     1      35.327 -21.348 -18.825  0.00  0.00    +0.137 C 
ATOM     10  C   UNL     1      33.161 -20.872 -19.672  0.00  0.00    +0.181 C 
ATOM     11  C   UNL     1      37.272 -20.164 -19.689  0.00  0.00    +0.005 C 
ATOM     12  C   UNL     1      36.699 -21.111 -18.834  0.00  0.00    +0.030 C 
ATOM     13  C   UNL     1      33.456 -22.428 -18.055  0.00  0.00    +0.197 C 
ATOM     14  H   UNL     1      31.302 -20.376 -20.484  0.00  0.00    +0.144 HD
ATOM     15  H   UNL     1      32.606 -19.500 -21.146  0.00  0.00    +0.144 HD
ATOM     16  H   UNL     1      33.489 -23.896 -16.573  0.00  0.00    +0.156 HD
ATOM     17  H   UNL     1      31.934 -23.554 -17.181  0.00  0.00    +0.156 HD
ENDBRANCH   1   6
BRANCH   1  18
ATOM     18  C   UNL     1      34.806 -18.872 -22.799  0.00  0.00    +0.205 C 
BRANCH  18  20
ATOM     19  N   UNL     1      33.891 -14.691 -23.380  0.00  0.00    +0.390 N 
ATOM     20  C   UNL     1      34.959 -17.417 -23.234  0.00  0.00    +0.040 C 
ATOM     21  C   UNL     1      34.938 -16.476 -22.026  0.00  0.00    -0.019 C 
ATOM     22  C   UNL     1      33.856 -17.018 -24.219  0.00  0.00    -0.019 C 
ATOM     23  C   UNL     1      34.991 -15.010 -22.460  0.00  0.00    -0.077 C 
ATOM     24  C   UNL     1      33.944 -15.533 -24.582  0.00  0.00    -0.077 C 
ATOM     25  H   UNL     1      33.012 -14.884 -22.900  0.00  0.00    -0.079 HD
BRANCH  19  26
ATOM     26  C   UNL     1      33.925 -13.275 -23.746  0.00  0.00    -0.048 C 
BRANCH  26  28
ATOM     27  F   UNL     1      33.820 -10.446 -23.899  0.00  0.00    -0.205 F 
ATOM     28  C   UNL     1      33.149 -12.426 -22.773  0.00  0.00    -0.016 C 
ATOM     29  C   UNL     1      33.141 -11.037 -22.907  0.00  0.00    +0.134 C 
ATOM     30  C   UNL     1      32.440 -13.031 -21.737  0.00  0.00    -0.004 C 
ATOM     31  C   UNL     1      32.422 -10.254 -22.003  0.00  0.00    +0.029 C 
ATOM     32  C   UNL     1      31.721 -12.249 -20.833  0.00  0.00    -0.000 C 
ATOM     33  C   UNL     1      31.712 -10.860 -20.966  0.00  0.00    +0.002 C 
ENDBRANCH  26  28
ENDBRANCH  19  26
ENDBRANCH  18  20
ENDBRANCH   1  18
TORSDOF 5
ENDMDL
MODEL 9
REMARK VINA RESULT:     -11.6      3.645      9.895
REMARK  Name = 23729147
REMARK  5 active torsions:
REMARK  status: ('A' for Active; 'I' for Inactive)
REMARK    1  A    between atoms: O_1  and  C_6
REMARK    2  A    between atoms: O_1  and  C_18
REMARK    3  A    between atoms: C_18  and  C_20
REMARK    4  A    between atoms: N_19  and  C_26
REMARK    5  A    between atoms: C_26  and  C_28
REMARK                            x       y       z     vdW  Elec       q    Type
REMARK                         _______ _______ _______ _____ _____    ______ ____
ROOT
ATOM      1  O   UNL     1      35.042 -17.872 -20.829  0.00  0.00    -0.479 OA
ENDROOT
BRANCH   1   6
ATOM      2  N   UNL     1      34.333 -14.217 -23.930  0.00  0.00    -0.332 NA
ATOM      3  N   UNL     1      34.617 -13.696 -21.594  0.00  0.00    -0.317 NA
ATOM      4  N   UNL     1      34.965 -15.373 -20.010  0.00  0.00    -0.335 N 
ATOM      5  N   UNL     1      34.269 -11.999 -23.171  0.00  0.00    -0.283 N 
ATOM      6  C   UNL     1      34.830 -17.363 -22.087  0.00  0.00    +0.130 C 
ATOM      7  C   UNL     1      34.687 -15.990 -22.354  0.00  0.00    +0.177 C 
ATOM      8  C   UNL     1      34.757 -18.286 -23.126  0.00  0.00    +0.033 C 
ATOM      9  C   UNL     1      34.470 -15.528 -23.663  0.00  0.00    +0.137 C 
ATOM     10  C   UNL     1      34.751 -15.016 -21.362  0.00  0.00    +0.181 C 
ATOM     11  C   UNL     1      34.542 -17.840 -24.424  0.00  0.00    +0.005 C 
ATOM     12  C   UNL     1      34.402 -16.473 -24.683  0.00  0.00    +0.030 C 
ATOM     13  C   UNL     1      34.414 -13.373 -22.882  0.00  0.00    +0.197 C 
ATOM     14  H   UNL     1      35.008 -14.675 -19.318  0.00  0.00    +0.144 HD
ATOM     15  H   UNL     1      35.072 -16.320 -19.762  0.00  0.00    +0.144 HD
ATOM     16  H   UNL     1      34.118 -11.704 -24.097  0.00  0.00    +0.156 HD
ATOM     17  H   UNL     1      34.320 -11.335 -22.445  0.00  0.00    +0.156 HD
ENDBRANCH   1   6
BRANCH   1  18
ATOM     18  C   UNL     1      36.081 -18.823 -20.688  0.00  0.00    +0.205 C 
BRANCH  18  20
ATOM     19  N   UNL     1      34.134 -21.947 -18.427  0.00  0.00    +0.390 N 
ATOM     20  C   UNL     1      35.459 -20.175 -20.351  0.00  0.00    +0.040 C 
ATOM     21  C   UNL     1      33.981 -20.025 -19.976  0.00  0.00    -0.019 C 
ATOM     22  C   UNL     1      36.215 -20.860 -19.208  0.00  0.00    -0.019 C 
ATOM     23  C   UNL     1      33.377 -21.361 -19.542  0.00  0.00    -0.077 C 
ATOM     24  C   UNL     1      35.537 -22.170 -18.798  0.00  0.00    -0.077 C 
ATOM     25  H   UNL     1      34.116 -21.284 -17.652  0.00  0.00    -0.079 HD
BRANCH  19  26
ATOM     26  C   UNL     1      33.515 -23.197 -17.990  0.00  0.00    -0.048 C 
BRANCH  26  28
ATOM     27  F   UNL     1      35.226 -23.369 -15.735  0.00  0.00    -0.205 F 
ATOM     28  C   UNL     1      33.018 -23.110 -16.571  0.00  0.00    -0.016 C 
ATOM     29  C   UNL     1      33.916 -23.203 -15.507  0.00  0.00    +0.134 C 
ATOM     30  C   UNL     1      31.657 -22.938 -16.322  0.00  0.00    -0.004 C 
ATOM     31  C   UNL     1      33.451 -23.123 -14.193  0.00  0.00    +0.029 C 
ATOM     32  C   UNL     1      31.192 -22.858 -15.009  0.00  0.00    -0.000 C 
ATOM     33  C   UNL     1      32.089 -22.951 -13.945  0.00  0.00    +0.002 C 
ENDBRANCH  26  28
ENDBRANCH  19  26
ENDBRANCH  18  20
ENDBRANCH   1  18
TORSDOF 5
ENDMDL
