MODEL 1
REMARK VINA RESULT:     -11.3      0.000      0.000
REMARK  Name = 11609586
REMARK  6 active torsions:
REMARK  status: ('A' for Active; 'I' for Inactive)
REMARK    1  A    between atoms: N_1  and  C_3
REMARK    2  A    between atoms: N_1  and  C_17
REMARK    3  A    between atoms: C_6  and  N_9
REMARK    4  A    between atoms: N_9  and  C_12
REMARK    5  A    between atoms: C_17  and  C_18
REMARK    6  A    between atoms: C_18  and  C_20
REMARK                            x       y       z     vdW  Elec       q    Type
REMARK                         _______ _______ _______ _____ _____    ______ ____
ROOT
ATOM      1  N   UNL     1      35.989 -19.120 -20.971  0.00  0.00    -0.332 N 
ATOM      2  H   UNL     1      36.874 -18.840 -20.640  0.00  0.00    +0.147 HD
ENDROOT
BRANCH   1   3
ATOM      3  C   UNL     1      35.282 -20.057 -20.229  0.00  0.00    +0.045 C 
ATOM      4  C   UNL     1      33.876 -20.075 -20.245  0.00  0.00    +0.016 C 
ATOM      5  C   UNL     1      35.955 -21.010 -19.444  0.00  0.00    +0.016 C 
ATOM      6  C   UNL     1      33.850 -21.955 -18.728  0.00  0.00    +0.048 C 
ATOM      7  C   UNL     1      33.166 -21.016 -19.500  0.00  0.00    +0.016 C 
ATOM      8  C   UNL     1      35.245 -21.951 -18.699  0.00  0.00    +0.016 C 
BRANCH   6   9
ATOM      9  N   UNL     1      33.132 -22.907 -17.976  0.00  0.00    -0.312 N 
ATOM     10  H   UNL     1      32.749 -23.634 -18.519  0.00  0.00    +0.152 HD
BRANCH   9  12
ATOM     11  N   UNL     1      32.303 -23.254 -13.868  0.00  0.00    -0.242 NA
ATOM     12  C   UNL     1      32.854 -23.023 -16.600  0.00  0.00    +0.051 C 
ATOM     13  C   UNL     1      33.885 -23.257 -15.696  0.00  0.00    +0.035 C 
ATOM     14  C   UNL     1      31.547 -22.904 -16.137  0.00  0.00    +0.035 C 
ATOM     15  C   UNL     1      33.560 -23.363 -14.353  0.00  0.00    +0.100 C 
ATOM     16  C   UNL     1      31.327 -23.025 -14.775  0.00  0.00    +0.100 C 
ENDBRANCH   9  12
ENDBRANCH   6   9
ENDBRANCH   1   3
BRANCH   1  17
ATOM     17  C   UNL     1      35.507 -18.534 -22.192  0.00  0.00    +0.092 C 
BRANCH  17  18
ATOM     18  C   UNL     1      35.512 -16.995 -22.139  0.00  0.00    +0.049 C 
BRANCH  18  20
ATOM     19  N   UNL     1      33.724 -16.047 -25.179  0.00  0.00    -0.312 N 
ATOM     20  C   UNL     1      34.787 -16.353 -23.254  0.00  0.00    -0.005 C 
ATOM     21  C   UNL     1      34.417 -14.982 -23.346  0.00  0.00    +0.011 C 
ATOM     22  C   UNL     1      33.752 -14.816 -24.563  0.00  0.00    +0.048 C 
ATOM     23  C   UNL     1      34.347 -16.981 -24.396  0.00  0.00    +0.058 C 
ATOM     24  C   UNL     1      34.586 -13.861 -22.508  0.00  0.00    +0.001 C 
ATOM     25  C   UNL     1      33.245 -13.583 -24.985  0.00  0.00    +0.015 C 
ATOM     26  C   UNL     1      34.083 -12.620 -22.918  0.00  0.00    +0.000 C 
ATOM     27  C   UNL     1      33.423 -12.486 -24.138  0.00  0.00    +0.001 C 
ATOM     28  H   UNL     1      33.316 -16.230 -26.056  0.00  0.00    +0.152 HD
ENDBRANCH  18  20
ENDBRANCH  17  18
ENDBRANCH   1  17
TORSDOF 6
ENDMDL
MODEL 2
REMARK VINA RESULT:     -11.2      1.367     10.121
REMARK  Name = 11609586
REMARK  6 active torsions:
REMARK  status: ('A' for Active; 'I' for Inactive)
REMARK    1  A    between atoms: N_1  and  C_3
REMARK    2  A    between atoms: N_1  and  C_17
REMARK    3  A    between atoms: C_6  and  N_9
REMARK    4  A    between atoms: N_9  and  C_12
REMARK    5  A    between atoms: C_17  and  C_18
REMARK    6  A    between atoms: C_18  and  C_20
REMARK                            x       y       z     vdW  Elec       q    Type
REMARK                         _______ _______ _______ _____ _____    ______ ____
ROOT
ATOM      1  N   UNL     1      35.103 -21.372 -19.120  0.00  0.00    -0.332 N 
ATOM      2  H   UNL     1      35.885 -21.888 -18.814  0.00  0.00    +0.147 HD
ENDROOT
BRANCH   1   3
ATOM      3  C   UNL     1      35.317 -20.337 -20.020  0.00  0.00    +0.045 C 
ATOM      4  C   UNL     1      36.560 -19.682 -20.081  0.00  0.00    +0.016 C 
ATOM      5  C   UNL     1      34.296 -19.919 -20.892  0.00  0.00    +0.016 C 
ATOM      6  C   UNL     1      35.750 -18.241 -21.844  0.00  0.00    +0.048 C 
ATOM      7  C   UNL     1      36.774 -18.642 -20.985  0.00  0.00    +0.016 C 
ATOM      8  C   UNL     1      34.511 -18.879 -21.797  0.00  0.00    +0.016 C 
BRANCH   6   9
ATOM      9  N   UNL     1      35.969 -17.190 -22.759  0.00  0.00    -0.312 N 
ATOM     10  H   UNL     1      36.906 -17.104 -23.047  0.00  0.00    +0.152 HD
BRANCH   9  12
ATOM     11  N   UNL     1      33.400 -14.352 -24.500  0.00  0.00    -0.242 NA
ATOM     12  C   UNL     1      35.108 -16.240 -23.342  0.00  0.00    +0.051 C 
ATOM     13  C   UNL     1      34.611 -16.441 -24.625  0.00  0.00    +0.035 C 
ATOM     14  C   UNL     1      34.750 -15.094 -22.637  0.00  0.00    +0.035 C 
ATOM     15  C   UNL     1      33.768 -15.477 -25.155  0.00  0.00    +0.100 C 
ATOM     16  C   UNL     1      33.901 -14.191 -23.255  0.00  0.00    +0.100 C 
ENDBRANCH   9  12
ENDBRANCH   6   9
ENDBRANCH   1   3
BRANCH   1  17
ATOM     17  C   UNL     1      33.810 -21.737 -18.609  0.00  0.00    +0.092 C 
BRANCH  17  18
ATOM     18  C   UNL     1      33.815 -23.132 -17.959  0.00  0.00    +0.049 C 
BRANCH  18  20
ATOM     19  N   UNL     1      34.172 -23.073 -14.325  0.00  0.00    -0.312 N 
ATOM     20  C   UNL     1      33.676 -23.110 -16.488  0.00  0.00    -0.005 C 
ATOM     21  C   UNL     1      32.458 -23.110 -15.752  0.00  0.00    +0.011 C 
ATOM     22  C   UNL     1      32.798 -23.087 -14.397  0.00  0.00    +0.048 C 
ATOM     23  C   UNL     1      34.712 -23.087 -15.583  0.00  0.00    +0.058 C 
ATOM     24  C   UNL     1      31.095 -23.128 -16.108  0.00  0.00    +0.001 C 
ATOM     25  C   UNL     1      31.839 -23.080 -13.378  0.00  0.00    +0.015 C 
ATOM     26  C   UNL     1      30.125 -23.122 -15.099  0.00  0.00    +0.000 C 
ATOM     27  C   UNL     1      30.494 -23.097 -13.755  0.00  0.00    +0.001 C 
ATOM     28  H   UNL     1      34.693 -23.056 -13.489  0.00  0.00    +0.152 HD
ENDBRANCH  18  20
ENDBRANCH  17  18
ENDBRANCH   1  17
TORSDOF 6
ENDMDL
MODEL 3
REMARK VINA RESULT:     -11.2      1.677     10.386
REMARK  Name = 11609586
REMARK  6 active torsions:
REMARK  status: ('A' for Active; 'I' for Inactive)
REMARK    1  A    between atoms: N_1  and  C_3
REMARK    2  A    between atoms: N_1  and  C_17
REMARK    3  A    between atoms: C_6  and  N_9
REMARK    4  A    between atoms: N_9  and  C_12
REMARK    5  A    between atoms: C_17  and  C_18
REMARK    6  A    between atoms: C_18  and  C_20
REMARK                            x       y       z     vdW  Elec       q    Type
REMARK                         _______ _______ _______ _____ _____    ______ ____
ROOT
ATOM      1  N   UNL     1      33.352 -22.643 -17.903  0.00  0.00    -0.332 N 
ATOM      2  H   UNL     1      32.383 -22.811 -17.950  0.00  0.00    +0.147 HD
ENDROOT
BRANCH   1   3
ATOM      3  C   UNL     1      33.895 -21.707 -18.773  0.00  0.00    +0.045 C 
ATOM      4  C   UNL     1      35.286 -21.615 -18.953  0.00  0.00    +0.016 C 
ATOM      5  C   UNL     1      33.066 -20.830 -19.494  0.00  0.00    +0.016 C 
ATOM      6  C   UNL     1      34.994 -19.812 -20.536  0.00  0.00    +0.048 C 
ATOM      7  C   UNL     1      35.831 -20.674 -19.827  0.00  0.00    +0.016 C 
ATOM      8  C   UNL     1      33.611 -19.890 -20.369  0.00  0.00    +0.016 C 
BRANCH   6   9
ATOM      9  N   UNL     1      35.545 -18.863 -21.421  0.00  0.00    -0.312 N 
ATOM     10  H   UNL     1      36.456 -18.579 -21.180  0.00  0.00    +0.152 HD
BRANCH   9  12
ATOM     11  N   UNL     1      34.059 -17.006 -24.889  0.00  0.00    -0.242 NA
ATOM     12  C   UNL     1      35.047 -18.241 -22.583  0.00  0.00    +0.051 C 
ATOM     13  C   UNL     1      34.315 -18.975 -23.509  0.00  0.00    +0.035 C 
ATOM     14  C   UNL     1      35.286 -16.889 -22.809  0.00  0.00    +0.035 C 
ATOM     15  C   UNL     1      33.847 -18.317 -24.636  0.00  0.00    +0.100 C 
ATOM     16  C   UNL     1      34.774 -16.325 -23.966  0.00  0.00    +0.100 C 
ENDBRANCH   9  12
ENDBRANCH   6   9
ENDBRANCH   1   3
BRANCH   1  17
ATOM     17  C   UNL     1      34.121 -23.381 -16.937  0.00  0.00    +0.092 C 
BRANCH  17  18
ATOM     18  C   UNL     1      33.897 -22.869 -15.503  0.00  0.00    +0.049 C 
BRANCH  18  20
ATOM     19  N   UNL     1      32.222 -25.140 -13.186  0.00  0.00    -0.312 N 
ATOM     20  C   UNL     1      32.983 -23.707 -14.700  0.00  0.00    -0.005 C 
ATOM     21  C   UNL     1      31.571 -23.797 -14.844  0.00  0.00    +0.011 C 
ATOM     22  C   UNL     1      31.117 -24.703 -13.883  0.00  0.00    +0.048 C 
ATOM     23  C   UNL     1      33.353 -24.544 -13.673  0.00  0.00    +0.058 C 
ATOM     24  C   UNL     1      30.630 -23.194 -15.703  0.00  0.00    +0.001 C 
ATOM     25  C   UNL     1      29.767 -25.037 -13.737  0.00  0.00    +0.015 C 
ATOM     26  C   UNL     1      29.275 -23.519 -15.568  0.00  0.00    +0.000 C 
ATOM     27  C   UNL     1      28.852 -24.426 -14.599  0.00  0.00    +0.001 C 
ATOM     28  H   UNL     1      32.201 -25.788 -12.445  0.00  0.00    +0.152 HD
ENDBRANCH  18  20
ENDBRANCH  17  18
ENDBRANCH   1  17
TORSDOF 6
ENDMDL
MODEL 4
REMARK VINA RESULT:     -11.2      3.179      9.745
REMARK  Name = 11609586
REMARK  6 active torsions:
REMARK  status: ('A' for Active; 'I' for Inactive)
REMARK    1  A    between atoms: N_1  and  C_3
REMARK    2  A    between atoms: N_1  and  C_17
REMARK    3  A    between atoms: C_6  and  N_9
REMARK    4  A    between atoms: N_9  and  C_12
REMARK    5  A    between atoms: C_17  and  C_18
REMARK    6  A    between atoms: C_18  and  C_20
REMARK                            x       y       z     vdW  Elec       q    Type
REMARK                         _______ _______ _______ _____ _____    ______ ____
ROOT
ATOM      1  N   UNL     1      35.695 -16.018 -22.752  0.00  0.00    -0.332 N 
ATOM      2  H   UNL     1      36.632 -15.716 -22.786  0.00  0.00    +0.147 HD
ENDROOT
BRANCH   1   3
ATOM      3  C   UNL     1      34.722 -15.088 -22.410  0.00  0.00    +0.045 C 
ATOM      4  C   UNL     1      34.534 -14.704 -21.071  0.00  0.00    +0.016 C 
ATOM      5  C   UNL     1      33.902 -14.510 -23.395  0.00  0.00    +0.016 C 
ATOM      6  C   UNL     1      32.752 -13.205 -21.718  0.00  0.00    +0.048 C 
ATOM      7  C   UNL     1      33.555 -13.770 -20.728  0.00  0.00    +0.016 C 
ATOM      8  C   UNL     1      32.925 -13.575 -23.052  0.00  0.00    +0.016 C 
BRANCH   6   9
ATOM      9  N   UNL     1      31.765 -12.260 -21.371  0.00  0.00    -0.312 N 
ATOM     10  H   UNL     1      30.850 -12.622 -21.373  0.00  0.00    +0.152 HD
BRANCH   9  12
ATOM     11  N   UNL     1      31.964  -8.191 -20.326  0.00  0.00    -0.242 NA
ATOM     12  C   UNL     1      31.832 -10.896 -21.021  0.00  0.00    +0.051 C 
ATOM     13  C   UNL     1      31.520 -10.491 -19.728  0.00  0.00    +0.035 C 
ATOM     14  C   UNL     1      32.210  -9.949 -21.967  0.00  0.00    +0.035 C 
ATOM     15  C   UNL     1      31.600  -9.139 -19.433  0.00  0.00    +0.100 C 
ATOM     16  C   UNL     1      32.261  -8.622 -21.572  0.00  0.00    +0.100 C 
ENDBRANCH   9  12
ENDBRANCH   6   9
ENDBRANCH   1   3
BRANCH   1  17
ATOM     17  C   UNL     1      35.417 -17.395 -23.059  0.00  0.00    +0.092 C 
BRANCH  17  18
ATOM     18  C   UNL     1      34.527 -18.059 -21.992  0.00  0.00    +0.049 C 
BRANCH  18  20
ATOM     19  N   UNL     1      36.906 -19.843 -19.873  0.00  0.00    -0.312 N 
ATOM     20  C   UNL     1      35.263 -18.929 -21.052  0.00  0.00    -0.005 C 
ATOM     21  C   UNL     1      34.711 -19.964 -20.247  0.00  0.00    +0.011 C 
ATOM     22  C   UNL     1      35.763 -20.522 -19.517  0.00  0.00    +0.048 C 
ATOM     23  C   UNL     1      36.614 -18.879 -20.800  0.00  0.00    +0.058 C 
ATOM     24  C   UNL     1      33.413 -20.483 -20.069  0.00  0.00    +0.001 C 
ATOM     25  C   UNL     1      35.581 -21.576 -18.615  0.00  0.00    +0.015 C 
ATOM     26  C   UNL     1      33.217 -21.538 -19.169  0.00  0.00    +0.000 C 
ATOM     27  C   UNL     1      34.286 -22.074 -18.454  0.00  0.00    +0.001 C 
ATOM     28  H   UNL     1      37.805 -20.024 -19.513  0.00  0.00    +0.152 HD
ENDBRANCH  18  20
ENDBRANCH  17  18
ENDBRANCH   1  17
TORSDOF 6
ENDMDL
MODEL 5
REMARK VINA RESULT:     -11.0      1.044      1.569
REMARK  Name = 11609586
REMARK  6 active torsions:
REMARK  status: ('A' for Active; 'I' for Inactive)
REMARK    1  A    between atoms: N_1  and  C_3
REMARK    2  A    between atoms: N_1  and  C_17
REMARK    3  A    between atoms: C_6  and  N_9
REMARK    4  A    between atoms: N_9  and  C_12
REMARK    5  A    between atoms: C_17  and  C_18
REMARK    6  A    between atoms: C_18  and  C_20
REMARK                            x       y       z     vdW  Elec       q    Type
REMARK                         _______ _______ _______ _____ _____    ______ ____
ROOT
ATOM      1  N   UNL     1      36.032 -19.244 -20.990  0.00  0.00    -0.332 N 
ATOM      2  H   UNL     1      36.756 -19.642 -21.527  0.00  0.00    +0.147 HD
ENDROOT
BRANCH   1   3
ATOM      3  C   UNL     1      35.225 -20.097 -20.249  0.00  0.00    +0.045 C 
ATOM      4  C   UNL     1      33.825 -19.968 -20.276  0.00  0.00    +0.016 C 
ATOM      5  C   UNL     1      35.789 -21.110 -19.453  0.00  0.00    +0.016 C 
ATOM      6  C   UNL     1      33.592 -21.825 -18.748  0.00  0.00    +0.048 C 
ATOM      7  C   UNL     1      33.016 -20.825 -19.531  0.00  0.00    +0.016 C 
ATOM      8  C   UNL     1      34.980 -21.967 -18.708  0.00  0.00    +0.016 C 
BRANCH   6   9
ATOM      9  N   UNL     1      32.773 -22.692 -17.996  0.00  0.00    -0.312 N 
ATOM     10  H   UNL     1      32.129 -23.201 -18.540  0.00  0.00    +0.152 HD
BRANCH   9  12
ATOM     11  N   UNL     1      32.539 -23.534 -13.883  0.00  0.00    -0.242 NA
ATOM     12  C   UNL     1      32.694 -22.974 -16.618  0.00  0.00    +0.051 C 
ATOM     13  C   UNL     1      33.839 -23.325 -15.910  0.00  0.00    +0.035 C 
ATOM     14  C   UNL     1      31.472 -22.903 -15.958  0.00  0.00    +0.035 C 
ATOM     15  C   UNL     1      33.709 -23.593 -14.557  0.00  0.00    +0.100 C 
ATOM     16  C   UNL     1      31.448 -23.188 -14.603  0.00  0.00    +0.100 C 
ENDBRANCH   9  12
ENDBRANCH   6   9
ENDBRANCH   1   3
BRANCH   1  17
ATOM     17  C   UNL     1      35.873 -17.815 -21.022  0.00  0.00    +0.092 C 
BRANCH  17  18
ATOM     18  C   UNL     1      35.444 -17.309 -22.411  0.00  0.00    +0.049 C 
BRANCH  18  20
ATOM     19  N   UNL     1      34.347 -13.891 -21.741  0.00  0.00    -0.312 N 
ATOM     20  C   UNL     1      34.931 -15.924 -22.414  0.00  0.00    -0.005 C 
ATOM     21  C   UNL     1      34.393 -15.223 -23.530  0.00  0.00    +0.011 C 
ATOM     22  C   UNL     1      34.034 -13.950 -23.080  0.00  0.00    +0.048 C 
ATOM     23  C   UNL     1      34.889 -15.079 -21.330  0.00  0.00    +0.058 C 
ATOM     24  C   UNL     1      34.176 -15.549 -24.883  0.00  0.00    +0.001 C 
ATOM     25  C   UNL     1      33.467 -12.984 -23.919  0.00  0.00    +0.015 C 
ATOM     26  C   UNL     1      33.609 -14.593 -25.734  0.00  0.00    +0.000 C 
ATOM     27  C   UNL     1      33.262 -13.330 -25.257  0.00  0.00    +0.001 C 
ATOM     28  H   UNL     1      34.202 -13.109 -21.161  0.00  0.00    +0.152 HD
ENDBRANCH  18  20
ENDBRANCH  17  18
ENDBRANCH   1  17
TORSDOF 6
ENDMDL
MODEL 6
REMARK VINA RESULT:     -11.0      2.250     10.707
REMARK  Name = 11609586
REMARK  6 active torsions:
REMARK  status: ('A' for Active; 'I' for Inactive)
REMARK    1  A    between atoms: N_1  and  C_3
REMARK    2  A    between atoms: N_1  and  C_17
REMARK    3  A    between atoms: C_6  and  N_9
REMARK    4  A    between atoms: N_9  and  C_12
REMARK    5  A    between atoms: C_17  and  C_18
REMARK    6  A    between atoms: C_18  and  C_20
REMARK                            x       y       z     vdW  Elec       q    Type
REMARK                         _______ _______ _______ _____ _____    ______ ____
ROOT
ATOM      1  N   UNL     1      33.529 -23.148 -18.019  0.00  0.00    -0.332 N 
ATOM      2  H   UNL     1      33.256 -23.967 -18.495  0.00  0.00    +0.147 HD
ENDROOT
BRANCH   1   3
ATOM      3  C   UNL     1      33.992 -22.079 -18.775  0.00  0.00    +0.045 C 
ATOM      4  C   UNL     1      33.096 -21.145 -19.324  0.00  0.00    +0.016 C 
ATOM      5  C   UNL     1      35.368 -21.905 -19.009  0.00  0.00    +0.016 C 
ATOM      6  C   UNL     1      34.930 -19.914 -20.304  0.00  0.00    +0.048 C 
ATOM      7  C   UNL     1      33.562 -20.072 -20.084  0.00  0.00    +0.016 C 
ATOM      8  C   UNL     1      35.833 -20.831 -19.767  0.00  0.00    +0.016 C 
BRANCH   6   9
ATOM      9  N   UNL     1      35.400 -18.827 -21.070  0.00  0.00    -0.312 N 
ATOM     10  H   UNL     1      36.158 -18.352 -20.660  0.00  0.00    +0.152 HD
BRANCH   9  12
ATOM     11  N   UNL     1      34.196 -17.215 -24.762  0.00  0.00    -0.242 NA
ATOM     12  C   UNL     1      34.996 -18.287 -22.307  0.00  0.00    +0.051 C 
ATOM     13  C   UNL     1      35.223 -16.945 -22.590  0.00  0.00    +0.035 C 
ATOM     14  C   UNL     1      34.369 -19.094 -23.251  0.00  0.00    +0.035 C 
ATOM     15  C   UNL     1      34.808 -16.461 -23.821  0.00  0.00    +0.100 C 
ATOM     16  C   UNL     1      33.993 -18.514 -24.452  0.00  0.00    +0.100 C 
ENDBRANCH   9  12
ENDBRANCH   6   9
ENDBRANCH   1   3
BRANCH   1  17
ATOM     17  C   UNL     1      33.424 -23.131 -16.586  0.00  0.00    +0.092 C 
BRANCH  17  18
ATOM     18  C   UNL     1      34.790 -22.926 -15.906  0.00  0.00    +0.049 C 
BRANCH  18  20
ATOM     19  N   UNL     1      34.445 -24.545 -12.651  0.00  0.00    -0.312 N 
ATOM     20  C   UNL     1      34.930 -23.625 -14.612  0.00  0.00    -0.005 C 
ATOM     21  C   UNL     1      36.130 -24.152 -14.059  0.00  0.00    +0.011 C 
ATOM     22  C   UNL     1      35.799 -24.723 -12.828  0.00  0.00    +0.048 C 
ATOM     23  C   UNL     1      33.912 -23.882 -13.723  0.00  0.00    +0.058 C 
ATOM     24  C   UNL     1      37.471 -24.198 -14.487  0.00  0.00    +0.001 C 
ATOM     25  C   UNL     1      36.745 -25.340 -12.003  0.00  0.00    +0.015 C 
ATOM     26  C   UNL     1      38.429 -24.812 -13.671  0.00  0.00    +0.000 C 
ATOM     27  C   UNL     1      38.068 -25.374 -12.448  0.00  0.00    +0.001 C 
ATOM     28  H   UNL     1      33.934 -24.849 -11.866  0.00  0.00    +0.152 HD
ENDBRANCH  18  20
ENDBRANCH  17  18
ENDBRANCH   1  17
TORSDOF 6
ENDMDL
MODEL 7
REMARK VINA RESULT:     -10.9      2.146     10.442
REMARK  Name = 11609586
REMARK  6 active torsions:
REMARK  status: ('A' for Active; 'I' for Inactive)
REMARK    1  A    between atoms: N_1  and  C_3
REMARK    2  A    between atoms: N_1  and  C_17
REMARK    3  A    between atoms: C_6  and  N_9
REMARK    4  A    between atoms: N_9  and  C_12
REMARK    5  A    between atoms: C_17  and  C_18
REMARK    6  A    between atoms: C_18  and  C_20
REMARK                            x       y       z     vdW  Elec       q    Type
REMARK                         _______ _______ _______ _____ _____    ______ ____
ROOT
ATOM      1  N   UNL     1      33.054 -22.630 -17.993  0.00  0.00    -0.332 N 
ATOM      2  H   UNL     1      32.070 -22.663 -17.946  0.00  0.00    +0.147 HD
ENDROOT
BRANCH   1   3
ATOM      3  C   UNL     1      33.635 -21.684 -18.827  0.00  0.00    +0.045 C 
ATOM      4  C   UNL     1      35.028 -21.655 -19.020  0.00  0.00    +0.016 C 
ATOM      5  C   UNL     1      32.846 -20.732 -19.497  0.00  0.00    +0.016 C 
ATOM      6  C   UNL     1      34.813 -19.768 -20.515  0.00  0.00    +0.048 C 
ATOM      7  C   UNL     1      35.612 -20.703 -19.857  0.00  0.00    +0.016 C 
ATOM      8  C   UNL     1      33.430 -19.783 -20.334  0.00  0.00    +0.016 C 
BRANCH   6   9
ATOM      9  N   UNL     1      35.404 -18.809 -21.362  0.00  0.00    -0.312 N 
ATOM     10  H   UNL     1      36.289 -18.503 -21.059  0.00  0.00    +0.152 HD
BRANCH   9  12
ATOM     11  N   UNL     1      34.126 -16.995 -24.935  0.00  0.00    -0.242 NA
ATOM     12  C   UNL     1      34.976 -18.201 -22.559  0.00  0.00    +0.051 C 
ATOM     13  C   UNL     1      34.218 -18.921 -23.476  0.00  0.00    +0.035 C 
ATOM     14  C   UNL     1      35.309 -16.878 -22.830  0.00  0.00    +0.035 C 
ATOM     15  C   UNL     1      33.821 -18.279 -24.638  0.00  0.00    +0.100 C 
ATOM     16  C   UNL     1      34.863 -16.327 -24.020  0.00  0.00    +0.100 C 
ENDBRANCH   9  12
ENDBRANCH   6   9
ENDBRANCH   1   3
BRANCH   1  17
ATOM     17  C   UNL     1      33.801 -23.564 -17.196  0.00  0.00    +0.092 C 
BRANCH  17  18
ATOM     18  C   UNL     1      33.746 -23.220 -15.696  0.00  0.00    +0.049 C 
BRANCH  18  20
ATOM     19  N   UNL     1      37.236 -22.724 -14.742  0.00  0.00    -0.312 N 
ATOM     20  C   UNL     1      35.072 -23.109 -15.055  0.00  0.00    -0.005 C 
ATOM     21  C   UNL     1      35.388 -23.416 -13.702  0.00  0.00    +0.011 C 
ATOM     22  C   UNL     1      36.752 -23.166 -13.532  0.00  0.00    +0.048 C 
ATOM     23  C   UNL     1      36.229 -22.687 -15.668  0.00  0.00    +0.058 C 
ATOM     24  C   UNL     1      34.643 -23.884 -12.602  0.00  0.00    +0.001 C 
ATOM     25  C   UNL     1      37.409 -23.362 -12.312  0.00  0.00    +0.015 C 
ATOM     26  C   UNL     1      35.287 -24.085 -11.375  0.00  0.00    +0.000 C 
ATOM     27  C   UNL     1      36.650 -23.826 -11.235  0.00  0.00    +0.001 C 
ATOM     28  H   UNL     1      38.171 -22.472 -14.917  0.00  0.00    +0.152 HD
ENDBRANCH  18  20
ENDBRANCH  17  18
ENDBRANCH   1  17
TORSDOF 6
ENDMDL
MODEL 8
REMARK VINA RESULT:     -10.8      3.731     10.156
REMARK  Name = 11609586
REMARK  6 active torsions:
REMARK  status: ('A' for Active; 'I' for Inactive)
REMARK    1  A    between atoms: N_1  and  C_3
REMARK    2  A    between atoms: N_1  and  C_17
REMARK    3  A    between atoms: C_6  and  N_9
REMARK    4  A    between atoms: N_9  and  C_12
REMARK    5  A    between atoms: C_17  and  C_18
REMARK    6  A    between atoms: C_18  and  C_20
REMARK                            x       y       z     vdW  Elec       q    Type
REMARK                         _______ _______ _______ _____ _____    ______ ____
ROOT
ATOM      1  N   UNL     1      34.876 -15.433 -21.418  0.00  0.00    -0.332 N 
ATOM      2  H   UNL     1      35.251 -15.792 -20.582  0.00  0.00    +0.147 HD
ENDROOT
BRANCH   1   3
ATOM      3  C   UNL     1      33.984 -14.372 -21.330  0.00  0.00    +0.045 C 
ATOM      4  C   UNL     1      33.874 -13.436 -22.374  0.00  0.00    +0.016 C 
ATOM      5  C   UNL     1      33.171 -14.207 -20.195  0.00  0.00    +0.016 C 
ATOM      6  C   UNL     1      32.179 -12.224 -21.152  0.00  0.00    +0.048 C 
ATOM      7  C   UNL     1      32.979 -12.370 -22.285  0.00  0.00    +0.016 C 
ATOM      8  C   UNL     1      32.275 -13.142 -20.107  0.00  0.00    +0.016 C 
BRANCH   6   9
ATOM      9  N   UNL     1      31.272 -11.147 -21.064  0.00  0.00    -0.312 N 
ATOM     10  H   UNL     1      30.327 -11.420 -21.103  0.00  0.00    +0.152 HD
BRANCH   9  12
ATOM     11  N   UNL     1      31.814  -6.996 -20.668  0.00  0.00    -0.242 NA
ATOM     12  C   UNL     1      31.454  -9.756 -20.931  0.00  0.00    +0.051 C 
ATOM     13  C   UNL     1      31.362  -8.930 -22.046  0.00  0.00    +0.035 C 
ATOM     14  C   UNL     1      31.726  -9.202 -19.684  0.00  0.00    +0.035 C 
ATOM     15  C   UNL     1      31.548  -7.569 -21.864  0.00  0.00    +0.100 C 
ATOM     16  C   UNL     1      31.895  -7.829 -19.607  0.00  0.00    +0.100 C 
ENDBRANCH   9  12
ENDBRANCH   6   9
ENDBRANCH   1   3
BRANCH   1  17
ATOM     17  C   UNL     1      35.283 -16.037 -22.657  0.00  0.00    +0.092 C 
BRANCH  17  18
ATOM     18  C   UNL     1      34.950 -17.540 -22.707  0.00  0.00    +0.049 C 
BRANCH  18  20
ATOM     19  N   UNL     1      37.394 -19.205 -20.565  0.00  0.00    -0.312 N 
ATOM     20  C   UNL     1      35.715 -18.357 -21.744  0.00  0.00    -0.005 C 
ATOM     21  C   UNL     1      35.189 -19.351 -20.870  0.00  0.00    +0.011 C 
ATOM     22  C   UNL     1      36.264 -19.867 -20.142  0.00  0.00    +0.048 C 
ATOM     23  C   UNL     1      37.073 -18.292 -21.532  0.00  0.00    +0.058 C 
ATOM     24  C   UNL     1      33.899 -19.862 -20.629  0.00  0.00    +0.001 C 
ATOM     25  C   UNL     1      36.111 -20.872 -19.181  0.00  0.00    +0.015 C 
ATOM     26  C   UNL     1      33.732 -20.868 -19.670  0.00  0.00    +0.000 C 
ATOM     27  C   UNL     1      34.823 -21.364 -18.958  0.00  0.00    +0.001 C 
ATOM     28  H   UNL     1      38.303 -19.365 -20.222  0.00  0.00    +0.152 HD
ENDBRANCH  18  20
ENDBRANCH  17  18
ENDBRANCH   1  17
TORSDOF 6
ENDMDL
MODEL 9
REMARK VINA RESULT:     -10.7      2.207      4.672
REMARK  Name = 11609586
REMARK  6 active torsions:
REMARK  status: ('A' for Active; 'I' for Inactive)
REMARK    1  A    between atoms: N_1  and  C_3
REMARK    2  A    between atoms: N_1  and  C_17
REMARK    3  A    between atoms: C_6  and  N_9
REMARK    4  A    between atoms: N_9  and  C_12
REMARK    5  A    between atoms: C_17  and  C_18
REMARK    6  A    between atoms: C_18  and  C_20
REMARK                            x       y       z     vdW  Elec       q    Type
REMARK                         _______ _______ _______ _____ _____    ______ ____
ROOT
ATOM      1  N   UNL     1      34.470 -15.719 -24.396  0.00  0.00    -0.332 N 
ATOM      2  H   UNL     1      34.976 -15.726 -25.242  0.00  0.00    +0.147 HD
ENDROOT
BRANCH   1   3
ATOM      3  C   UNL     1      34.723 -16.729 -23.477  0.00  0.00    +0.045 C 
ATOM      4  C   UNL     1      35.255 -16.431 -22.210  0.00  0.00    +0.016 C 
ATOM      5  C   UNL     1      34.453 -18.072 -23.792  0.00  0.00    +0.016 C 
ATOM      6  C   UNL     1      35.234 -18.773 -21.616  0.00  0.00    +0.048 C 
ATOM      7  C   UNL     1      35.509 -17.446 -21.287  0.00  0.00    +0.016 C 
ATOM      8  C   UNL     1      34.706 -19.087 -22.869  0.00  0.00    +0.016 C 
BRANCH   6   9
ATOM      9  N   UNL     1      35.489 -19.798 -20.681  0.00  0.00    -0.312 N 
ATOM     10  H   UNL     1      36.445 -20.000 -20.565  0.00  0.00    +0.152 HD
BRANCH   9  12
ATOM     11  N   UNL     1      32.964 -22.165 -18.292  0.00  0.00    -0.242 NA
ATOM     12  C   UNL     1      34.642 -20.591 -19.881  0.00  0.00    +0.051 C 
ATOM     13  C   UNL     1      35.169 -21.635 -19.128  0.00  0.00    +0.035 C 
ATOM     14  C   UNL     1      33.276 -20.334 -19.839  0.00  0.00    +0.035 C 
ATOM     15  C   UNL     1      34.296 -22.385 -18.357  0.00  0.00    +0.100 C 
ATOM     16  C   UNL     1      32.488 -21.141 -19.036  0.00  0.00    +0.100 C 
ENDBRANCH   9  12
ENDBRANCH   6   9
ENDBRANCH   1   3
BRANCH   1  17
ATOM     17  C   UNL     1      33.515 -14.665 -24.187  0.00  0.00    +0.092 C 
BRANCH  17  18
ATOM     18  C   UNL     1      34.130 -13.462 -23.449  0.00  0.00    +0.049 C 
BRANCH  18  20
ATOM     19  N   UNL     1      31.752 -12.428 -20.878  0.00  0.00    -0.312 N 
ATOM     20  C   UNL     1      33.201 -12.786 -22.522  0.00  0.00    -0.005 C 
ATOM     21  C   UNL     1      32.866 -11.403 -22.516  0.00  0.00    +0.011 C 
ATOM     22  C   UNL     1      31.956 -11.205 -21.476  0.00  0.00    +0.048 C 
ATOM     23  C   UNL     1      32.499 -13.389 -21.503  0.00  0.00    +0.058 C 
ATOM     24  C   UNL     1      33.251 -10.296 -23.299  0.00  0.00    +0.001 C 
ATOM     25  C   UNL     1      31.410  -9.951 -21.178  0.00  0.00    +0.015 C 
ATOM     26  C   UNL     1      32.713  -9.036 -23.012  0.00  0.00    +0.000 C 
ATOM     27  C   UNL     1      31.807  -8.869 -21.967  0.00  0.00    +0.001 C 
ATOM     28  H   UNL     1      31.155 -12.589 -20.112  0.00  0.00    +0.152 HD
ENDBRANCH  18  20
ENDBRANCH  17  18
ENDBRANCH   1  17
TORSDOF 6
ENDMDL
