MODEL 1
REMARK VINA RESULT:     -11.9      0.000      0.000
REMARK  Name = 60795
REMARK  7 active torsions:
REMARK  status: ('A' for Active; 'I' for Inactive)
REMARK    1  A    between atoms: C_1  and  N_2
REMARK    2  A    between atoms: C_1  and  C_17
REMARK    3  A    between atoms: N_3  and  C_11
REMARK    4  A    between atoms: C_17  and  C_18
REMARK    5  A    between atoms: C_18  and  C_19
REMARK    6  A    between atoms: C_19  and  O_20
REMARK    7  A    between atoms: O_20  and  C_26
REMARK                            x       y       z     vdW  Elec       q    Type
REMARK                         _______ _______ _______ _____ _____    ______ ____
ROOT
ATOM      1  C   UNL     1      34.620 -17.149 -24.110  0.00  0.00    -0.077 C 
ENDROOT
BRANCH   1   2
ATOM      2  N   UNL     1      34.591 -15.702 -23.902  0.00  0.00    +0.389 N 
ATOM      3  N   UNL     1      33.517 -13.221 -22.976  0.00  0.00    -0.311 N 
ATOM      4  C   UNL     1      33.416 -15.111 -24.554  0.00  0.00    -0.055 C 
ATOM      5  C   UNL     1      34.577 -15.387 -22.468  0.00  0.00    -0.055 C 
ATOM      6  C   UNL     1      33.404 -13.590 -24.393  0.00  0.00    +0.068 C 
ATOM      7  C   UNL     1      34.602 -13.874 -22.236  0.00  0.00    +0.068 C 
ATOM      8  H   UNL     1      35.433 -15.303 -24.317  0.00  0.00    -0.080 HD
BRANCH   3  11
ATOM      9 CL   UNL     1      31.892 -13.095 -20.445  0.00  0.00    -0.080 Cl
ATOM     10 CL   UNL     1      30.948 -10.129 -19.662  0.00  0.00    -0.081 Cl
ATOM     11  C   UNL     1      33.083 -11.949 -22.590  0.00  0.00    +0.059 C 
ATOM     12  C   UNL     1      32.310 -11.727 -21.429  0.00  0.00    +0.081 C 
ATOM     13  C   UNL     1      33.418 -10.830 -23.380  0.00  0.00    +0.015 C 
ATOM     14  C   UNL     1      31.893 -10.443 -21.076  0.00  0.00    +0.069 C 
ATOM     15  C   UNL     1      33.002  -9.547 -23.026  0.00  0.00    +0.002 C 
ATOM     16  C   UNL     1      32.239  -9.353 -21.874  0.00  0.00    +0.012 C 
ENDBRANCH   3  11
ENDBRANCH   1   2
BRANCH   1  17
ATOM     17  C   UNL     1      35.345 -17.836 -22.954  0.00  0.00    -0.019 C 
BRANCH  17  18
ATOM     18  C   UNL     1      34.752 -19.217 -22.673  0.00  0.00    +0.045 C 
BRANCH  18  19
ATOM     19  C   UNL     1      34.525 -19.438 -21.184  0.00  0.00    +0.205 C 
BRANCH  19  20
ATOM     20  O   UNL     1      35.589 -20.219 -20.643  0.00  0.00    -0.475 OA
BRANCH  20  26
ATOM     21  O   UNL     1      37.823 -23.118 -14.556  0.00  0.00    -0.275 OA
ATOM     22  N   UNL     1      37.099 -22.231 -16.546  0.00  0.00    -0.284 N 
ATOM     23  C   UNL     1      34.765 -22.412 -17.205  0.00  0.00    -0.008 C 
ATOM     24  C   UNL     1      34.515 -23.289 -16.012  0.00  0.00    +0.037 C 
ATOM     25  C   UNL     1      36.063 -21.944 -17.452  0.00  0.00    +0.049 C 
ATOM     26  C   UNL     1      35.322 -20.936 -19.517  0.00  0.00    +0.140 C 
ATOM     27  C   UNL     1      35.452 -22.931 -14.869  0.00  0.00    +0.090 C 
ATOM     28  C   UNL     1      36.345 -21.216 -18.611  0.00  0.00    +0.051 C 
ATOM     29  C   UNL     1      33.750 -22.137 -18.127  0.00  0.00    +0.000 C 
ATOM     30  C   UNL     1      34.027 -21.393 -19.275  0.00  0.00    +0.037 C 
ATOM     31  C   UNL     1      36.899 -22.808 -15.307  0.00  0.00    +0.226 C 
ATOM     32  H   UNL     1      38.021 -22.007 -16.811  0.00  0.00    +0.155 HD
ENDBRANCH  20  26
ENDBRANCH  19  20
ENDBRANCH  18  19
ENDBRANCH  17  18
ENDBRANCH   1  17
TORSDOF 7
ENDMDL
MODEL 2
REMARK VINA RESULT:     -11.8      3.309      6.253
REMARK  Name = 60795
REMARK  7 active torsions:
REMARK  status: ('A' for Active; 'I' for Inactive)
REMARK    1  A    between atoms: C_1  and  N_2
REMARK    2  A    between atoms: C_1  and  C_17
REMARK    3  A    between atoms: N_3  and  C_11
REMARK    4  A    between atoms: C_17  and  C_18
REMARK    5  A    between atoms: C_18  and  C_19
REMARK    6  A    between atoms: C_19  and  O_20
REMARK    7  A    between atoms: O_20  and  C_26
REMARK                            x       y       z     vdW  Elec       q    Type
REMARK                         _______ _______ _______ _____ _____    ______ ____
ROOT
ATOM      1  C   UNL     1      35.800 -21.720 -18.459  0.00  0.00    -0.077 C 
ENDROOT
BRANCH   1   2
ATOM      2  N   UNL     1      35.734 -20.916 -19.679  0.00  0.00    +0.389 N 
ATOM      3  N   UNL     1      35.280 -18.558 -21.227  0.00  0.00    -0.311 N 
ATOM      4  C   UNL     1      34.369 -20.423 -19.898  0.00  0.00    -0.055 C 
ATOM      5  C   UNL     1      36.667 -19.785 -19.601  0.00  0.00    -0.055 C 
ATOM      6  C   UNL     1      34.274 -19.628 -21.201  0.00  0.00    +0.068 C 
ATOM      7  C   UNL     1      36.649 -18.966 -20.895  0.00  0.00    +0.068 C 
ATOM      8  H   UNL     1      36.000 -21.508 -20.465  0.00  0.00    -0.080 HD
BRANCH   3  11
ATOM      9 CL   UNL     1      35.035 -15.859 -19.917  0.00  0.00    -0.080 Cl
ATOM     10 CL   UNL     1      34.548 -13.456 -21.989  0.00  0.00    -0.081 Cl
ATOM     11  C   UNL     1      35.069 -17.476 -22.088  0.00  0.00    +0.059 C 
ATOM     12  C   UNL     1      34.932 -16.149 -21.626  0.00  0.00    +0.081 C 
ATOM     13  C   UNL     1      34.985 -17.700 -23.478  0.00  0.00    +0.015 C 
ATOM     14  C   UNL     1      34.720 -15.094 -22.515  0.00  0.00    +0.069 C 
ATOM     15  C   UNL     1      34.775 -16.646 -24.367  0.00  0.00    +0.002 C 
ATOM     16  C   UNL     1      34.643 -15.343 -23.885  0.00  0.00    +0.012 C 
ENDBRANCH   3  11
ENDBRANCH   1   2
BRANCH   1  17
ATOM     17  C   UNL     1      36.832 -21.138 -17.495  0.00  0.00    -0.019 C 
BRANCH  17  18
ATOM     18  C   UNL     1      37.266 -22.174 -16.458  0.00  0.00    +0.045 C 
BRANCH  18  19
ATOM     19  C   UNL     1      36.179 -22.419 -15.419  0.00  0.00    +0.205 C 
BRANCH  19  20
ATOM     20  O   UNL     1      35.408 -23.561 -15.787  0.00  0.00    -0.475 OA
BRANCH  20  26
ATOM     21  O   UNL     1      28.474 -22.370 -16.768  0.00  0.00    -0.275 OA
ATOM     22  N   UNL     1      30.718 -22.712 -16.417  0.00  0.00    -0.284 N 
ATOM     23  C   UNL     1      31.504 -23.746 -14.360  0.00  0.00    -0.008 C 
ATOM     24  C   UNL     1      30.102 -23.705 -13.824  0.00  0.00    +0.037 C 
ATOM     25  C   UNL     1      31.770 -23.210 -15.627  0.00  0.00    +0.049 C 
ATOM     26  C   UNL     1      34.129 -23.620 -15.322  0.00  0.00    +0.140 C 
ATOM     27  C   UNL     1      29.087 -23.813 -14.952  0.00  0.00    +0.090 C 
ATOM     28  C   UNL     1      33.081 -23.137 -16.105  0.00  0.00    +0.051 C 
ATOM     29  C   UNL     1      32.564 -24.215 -13.578  0.00  0.00    +0.000 C 
ATOM     30  C   UNL     1      33.872 -24.160 -14.062  0.00  0.00    +0.037 C 
ATOM     31  C   UNL     1      29.382 -22.872 -16.105  0.00  0.00    +0.226 C 
ATOM     32  H   UNL     1      30.948 -22.222 -17.239  0.00  0.00    +0.155 HD
ENDBRANCH  20  26
ENDBRANCH  19  20
ENDBRANCH  18  19
ENDBRANCH  17  18
ENDBRANCH   1  17
TORSDOF 7
ENDMDL
MODEL 3
REMARK VINA RESULT:     -11.8      1.773      2.164
REMARK  Name = 60795
REMARK  7 active torsions:
REMARK  status: ('A' for Active; 'I' for Inactive)
REMARK    1  A    between atoms: C_1  and  N_2
REMARK    2  A    between atoms: C_1  and  C_17
REMARK    3  A    between atoms: N_3  and  C_11
REMARK    4  A    between atoms: C_17  and  C_18
REMARK    5  A    between atoms: C_18  and  C_19
REMARK    6  A    between atoms: C_19  and  O_20
REMARK    7  A    between atoms: O_20  and  C_26
REMARK                            x       y       z     vdW  Elec       q    Type
REMARK                         _______ _______ _______ _____ _____    ______ ____
ROOT
ATOM      1  C   UNL     1      34.460 -16.684 -24.583  0.00  0.00    -0.077 C 
ENDROOT
BRANCH   1   2
ATOM      2  N   UNL     1      34.437 -15.257 -24.266  0.00  0.00    +0.389 N 
ATOM      3  N   UNL     1      33.409 -12.861 -23.096  0.00  0.00    -0.311 N 
ATOM      4  C   UNL     1      33.223 -14.629 -24.803  0.00  0.00    -0.055 C 
ATOM      5  C   UNL     1      34.506 -15.050 -22.814  0.00  0.00    -0.055 C 
ATOM      6  C   UNL     1      33.214 -13.125 -24.528  0.00  0.00    +0.068 C 
ATOM      7  C   UNL     1      34.538 -13.558 -22.471  0.00  0.00    +0.068 C 
ATOM      8  H   UNL     1      35.251 -14.822 -24.699  0.00  0.00    -0.080 HD
BRANCH   3  11
ATOM      9 CL   UNL     1      31.860 -12.945 -20.517  0.00  0.00    -0.080 Cl
ATOM     10 CL   UNL     1      30.954 -10.053 -19.459  0.00  0.00    -0.081 Cl
ATOM     11  C   UNL     1      32.993 -11.625 -22.592  0.00  0.00    +0.059 C 
ATOM     12  C   UNL     1      32.256 -11.499 -21.394  0.00  0.00    +0.081 C 
ATOM     13  C   UNL     1      33.311 -10.444 -23.295  0.00  0.00    +0.015 C 
ATOM     14  C   UNL     1      31.856 -10.248 -20.921  0.00  0.00    +0.069 C 
ATOM     15  C   UNL     1      32.911  -9.194 -22.822  0.00  0.00    +0.002 C 
ATOM     16  C   UNL     1      32.184  -9.096 -21.635  0.00  0.00    +0.012 C 
ENDBRANCH   3  11
ENDBRANCH   1   2
BRANCH   1  17
ATOM     17  C   UNL     1      35.039 -17.478 -23.414  0.00  0.00    -0.019 C 
BRANCH  17  18
ATOM     18  C   UNL     1      34.563 -18.930 -23.441  0.00  0.00    +0.045 C 
BRANCH  18  19
ATOM     19  C   UNL     1      34.166 -19.418 -22.054  0.00  0.00    +0.205 C 
BRANCH  19  20
ATOM     20  O   UNL     1      35.336 -19.692 -21.285  0.00  0.00    -0.475 OA
BRANCH  20  26
ATOM     21  O   UNL     1      31.046 -22.889 -16.613  0.00  0.00    -0.275 OA
ATOM     22  N   UNL     1      32.444 -21.817 -18.087  0.00  0.00    -0.284 N 
ATOM     23  C   UNL     1      34.858 -22.003 -17.859  0.00  0.00    -0.008 C 
ATOM     24  C   UNL     1      34.661 -22.745 -16.568  0.00  0.00    +0.037 C 
ATOM     25  C   UNL     1      33.738 -21.529 -18.555  0.00  0.00    +0.049 C 
ATOM     26  C   UNL     1      35.177 -20.448 -20.164  0.00  0.00    +0.140 C 
ATOM     27  C   UNL     1      33.358 -23.528 -16.586  0.00  0.00    +0.090 C 
ATOM     28  C   UNL     1      33.896 -20.744 -19.701  0.00  0.00    +0.051 C 
ATOM     29  C   UNL     1      36.138 -21.689 -18.325  0.00  0.00    +0.000 C 
ATOM     30  C   UNL     1      36.296 -20.921 -19.480  0.00  0.00    +0.037 C 
ATOM     31  C   UNL     1      32.177 -22.702 -17.060  0.00  0.00    +0.226 C 
ATOM     32  H   UNL     1      31.683 -21.361 -18.516  0.00  0.00    +0.155 HD
ENDBRANCH  20  26
ENDBRANCH  19  20
ENDBRANCH  18  19
ENDBRANCH  17  18
ENDBRANCH   1  17
TORSDOF 7
ENDMDL
MODEL 4
REMARK VINA RESULT:     -11.7      4.227     11.135
REMARK  Name = 60795
REMARK  7 active torsions:
REMARK  status: ('A' for Active; 'I' for Inactive)
REMARK    1  A    between atoms: C_1  and  N_2
REMARK    2  A    between atoms: C_1  and  C_17
REMARK    3  A    between atoms: N_3  and  C_11
REMARK    4  A    between atoms: C_17  and  C_18
REMARK    5  A    between atoms: C_18  and  C_19
REMARK    6  A    between atoms: C_19  and  O_20
REMARK    7  A    between atoms: O_20  and  C_26
REMARK                            x       y       z     vdW  Elec       q    Type
REMARK                         _______ _______ _______ _____ _____    ______ ____
ROOT
ATOM      1  C   UNL     1      34.579 -15.936 -24.066  0.00  0.00    -0.077 C 
ENDROOT
BRANCH   1   2
ATOM      2  N   UNL     1      35.124 -17.017 -23.246  0.00  0.00    +0.389 N 
ATOM      3  N   UNL     1      35.091 -19.006 -21.195  0.00  0.00    -0.311 N 
ATOM      4  C   UNL     1      35.153 -16.626 -21.831  0.00  0.00    -0.055 C 
ATOM      5  C   UNL     1      34.329 -18.240 -23.409  0.00  0.00    -0.055 C 
ATOM      6  C   UNL     1      35.774 -17.726 -20.969  0.00  0.00    +0.068 C 
ATOM      7  C   UNL     1      34.922 -19.395 -22.598  0.00  0.00    +0.068 C 
ATOM      8  H   UNL     1      36.078 -17.201 -23.555  0.00  0.00    -0.080 HD
BRANCH   3  11
ATOM      9 CL   UNL     1      32.497 -20.162 -20.197  0.00  0.00    -0.080 Cl
ATOM     10 CL   UNL     1      32.870 -22.412 -17.938  0.00  0.00    -0.081 Cl
ATOM     11  C   UNL     1      35.199 -19.993 -20.209  0.00  0.00    +0.059 C 
ATOM     12  C   UNL     1      34.074 -20.629 -19.641  0.00  0.00    +0.081 C 
ATOM     13  C   UNL     1      36.475 -20.381 -19.752  0.00  0.00    +0.015 C 
ATOM     14  C   UNL     1      34.221 -21.609 -18.658  0.00  0.00    +0.069 C 
ATOM     15  C   UNL     1      36.622 -21.362 -18.771  0.00  0.00    +0.002 C 
ATOM     16  C   UNL     1      35.495 -21.976 -18.224  0.00  0.00    +0.012 C 
ENDBRANCH   3  11
ENDBRANCH   1   2
BRANCH   1  17
ATOM     17  C   UNL     1      34.692 -14.603 -23.330  0.00  0.00    -0.019 C 
BRANCH  17  18
ATOM     18  C   UNL     1      33.332 -13.912 -23.225  0.00  0.00    +0.045 C 
BRANCH  18  19
ATOM     19  C   UNL     1      33.052 -13.435 -21.806  0.00  0.00    +0.205 C 
BRANCH  19  20
ATOM     20  O   UNL     1      31.878 -12.626 -21.792  0.00  0.00    -0.475 OA
BRANCH  20  26
ATOM     21  O   UNL     1      33.863  -5.886 -22.834  0.00  0.00    -0.275 OA
ATOM     22  N   UNL     1      33.265  -8.073 -22.465  0.00  0.00    -0.284 N 
ATOM     23  C   UNL     1      32.268  -8.743 -20.351  0.00  0.00    -0.008 C 
ATOM     24  C   UNL     1      32.516  -7.362 -19.816  0.00  0.00    +0.037 C 
ATOM     25  C   UNL     1      32.689  -9.062 -21.648  0.00  0.00    +0.049 C 
ATOM     26  C   UNL     1      32.006 -11.355 -21.322  0.00  0.00    +0.140 C 
ATOM     27  C   UNL     1      32.467  -6.331 -20.934  0.00  0.00    +0.090 C 
ATOM     28  C   UNL     1      32.569 -10.368 -22.131  0.00  0.00    +0.051 C 
ATOM     29  C   UNL     1      31.718  -9.743 -19.543  0.00  0.00    +0.000 C 
ATOM     30  C   UNL     1      31.580 -11.043 -20.032  0.00  0.00    +0.037 C 
ATOM     31  C   UNL     1      33.293  -6.730 -22.143  0.00  0.00    +0.226 C 
ATOM     32  H   UNL     1      33.673  -8.355 -23.317  0.00  0.00    +0.155 HD
ENDBRANCH  20  26
ENDBRANCH  19  20
ENDBRANCH  18  19
ENDBRANCH  17  18
ENDBRANCH   1  17
TORSDOF 7
ENDMDL
MODEL 5
REMARK VINA RESULT:     -11.3      2.814      4.714
REMARK  Name = 60795
REMARK  7 active torsions:
REMARK  status: ('A' for Active; 'I' for Inactive)
REMARK    1  A    between atoms: C_1  and  N_2
REMARK    2  A    between atoms: C_1  and  C_17
REMARK    3  A    between atoms: N_3  and  C_11
REMARK    4  A    between atoms: C_17  and  C_18
REMARK    5  A    between atoms: C_18  and  C_19
REMARK    6  A    between atoms: C_19  and  O_20
REMARK    7  A    between atoms: O_20  and  C_26
REMARK                            x       y       z     vdW  Elec       q    Type
REMARK                         _______ _______ _______ _____ _____    ______ ____
ROOT
ATOM      1  C   UNL     1      33.033 -13.287 -21.410  0.00  0.00    -0.077 C 
ENDROOT
BRANCH   1   2
ATOM      2  N   UNL     1      32.456 -12.053 -21.942  0.00  0.00    +0.389 N 
ATOM      3  N   UNL     1      32.153  -9.226 -22.225  0.00  0.00    -0.311 N 
ATOM      4  C   UNL     1      31.856 -11.258 -20.863  0.00  0.00    -0.055 C 
ATOM      5  C   UNL     1      33.480 -11.262 -22.634  0.00  0.00    -0.055 C 
ATOM      6  C   UNL     1      31.198  -9.992 -21.413  0.00  0.00    +0.068 C 
ATOM      7  C   UNL     1      32.877  -9.993 -23.244  0.00  0.00    +0.068 C 
ATOM      8  H   UNL     1      31.728 -12.304 -22.610  0.00  0.00    -0.080 HD
BRANCH   3  11
ATOM      9 CL   UNL     1      33.182  -7.357 -20.101  0.00  0.00    -0.080 Cl
ATOM     10 CL   UNL     1      32.540  -4.266 -20.679  0.00  0.00    -0.081 Cl
ATOM     11  C   UNL     1      31.900  -7.866 -22.431  0.00  0.00    +0.059 C 
ATOM     12  C   UNL     1      32.317  -6.867 -21.525  0.00  0.00    +0.081 C 
ATOM     13  C   UNL     1      31.200  -7.456 -23.585  0.00  0.00    +0.015 C 
ATOM     14  C   UNL     1      32.045  -5.519 -21.763  0.00  0.00    +0.069 C 
ATOM     15  C   UNL     1      30.929  -6.109 -23.823  0.00  0.00    +0.002 C 
ATOM     16  C   UNL     1      31.352  -5.140 -22.912  0.00  0.00    +0.012 C 
ENDBRANCH   3  11
ENDBRANCH   1   2
BRANCH   1  17
ATOM     17  C   UNL     1      34.117 -13.814 -22.349  0.00  0.00    -0.019 C 
BRANCH  17  18
ATOM     18  C   UNL     1      34.644 -15.170 -21.880  0.00  0.00    +0.045 C 
BRANCH  18  19
ATOM     19  C   UNL     1      35.501 -15.839 -22.946  0.00  0.00    +0.205 C 
BRANCH  19  20
ATOM     20  O   UNL     1      35.058 -17.179 -23.151  0.00  0.00    -0.475 OA
BRANCH  20  26
ATOM     21  O   UNL     1      32.811 -22.151 -18.603  0.00  0.00    -0.275 OA
ATOM     22  N   UNL     1      33.543 -20.509 -20.032  0.00  0.00    -0.284 N 
ATOM     23  C   UNL     1      35.902 -19.927 -20.143  0.00  0.00    -0.008 C 
ATOM     24  C   UNL     1      36.165 -20.847 -18.985  0.00  0.00    +0.037 C 
ATOM     25  C   UNL     1      34.588 -19.760 -20.601  0.00  0.00    +0.049 C 
ATOM     26  C   UNL     1      35.332 -18.079 -22.166  0.00  0.00    +0.140 C 
ATOM     27  C   UNL     1      35.176 -22.003 -18.976  0.00  0.00    +0.090 C 
ATOM     28  C   UNL     1      34.300 -18.831 -21.604  0.00  0.00    +0.051 C 
ATOM     29  C   UNL     1      36.926 -19.159 -20.704  0.00  0.00    +0.000 C 
ATOM     30  C   UNL     1      36.643 -18.244 -21.720  0.00  0.00    +0.037 C 
ATOM     31  C   UNL     1      33.738 -21.552 -19.148  0.00  0.00    +0.226 C 
ATOM     32  H   UNL     1      32.618 -20.275 -20.278  0.00  0.00    +0.155 HD
ENDBRANCH  20  26
ENDBRANCH  19  20
ENDBRANCH  18  19
ENDBRANCH  17  18
ENDBRANCH   1  17
TORSDOF 7
ENDMDL
MODEL 6
REMARK VINA RESULT:     -11.3      4.479     11.371
REMARK  Name = 60795
REMARK  7 active torsions:
REMARK  status: ('A' for Active; 'I' for Inactive)
REMARK    1  A    between atoms: C_1  and  N_2
REMARK    2  A    between atoms: C_1  and  C_17
REMARK    3  A    between atoms: N_3  and  C_11
REMARK    4  A    between atoms: C_17  and  C_18
REMARK    5  A    between atoms: C_18  and  C_19
REMARK    6  A    between atoms: C_19  and  O_20
REMARK    7  A    between atoms: O_20  and  C_26
REMARK                            x       y       z     vdW  Elec       q    Type
REMARK                         _______ _______ _______ _____ _____    ______ ____
ROOT
ATOM      1  C   UNL     1      35.100 -15.574 -24.316  0.00  0.00    -0.077 C 
ENDROOT
BRANCH   1   2
ATOM      2  N   UNL     1      35.364 -16.715 -23.441  0.00  0.00    +0.389 N 
ATOM      3  N   UNL     1      34.736 -18.707 -21.491  0.00  0.00    -0.311 N 
ATOM      4  C   UNL     1      35.166 -16.342 -22.034  0.00  0.00    -0.055 C 
ATOM      5  C   UNL     1      34.490 -17.842 -23.786  0.00  0.00    -0.055 C 
ATOM      6  C   UNL     1      35.495 -17.510 -21.104  0.00  0.00    +0.068 C 
ATOM      7  C   UNL     1      34.795 -19.063 -22.912  0.00  0.00    +0.068 C 
ATOM      8  H   UNL     1      36.334 -16.999 -23.572  0.00  0.00    -0.080 HD
BRANCH   3  11
ATOM      9 CL   UNL     1      37.219 -19.642 -20.070  0.00  0.00    -0.080 Cl
ATOM     10 CL   UNL     1      36.676 -21.943 -17.899  0.00  0.00    -0.081 Cl
ATOM     11  C   UNL     1      34.552 -19.709 -20.533  0.00  0.00    +0.059 C 
ATOM     12  C   UNL     1      35.619 -20.252 -19.784  0.00  0.00    +0.081 C 
ATOM     13  C   UNL     1      33.257 -20.210 -20.291  0.00  0.00    +0.015 C 
ATOM     14  C   UNL     1      35.398 -21.253 -18.836  0.00  0.00    +0.069 C 
ATOM     15  C   UNL     1      33.036 -21.210 -19.343  0.00  0.00    +0.002 C 
ATOM     16  C   UNL     1      34.106 -21.731 -18.616  0.00  0.00    +0.012 C 
ENDBRANCH   3  11
ENDBRANCH   1   2
BRANCH   1  17
ATOM     17  C   UNL     1      33.620 -15.525 -24.692  0.00  0.00    -0.019 C 
BRANCH  17  18
ATOM     18  C   UNL     1      33.049 -14.119 -24.509  0.00  0.00    +0.045 C 
BRANCH  18  19
ATOM     19  C   UNL     1      33.872 -13.302 -23.522  0.00  0.00    +0.205 C 
BRANCH  19  20
ATOM     20  O   UNL     1      33.010 -12.483 -22.734  0.00  0.00    -0.475 OA
BRANCH  20  26
ATOM     21  O   UNL     1      30.963  -5.919 -20.954  0.00  0.00    -0.275 OA
ATOM     22  N   UNL     1      31.603  -8.034 -21.579  0.00  0.00    -0.284 N 
ATOM     23  C   UNL     1      33.520  -8.365 -23.037  0.00  0.00    -0.008 C 
ATOM     24  C   UNL     1      33.619  -6.878 -23.216  0.00  0.00    +0.037 C 
ATOM     25  C   UNL     1      32.487  -8.895 -22.253  0.00  0.00    +0.049 C 
ATOM     26  C   UNL     1      33.175 -11.135 -22.832  0.00  0.00    +0.140 C 
ATOM     27  C   UNL     1      33.120  -6.148 -21.978  0.00  0.00    +0.090 C 
ATOM     28  C   UNL     1      32.307 -10.277 -22.158  0.00  0.00    +0.051 C 
ATOM     29  C   UNL     1      34.377  -9.235 -23.720  0.00  0.00    +0.000 C 
ATOM     30  C   UNL     1      34.210 -10.616 -23.609  0.00  0.00    +0.037 C 
ATOM     31  C   UNL     1      31.782  -6.668 -21.486  0.00  0.00    +0.226 C 
ATOM     32  H   UNL     1      30.810  -8.429 -21.148  0.00  0.00    +0.155 HD
ENDBRANCH  20  26
ENDBRANCH  19  20
ENDBRANCH  18  19
ENDBRANCH  17  18
ENDBRANCH   1  17
TORSDOF 7
ENDMDL
MODEL 7
REMARK VINA RESULT:     -11.2      4.195     10.954
REMARK  Name = 60795
REMARK  7 active torsions:
REMARK  status: ('A' for Active; 'I' for Inactive)
REMARK    1  A    between atoms: C_1  and  N_2
REMARK    2  A    between atoms: C_1  and  C_17
REMARK    3  A    between atoms: N_3  and  C_11
REMARK    4  A    between atoms: C_17  and  C_18
REMARK    5  A    between atoms: C_18  and  C_19
REMARK    6  A    between atoms: C_19  and  O_20
REMARK    7  A    between atoms: O_20  and  C_26
REMARK                            x       y       z     vdW  Elec       q    Type
REMARK                         _______ _______ _______ _____ _____    ______ ____
ROOT
ATOM      1  C   UNL     1      35.103 -15.968 -23.923  0.00  0.00    -0.077 C 
ENDROOT
BRANCH   1   2
ATOM      2  N   UNL     1      35.509 -17.117 -23.116  0.00  0.00    +0.389 N 
ATOM      3  N   UNL     1      35.234 -19.099 -21.076  0.00  0.00    -0.311 N 
ATOM      4  C   UNL     1      35.605 -16.744 -21.699  0.00  0.00    -0.055 C 
ATOM      5  C   UNL     1      34.556 -18.222 -23.277  0.00  0.00    -0.055 C 
ATOM      6  C   UNL     1      36.084 -17.923 -20.851  0.00  0.00    +0.068 C 
ATOM      7  C   UNL     1      34.999 -19.452 -22.480  0.00  0.00    +0.068 C 
ATOM      8  H   UNL     1      36.426 -17.424 -23.438  0.00  0.00    -0.080 HD
BRANCH   3  11
ATOM      9 CL   UNL     1      32.515 -20.049 -20.198  0.00  0.00    -0.080 Cl
ATOM     10 CL   UNL     1      32.610 -22.338 -17.951  0.00  0.00    -0.081 Cl
ATOM     11  C   UNL     1      35.220 -20.099 -20.098  0.00  0.00    +0.059 C 
ATOM     12  C   UNL     1      34.025 -20.646 -19.583  0.00  0.00    +0.081 C 
ATOM     13  C   UNL     1      36.441 -20.593 -19.593  0.00  0.00    +0.015 C 
ATOM     14  C   UNL     1      34.051 -21.642 -18.606  0.00  0.00    +0.069 C 
ATOM     15  C   UNL     1      36.467 -21.590 -18.617  0.00  0.00    +0.002 C 
ATOM     16  C   UNL     1      35.272 -22.114 -18.124  0.00  0.00    +0.012 C 
ENDBRANCH   3  11
ENDBRANCH   1   2
BRANCH   1  17
ATOM     17  C   UNL     1      33.854 -16.304 -24.736  0.00  0.00    -0.019 C 
BRANCH  17  18
ATOM     18  C   UNL     1      33.087 -15.039 -25.119  0.00  0.00    +0.045 C 
BRANCH  18  19
ATOM     19  C   UNL     1      33.809 -13.781 -24.656  0.00  0.00    +0.205 C 
BRANCH  19  20
ATOM     20  O   UNL     1      33.091 -13.179 -23.581  0.00  0.00    -0.475 OA
BRANCH  20  26
ATOM     21  O   UNL     1      31.577  -7.260 -19.958  0.00  0.00    -0.275 OA
ATOM     22  N   UNL     1      32.038  -9.155 -21.171  0.00  0.00    -0.284 N 
ATOM     23  C   UNL     1      33.709  -9.115 -22.938  0.00  0.00    -0.008 C 
ATOM     24  C   UNL     1      33.838  -7.630 -22.759  0.00  0.00    +0.037 C 
ATOM     25  C   UNL     1      32.781  -9.822 -22.161  0.00  0.00    +0.049 C 
ATOM     26  C   UNL     1      33.292 -11.849 -23.369  0.00  0.00    +0.140 C 
ATOM     27  C   UNL     1      33.552  -7.231 -21.319  0.00  0.00    +0.090 C 
ATOM     28  C   UNL     1      32.564 -11.185 -22.382  0.00  0.00    +0.051 C 
ATOM     29  C   UNL     1      34.424  -9.789 -23.934  0.00  0.00    +0.000 C 
ATOM     30  C   UNL     1      34.221 -11.155 -24.141  0.00  0.00    +0.037 C 
ATOM     31  C   UNL     1      32.281  -7.855 -20.774  0.00  0.00    +0.226 C 
ATOM     32  H   UNL     1      31.301  -9.643 -20.737  0.00  0.00    +0.155 HD
ENDBRANCH  20  26
ENDBRANCH  19  20
ENDBRANCH  18  19
ENDBRANCH  17  18
ENDBRANCH   1  17
TORSDOF 7
ENDMDL
MODEL 8
REMARK VINA RESULT:     -11.1      3.207      5.612
REMARK  Name = 60795
REMARK  7 active torsions:
REMARK  status: ('A' for Active; 'I' for Inactive)
REMARK    1  A    between atoms: C_1  and  N_2
REMARK    2  A    between atoms: C_1  and  C_17
REMARK    3  A    between atoms: N_3  and  C_11
REMARK    4  A    between atoms: C_17  and  C_18
REMARK    5  A    between atoms: C_18  and  C_19
REMARK    6  A    between atoms: C_19  and  O_20
REMARK    7  A    between atoms: O_20  and  C_26
REMARK                            x       y       z     vdW  Elec       q    Type
REMARK                         _______ _______ _______ _____ _____    ______ ____
ROOT
ATOM      1  C   UNL     1      36.041 -21.352 -19.006  0.00  0.00    -0.077 C 
ENDROOT
BRANCH   1   2
ATOM      2  N   UNL     1      35.889 -20.527 -20.204  0.00  0.00    +0.389 N 
ATOM      3  N   UNL     1      35.257 -18.164 -21.679  0.00  0.00    -0.311 N 
ATOM      4  C   UNL     1      34.493 -20.102 -20.363  0.00  0.00    -0.055 C 
ATOM      5  C   UNL     1      36.764 -19.350 -20.133  0.00  0.00    -0.055 C 
ATOM      6  C   UNL     1      34.310 -19.286 -21.644  0.00  0.00    +0.068 C 
ATOM      7  C   UNL     1      36.656 -18.506 -21.406  0.00  0.00    +0.068 C 
ATOM      8  H   UNL     1      36.157 -21.087 -21.012  0.00  0.00    -0.080 HD
BRANCH   3  11
ATOM      9 CL   UNL     1      34.997 -15.496 -20.310  0.00  0.00    -0.080 Cl
ATOM     10 CL   UNL     1      34.307 -13.079 -22.307  0.00  0.00    -0.081 Cl
ATOM     11  C   UNL     1      34.958 -17.077 -22.507  0.00  0.00    +0.059 C 
ATOM     12  C   UNL     1      34.803 -15.763 -22.014  0.00  0.00    +0.081 C 
ATOM     13  C   UNL     1      34.801 -17.281 -23.894  0.00  0.00    +0.015 C 
ATOM     14  C   UNL     1      34.504 -14.702 -22.871  0.00  0.00    +0.069 C 
ATOM     15  C   UNL     1      34.503 -16.221 -24.750  0.00  0.00    +0.002 C 
ATOM     16  C   UNL     1      34.354 -14.932 -24.239  0.00  0.00    +0.012 C 
ENDBRANCH   3  11
ENDBRANCH   1   2
BRANCH   1  17
ATOM     17  C   UNL     1      34.766 -22.152 -18.748  0.00  0.00    -0.019 C 
BRANCH  17  18
ATOM     18  C   UNL     1      34.477 -22.264 -17.251  0.00  0.00    +0.045 C 
BRANCH  18  19
ATOM     19  C   UNL     1      33.667 -23.512 -16.927  0.00  0.00    +0.205 C 
BRANCH  19  20
ATOM     20  O   UNL     1      33.288 -23.498 -15.552  0.00  0.00    -0.475 OA
BRANCH  20  26
ATOM     21  O   UNL     1      39.482 -26.697 -14.193  0.00  0.00    -0.275 OA
ATOM     22  N   UNL     1      37.453 -25.708 -14.615  0.00  0.00    -0.284 N 
ATOM     23  C   UNL     1      36.100 -24.836 -12.792  0.00  0.00    -0.008 C 
ATOM     24  C   UNL     1      37.076 -25.420 -11.812  0.00  0.00    +0.037 C 
ATOM     25  C   UNL     1      36.304 -25.035 -14.164  0.00  0.00    +0.049 C 
ATOM     26  C   UNL     1      34.209 -23.937 -14.650  0.00  0.00    +0.140 C 
ATOM     27  C   UNL     1      38.478 -25.460 -12.400  0.00  0.00    +0.090 C 
ATOM     28  C   UNL     1      35.356 -24.596 -15.093  0.00  0.00    +0.051 C 
ATOM     29  C   UNL     1      34.940 -24.185 -12.359  0.00  0.00    +0.000 C 
ATOM     30  C   UNL     1      34.002 -23.729 -13.288  0.00  0.00    +0.037 C 
ATOM     31  C   UNL     1      38.515 -26.046 -13.799  0.00  0.00    +0.226 C 
ATOM     32  H   UNL     1      37.504 -25.952 -15.568  0.00  0.00    +0.155 HD
ENDBRANCH  20  26
ENDBRANCH  19  20
ENDBRANCH  18  19
ENDBRANCH  17  18
ENDBRANCH   1  17
TORSDOF 7
ENDMDL
MODEL 9
REMARK VINA RESULT:     -11.1      4.541     10.182
REMARK  Name = 60795
REMARK  7 active torsions:
REMARK  status: ('A' for Active; 'I' for Inactive)
REMARK    1  A    between atoms: C_1  and  N_2
REMARK    2  A    between atoms: C_1  and  C_17
REMARK    3  A    between atoms: N_3  and  C_11
REMARK    4  A    between atoms: C_17  and  C_18
REMARK    5  A    between atoms: C_18  and  C_19
REMARK    6  A    between atoms: C_19  and  O_20
REMARK    7  A    between atoms: O_20  and  C_26
REMARK                            x       y       z     vdW  Elec       q    Type
REMARK                         _______ _______ _______ _____ _____    ______ ____
ROOT
ATOM      1  C   UNL     1      35.197 -15.492 -23.959  0.00  0.00    -0.077 C 
ENDROOT
BRANCH   1   2
ATOM      2  N   UNL     1      35.453 -16.640 -23.090  0.00  0.00    +0.389 N 
ATOM      3  N   UNL     1      34.777 -18.725 -21.256  0.00  0.00    -0.311 N 
ATOM      4  C   UNL     1      35.103 -16.322 -21.700  0.00  0.00    -0.055 C 
ATOM      5  C   UNL     1      34.688 -17.809 -23.542  0.00  0.00    -0.055 C 
ATOM      6  C   UNL     1      35.419 -17.496 -20.771  0.00  0.00    +0.068 C 
ATOM      7  C   UNL     1      34.989 -19.034 -22.674  0.00  0.00    +0.068 C 
ATOM      8  H   UNL     1      36.447 -16.860 -23.137  0.00  0.00    -0.080 HD
BRANCH   3  11
ATOM      9 CL   UNL     1      37.225 -19.716 -19.812  0.00  0.00    -0.080 Cl
ATOM     10 CL   UNL     1      36.631 -22.102 -17.749  0.00  0.00    -0.081 Cl
ATOM     11  C   UNL     1      34.571 -19.764 -20.343  0.00  0.00    +0.059 C 
ATOM     12  C   UNL     1      35.619 -20.337 -19.591  0.00  0.00    +0.081 C 
ATOM     13  C   UNL     1      33.270 -20.275 -20.154  0.00  0.00    +0.015 C 
ATOM     14  C   UNL     1      35.375 -21.375 -18.690  0.00  0.00    +0.069 C 
ATOM     15  C   UNL     1      33.027 -21.312 -19.253  0.00  0.00    +0.002 C 
ATOM     16  C   UNL     1      34.079 -21.862 -18.521  0.00  0.00    +0.012 C 
ENDBRANCH   3  11
ENDBRANCH   1   2
BRANCH   1  17
ATOM     17  C   UNL     1      34.157 -15.849 -25.018  0.00  0.00    -0.019 C 
BRANCH  17  18
ATOM     18  C   UNL     1      33.737 -14.617 -25.818  0.00  0.00    +0.045 C 
BRANCH  18  19
ATOM     19  C   UNL     1      32.843 -13.693 -25.001  0.00  0.00    +0.205 C 
BRANCH  19  20
ATOM     20  O   UNL     1      33.643 -12.741 -24.303  0.00  0.00    -0.475 OA
BRANCH  20  26
ATOM     21  O   UNL     1      31.789  -7.431 -19.964  0.00  0.00    -0.275 OA
ATOM     22  N   UNL     1      32.435  -9.154 -21.339  0.00  0.00    -0.284 N 
ATOM     23  C   UNL     1      32.253 -11.463 -20.595  0.00  0.00    -0.008 C 
ATOM     24  C   UNL     1      31.855 -10.974 -19.233  0.00  0.00    +0.037 C 
ATOM     25  C   UNL     1      32.569 -10.531 -21.593  0.00  0.00    +0.049 C 
ATOM     26  C   UNL     1      33.188 -12.321 -23.090  0.00  0.00    +0.140 C 
ATOM     27  C   UNL     1      31.122  -9.645 -19.326  0.00  0.00    +0.090 C 
ATOM     28  C   UNL     1      33.045 -10.957 -22.836  0.00  0.00    +0.051 C 
ATOM     29  C   UNL     1      32.414 -12.827 -20.857  0.00  0.00    +0.000 C 
ATOM     30  C   UNL     1      32.871 -13.254 -22.105  0.00  0.00    +0.037 C 
ATOM     31  C   UNL     1      31.835  -8.637 -20.207  0.00  0.00    +0.226 C 
ATOM     32  H   UNL     1      32.789  -8.523 -22.006  0.00  0.00    +0.155 HD
ENDBRANCH  20  26
ENDBRANCH  19  20
ENDBRANCH  18  19
ENDBRANCH  17  18
ENDBRANCH   1  17
TORSDOF 7
ENDMDL
