MODEL 1
REMARK VINA RESULT:     -11.5      0.000      0.000
REMARK  Name = 4565
REMARK  4 active torsions:
REMARK  status: ('A' for Active; 'I' for Inactive)
REMARK    1  A    between atoms: N_5  and  C_15
REMARK    2  A    between atoms: C_6  and  O_21
REMARK    3  A    between atoms: O_21  and  C_22
REMARK    4  A    between atoms: C_22  and  C_23
REMARK                            x       y       z     vdW  Elec       q    Type
REMARK                         _______ _______ _______ _____ _____    ______ ____
ROOT
ATOM      1  N   UNL     1      32.765 -23.380 -15.414  0.00  0.00    -0.293 NA
ATOM      2  N   UNL     1      29.367 -22.680 -16.634  0.00  0.00    -0.266 NA
ATOM      3  N   UNL     1      30.995 -24.034 -13.867  0.00  0.00    -0.316 NA
ATOM      4  N   UNL     1      28.754 -23.566 -14.682  0.00  0.00    -0.296 N 
ATOM      5  N   UNL     1      33.252 -24.364 -13.346  0.00  0.00    -0.238 N 
ATOM      6  C   UNL     1      31.867 -22.925 -16.315  0.00  0.00    +0.288 C 
ATOM      7  C   UNL     1      30.528 -23.020 -16.000  0.00  0.00    +0.215 C 
ATOM      8  C   UNL     1      30.121 -23.568 -14.791  0.00  0.00    +0.196 C 
ATOM      9  C   UNL     1      32.280 -23.900 -14.261  0.00  0.00    +0.207 C 
ATOM     10  C   UNL     1      28.332 -23.026 -15.806  0.00  0.00    +0.164 C 
ATOM     11  H   UNL     1      29.287 -22.263 -17.522  0.00  0.00    +0.126 HD
ATOM     12  H   UNL     1      28.209 -23.895 -13.931  0.00  0.00    +0.150 HD
ATOM     13  H   UNL     1      32.872 -24.736 -12.517  0.00  0.00    +0.166 HD
ENDROOT
BRANCH   5  15
ATOM     14 CL   UNL     1      37.716 -22.852 -11.318  0.00  0.00    -0.082 Cl
ATOM     15  C   UNL     1      34.658 -24.398 -13.387  0.00  0.00    +0.059 C 
ATOM     16  C   UNL     1      35.405 -23.690 -12.442  0.00  0.00    +0.027 C 
ATOM     17  C   UNL     1      35.313 -25.140 -14.373  0.00  0.00    +0.015 C 
ATOM     18  C   UNL     1      36.798 -23.725 -12.484  0.00  0.00    +0.059 C 
ATOM     19  C   UNL     1      36.706 -25.175 -14.414  0.00  0.00    +0.002 C 
ATOM     20  C   UNL     1      37.450 -24.467 -13.468  0.00  0.00    +0.011 C 
ENDBRANCH   5  15
BRANCH   6  21
ATOM     21  O   UNL     1      32.325 -22.393 -17.495  0.00  0.00    -0.453 OA
BRANCH  21  22
ATOM     22  C   UNL     1      33.651 -22.712 -17.874  0.00  0.00    +0.208 C 
BRANCH  22  23
ATOM     23  C   UNL     1      34.010 -21.898 -19.116  0.00  0.00    +0.044 C 
ATOM     24  C   UNL     1      32.967 -20.799 -19.363  0.00  0.00    +0.004 C 
ATOM     25  C   UNL     1      35.415 -21.297 -18.982  0.00  0.00    +0.004 C 
ATOM     26  C   UNL     1      33.332 -19.938 -20.570  0.00  0.00    +0.000 C 
ATOM     27  C   UNL     1      35.776 -20.434 -20.190  0.00  0.00    +0.000 C 
ATOM     28  C   UNL     1      34.732 -19.349 -20.438  0.00  0.00    +0.000 C 
ENDBRANCH  22  23
ENDBRANCH  21  22
ENDBRANCH   6  21
TORSDOF 4
ENDMDL
MODEL 2
REMARK VINA RESULT:     -11.0      8.371     11.597
REMARK  Name = 4565
REMARK  4 active torsions:
REMARK  status: ('A' for Active; 'I' for Inactive)
REMARK    1  A    between atoms: N_5  and  C_15
REMARK    2  A    between atoms: C_6  and  O_21
REMARK    3  A    between atoms: O_21  and  C_22
REMARK    4  A    between atoms: C_22  and  C_23
REMARK                            x       y       z     vdW  Elec       q    Type
REMARK                         _______ _______ _______ _____ _____    ______ ____
ROOT
ATOM      1  N   UNL     1      34.419 -15.395 -22.830  0.00  0.00    -0.293 NA
ATOM      2  N   UNL     1      33.431 -12.491 -24.859  0.00  0.00    -0.266 NA
ATOM      3  N   UNL     1      34.333 -15.836 -25.228  0.00  0.00    -0.316 NA
ATOM      4  N   UNL     1      33.678 -13.911 -26.559  0.00  0.00    -0.296 N 
ATOM      5  N   UNL     1      34.932 -17.507 -23.703  0.00  0.00    -0.238 N 
ATOM      6  C   UNL     1      34.045 -14.110 -23.010  0.00  0.00    +0.288 C 
ATOM      7  C   UNL     1      33.811 -13.678 -24.299  0.00  0.00    +0.215 C 
ATOM      8  C   UNL     1      33.958 -14.543 -25.375  0.00  0.00    +0.196 C 
ATOM      9  C   UNL     1      34.539 -16.169 -23.936  0.00  0.00    +0.207 C 
ATOM     10  C   UNL     1      33.365 -12.680 -26.214  0.00  0.00    +0.164 C 
ATOM     11  H   UNL     1      33.240 -11.654 -24.378  0.00  0.00    +0.126 HD
ATOM     12  H   UNL     1      33.705 -14.293 -27.466  0.00  0.00    +0.150 HD
ATOM     13  H   UNL     1      35.011 -18.046 -24.524  0.00  0.00    +0.166 HD
ENDROOT
BRANCH   5  15
ATOM     14 CL   UNL     1      33.318 -20.599 -19.940  0.00  0.00    -0.082 Cl
ATOM     15  C   UNL     1      35.233 -18.219 -22.528  0.00  0.00    +0.059 C 
ATOM     16  C   UNL     1      34.242 -18.969 -21.889  0.00  0.00    +0.027 C 
ATOM     17  C   UNL     1      36.523 -18.180 -21.995  0.00  0.00    +0.015 C 
ATOM     18  C   UNL     1      34.541 -19.676 -20.725  0.00  0.00    +0.059 C 
ATOM     19  C   UNL     1      36.822 -18.887 -20.830  0.00  0.00    +0.002 C 
ATOM     20  C   UNL     1      35.830 -19.636 -20.195  0.00  0.00    +0.011 C 
ENDBRANCH   5  15
BRANCH   6  21
ATOM     21  O   UNL     1      33.914 -13.298 -21.910  0.00  0.00    -0.453 OA
BRANCH  21  22
ATOM     22  C   UNL     1      32.776 -13.499 -21.093  0.00  0.00    +0.208 C 
BRANCH  22  23
ATOM     23  C   UNL     1      32.026 -12.174 -20.972  0.00  0.00    +0.044 C 
ATOM     24  C   UNL     1      32.071 -11.656 -19.527  0.00  0.00    +0.004 C 
ATOM     25  C   UNL     1      32.602 -11.134 -21.942  0.00  0.00    +0.004 C 
ATOM     26  C   UNL     1      31.373 -10.305 -19.391  0.00  0.00    +0.000 C 
ATOM     27  C   UNL     1      31.904  -9.783 -21.801  0.00  0.00    +0.000 C 
ATOM     28  C   UNL     1      31.943  -9.277 -20.362  0.00  0.00    +0.000 C 
ENDBRANCH  22  23
ENDBRANCH  21  22
ENDBRANCH   6  21
TORSDOF 4
ENDMDL
MODEL 3
REMARK VINA RESULT:     -10.8      3.255      7.020
REMARK  Name = 4565
REMARK  4 active torsions:
REMARK  status: ('A' for Active; 'I' for Inactive)
REMARK    1  A    between atoms: N_5  and  C_15
REMARK    2  A    between atoms: C_6  and  O_21
REMARK    3  A    between atoms: O_21  and  C_22
REMARK    4  A    between atoms: C_22  and  C_23
REMARK                            x       y       z     vdW  Elec       q    Type
REMARK                         _______ _______ _______ _____ _____    ______ ____
ROOT
ATOM      1  N   UNL     1      35.317 -23.525 -15.259  0.00  0.00    -0.293 NA
ATOM      2  N   UNL     1      36.135 -25.351 -12.173  0.00  0.00    -0.266 NA
ATOM      3  N   UNL     1      37.687 -23.492 -14.678  0.00  0.00    -0.316 NA
ATOM      4  N   UNL     1      38.216 -24.700 -12.637  0.00  0.00    -0.296 N 
ATOM      5  N   UNL     1      36.886 -22.410 -16.592  0.00  0.00    -0.238 N 
ATOM      6  C   UNL     1      35.017 -24.269 -14.172  0.00  0.00    +0.288 C 
ATOM      7  C   UNL     1      36.049 -24.629 -13.329  0.00  0.00    +0.215 C 
ATOM      8  C   UNL     1      37.353 -24.236 -13.597  0.00  0.00    +0.196 C 
ATOM      9  C   UNL     1      36.616 -23.187 -15.443  0.00  0.00    +0.207 C 
ATOM     10  C   UNL     1      37.452 -25.366 -11.797  0.00  0.00    +0.164 C 
ATOM     11  H   UNL     1      35.388 -25.781 -11.697  0.00  0.00    +0.126 HD
ATOM     12  H   UNL     1      39.190 -24.565 -12.587  0.00  0.00    +0.150 HD
ATOM     13  H   UNL     1      37.838 -22.179 -16.701  0.00  0.00    +0.166 HD
ENDROOT
BRANCH   5  15
ATOM     14 CL   UNL     1      36.393 -19.373 -20.699  0.00  0.00    -0.082 Cl
ATOM     15  C   UNL     1      36.062 -21.900 -17.612  0.00  0.00    +0.059 C 
ATOM     16  C   UNL     1      36.575 -20.994 -18.542  0.00  0.00    +0.027 C 
ATOM     17  C   UNL     1      34.725 -22.299 -17.698  0.00  0.00    +0.015 C 
ATOM     18  C   UNL     1      35.757 -20.490 -19.553  0.00  0.00    +0.059 C 
ATOM     19  C   UNL     1      33.908 -21.795 -18.709  0.00  0.00    +0.002 C 
ATOM     20  C   UNL     1      34.424 -20.890 -19.637  0.00  0.00    +0.011 C 
ENDBRANCH   5  15
BRANCH   6  21
ATOM     21  O   UNL     1      33.710 -24.629 -13.956  0.00  0.00    -0.453 OA
BRANCH  21  22
ATOM     22  C   UNL     1      32.959 -23.822 -13.067  0.00  0.00    +0.208 C 
BRANCH  22  23
ATOM     23  C   UNL     1      31.531 -23.715 -13.599  0.00  0.00    +0.044 C 
ATOM     24  C   UNL     1      31.525 -23.133 -15.020  0.00  0.00    +0.004 C 
ATOM     25  C   UNL     1      30.837 -25.083 -13.567  0.00  0.00    +0.004 C 
ATOM     26  C   UNL     1      30.111 -23.065 -15.594  0.00  0.00    +0.000 C 
ATOM     27  C   UNL     1      29.425 -25.012 -14.145  0.00  0.00    +0.000 C 
ATOM     28  C   UNL     1      29.421 -24.424 -15.553  0.00  0.00    +0.000 C 
ENDBRANCH  22  23
ENDBRANCH  21  22
ENDBRANCH   6  21
TORSDOF 4
ENDMDL
MODEL 4
REMARK VINA RESULT:     -10.7      2.761      6.447
REMARK  Name = 4565
REMARK  4 active torsions:
REMARK  status: ('A' for Active; 'I' for Inactive)
REMARK    1  A    between atoms: N_5  and  C_15
REMARK    2  A    between atoms: C_6  and  O_21
REMARK    3  A    between atoms: O_21  and  C_22
REMARK    4  A    between atoms: C_22  and  C_23
REMARK                            x       y       z     vdW  Elec       q    Type
REMARK                         _______ _______ _______ _____ _____    ______ ____
ROOT
ATOM      1  N   UNL     1      33.389 -22.915 -16.149  0.00  0.00    -0.293 NA
ATOM      2  N   UNL     1      31.547 -24.561 -13.426  0.00  0.00    -0.266 NA
ATOM      3  N   UNL     1      30.974 -22.999 -16.487  0.00  0.00    -0.316 NA
ATOM      4  N   UNL     1      29.766 -24.090 -14.681  0.00  0.00    -0.296 N 
ATOM      5  N   UNL     1      32.390 -22.007 -18.064  0.00  0.00    -0.238 N 
ATOM      6  C   UNL     1      33.288 -23.555 -14.964  0.00  0.00    +0.288 C 
ATOM      7  C   UNL     1      32.031 -23.922 -14.531  0.00  0.00    +0.215 C 
ATOM      8  C   UNL     1      30.907 -23.639 -15.295  0.00  0.00    +0.196 C 
ATOM      9  C   UNL     1      32.241 -22.679 -16.829  0.00  0.00    +0.207 C 
ATOM     10  C   UNL     1      30.185 -24.638 -13.561  0.00  0.00    +0.164 C 
ATOM     11  H   UNL     1      32.077 -24.904 -12.670  0.00  0.00    +0.126 HD
ATOM     12  H   UNL     1      28.840 -24.018 -15.007  0.00  0.00    +0.150 HD
ATOM     13  H   UNL     1      31.540 -21.849 -18.535  0.00  0.00    +0.166 HD
ENDROOT
BRANCH   5  15
ATOM     14 CL   UNL     1      34.282 -18.979 -21.747  0.00  0.00    -0.082 Cl
ATOM     15  C   UNL     1      33.516 -21.521 -18.751  0.00  0.00    +0.059 C 
ATOM     16  C   UNL     1      33.360 -20.598 -19.789  0.00  0.00    +0.027 C 
ATOM     17  C   UNL     1      34.796 -21.957 -18.399  0.00  0.00    +0.015 C 
ATOM     18  C   UNL     1      34.478 -20.116 -20.470  0.00  0.00    +0.059 C 
ATOM     19  C   UNL     1      35.913 -21.474 -19.080  0.00  0.00    +0.002 C 
ATOM     20  C   UNL     1      35.754 -20.553 -20.116  0.00  0.00    +0.011 C 
ENDBRANCH   5  15
BRANCH   6  21
ATOM     21  O   UNL     1      34.433 -23.809 -14.250  0.00  0.00    -0.453 OA
BRANCH  21  22
ATOM     22  C   UNL     1      35.649 -23.327 -14.790  0.00  0.00    +0.208 C 
BRANCH  22  23
ATOM     23  C   UNL     1      36.807 -24.005 -14.060  0.00  0.00    +0.044 C 
ATOM     24  C   UNL     1      36.789 -23.649 -12.567  0.00  0.00    +0.004 C 
ATOM     25  C   UNL     1      36.756 -25.526 -14.259  0.00  0.00    +0.004 C 
ATOM     26  C   UNL     1      37.907 -24.358 -11.805  0.00  0.00    +0.000 C 
ATOM     27  C   UNL     1      37.873 -26.232 -13.493  0.00  0.00    +0.000 C 
ATOM     28  C   UNL     1      37.858 -25.868 -12.012  0.00  0.00    +0.000 C 
ENDBRANCH  22  23
ENDBRANCH  21  22
ENDBRANCH   6  21
TORSDOF 4
ENDMDL
MODEL 5
REMARK VINA RESULT:     -10.5      2.543      5.607
REMARK  Name = 4565
REMARK  4 active torsions:
REMARK  status: ('A' for Active; 'I' for Inactive)
REMARK    1  A    between atoms: N_5  and  C_15
REMARK    2  A    between atoms: C_6  and  O_21
REMARK    3  A    between atoms: O_21  and  C_22
REMARK    4  A    between atoms: C_22  and  C_23
REMARK                            x       y       z     vdW  Elec       q    Type
REMARK                         _______ _______ _______ _____ _____    ______ ____
ROOT
ATOM      1  N   UNL     1      35.159 -23.067 -16.441  0.00  0.00    -0.293 NA
ATOM      2  N   UNL     1      34.168 -21.232 -19.470  0.00  0.00    -0.266 NA
ATOM      3  N   UNL     1      36.914 -21.644 -17.364  0.00  0.00    -0.316 NA
ATOM      4  N   UNL     1      36.248 -20.437 -19.366  0.00  0.00    -0.296 N 
ATOM      5  N   UNL     1      37.272 -22.925 -15.439  0.00  0.00    -0.238 N 
ATOM      6  C   UNL     1      34.296 -22.706 -17.415  0.00  0.00    +0.288 C 
ATOM      7  C   UNL     1      34.733 -21.813 -18.370  0.00  0.00    +0.215 C 
ATOM      8  C   UNL     1      36.024 -21.303 -18.327  0.00  0.00    +0.196 C 
ATOM      9  C   UNL     1      36.399 -22.521 -16.475  0.00  0.00    +0.207 C 
ATOM     10  C   UNL     1      35.114 -20.416 -20.033  0.00  0.00    +0.164 C 
ATOM     11  H   UNL     1      33.251 -21.373 -19.798  0.00  0.00    +0.126 HD
ATOM     12  H   UNL     1      37.074 -19.940 -19.568  0.00  0.00    +0.150 HD
ATOM     13  H   UNL     1      38.165 -22.512 -15.489  0.00  0.00    +0.166 HD
ENDROOT
BRANCH   5  15
ATOM     14 CL   UNL     1      36.304 -23.544 -10.438  0.00  0.00    -0.082 Cl
ATOM     15  C   UNL     1      37.114 -23.801 -14.351  0.00  0.00    +0.059 C 
ATOM     16  C   UNL     1      36.822 -23.298 -13.080  0.00  0.00    +0.027 C 
ATOM     17  C   UNL     1      37.248 -25.180 -14.534  0.00  0.00    +0.015 C 
ATOM     18  C   UNL     1      36.665 -24.168 -12.002  0.00  0.00    +0.059 C 
ATOM     19  C   UNL     1      37.091 -26.049 -13.456  0.00  0.00    +0.002 C 
ATOM     20  C   UNL     1      36.799 -25.543 -12.189  0.00  0.00    +0.011 C 
ENDBRANCH   5  15
BRANCH   6  21
ATOM     21  O   UNL     1      33.031 -23.242 -17.410  0.00  0.00    -0.453 OA
BRANCH  21  22
ATOM     22  C   UNL     1      32.102 -22.689 -16.496  0.00  0.00    +0.208 C 
BRANCH  22  23
ATOM     23  C   UNL     1      31.711 -23.769 -15.489  0.00  0.00    +0.044 C 
ATOM     24  C   UNL     1      32.544 -23.642 -14.206  0.00  0.00    +0.004 C 
ATOM     25  C   UNL     1      30.211 -23.699 -15.175  0.00  0.00    +0.004 C 
ATOM     26  C   UNL     1      32.134 -24.679 -13.163  0.00  0.00    +0.000 C 
ATOM     27  C   UNL     1      29.805 -24.736 -14.130  0.00  0.00    +0.000 C 
ATOM     28  C   UNL     1      30.642 -24.612 -12.860  0.00  0.00    +0.000 C 
ENDBRANCH  22  23
ENDBRANCH  21  22
ENDBRANCH   6  21
TORSDOF 4
ENDMDL
MODEL 6
REMARK VINA RESULT:     -10.4      2.664      5.351
REMARK  Name = 4565
REMARK  4 active torsions:
REMARK  status: ('A' for Active; 'I' for Inactive)
REMARK    1  A    between atoms: N_5  and  C_15
REMARK    2  A    between atoms: C_6  and  O_21
REMARK    3  A    between atoms: O_21  and  C_22
REMARK    4  A    between atoms: C_22  and  C_23
REMARK                            x       y       z     vdW  Elec       q    Type
REMARK                         _______ _______ _______ _____ _____    ______ ____
ROOT
ATOM      1  N   UNL     1      33.972 -23.747 -15.139  0.00  0.00    -0.293 NA
ATOM      2  N   UNL     1      37.635 -23.426 -15.176  0.00  0.00    -0.266 NA
ATOM      3  N   UNL     1      35.071 -24.624 -13.144  0.00  0.00    -0.316 NA
ATOM      4  N   UNL     1      37.492 -24.408 -13.180  0.00  0.00    -0.296 N 
ATOM      5  N   UNL     1      32.745 -24.699 -13.386  0.00  0.00    -0.238 N 
ATOM      6  C   UNL     1      35.154 -23.386 -15.682  0.00  0.00    +0.288 C 
ATOM      7  C   UNL     1      36.304 -23.640 -14.963  0.00  0.00    +0.215 C 
ATOM      8  C   UNL     1      36.240 -24.250 -13.717  0.00  0.00    +0.196 C 
ATOM      9  C   UNL     1      34.003 -24.336 -13.919  0.00  0.00    +0.207 C 
ATOM     10  C   UNL     1      38.307 -23.902 -14.080  0.00  0.00    +0.164 C 
ATOM     11  H   UNL     1      38.040 -23.007 -15.970  0.00  0.00    +0.126 HD
ATOM     12  H   UNL     1      37.728 -24.809 -12.312  0.00  0.00    +0.150 HD
ATOM     13  H   UNL     1      32.797 -25.125 -12.499  0.00  0.00    +0.166 HD
ENDROOT
BRANCH   5  15
ATOM     14 CL   UNL     1      29.451 -22.240 -16.456  0.00  0.00    -0.082 Cl
ATOM     15  C   UNL     1      31.432 -24.572 -13.875  0.00  0.00    +0.059 C 
ATOM     16  C   UNL     1      31.126 -23.584 -14.814  0.00  0.00    +0.027 C 
ATOM     17  C   UNL     1      30.429 -25.433 -13.423  0.00  0.00    +0.015 C 
ATOM     18  C   UNL     1      29.825 -23.458 -15.298  0.00  0.00    +0.059 C 
ATOM     19  C   UNL     1      29.127 -25.307 -13.909  0.00  0.00    +0.002 C 
ATOM     20  C   UNL     1      28.825 -24.319 -14.847  0.00  0.00    +0.011 C 
ENDBRANCH   5  15
BRANCH   6  21
ATOM     21  O   UNL     1      35.159 -22.786 -16.918  0.00  0.00    -0.453 OA
BRANCH  21  22
ATOM     22  C   UNL     1      33.929 -22.744 -17.617  0.00  0.00    +0.208 C 
BRANCH  22  23
ATOM     23  C   UNL     1      34.140 -21.977 -18.922  0.00  0.00    +0.044 C 
ATOM     24  C   UNL     1      32.999 -20.976 -19.152  0.00  0.00    +0.004 C 
ATOM     25  C   UNL     1      35.499 -21.265 -18.919  0.00  0.00    +0.004 C 
ATOM     26  C   UNL     1      33.214 -20.159 -20.424  0.00  0.00    +0.000 C 
ATOM     27  C   UNL     1      35.709 -20.447 -20.191  0.00  0.00    +0.000 C 
ATOM     28  C   UNL     1      34.569 -19.460 -20.421  0.00  0.00    +0.000 C 
ENDBRANCH  22  23
ENDBRANCH  21  22
ENDBRANCH   6  21
TORSDOF 4
ENDMDL
MODEL 7
REMARK VINA RESULT:     -10.3      3.268      6.047
REMARK  Name = 4565
REMARK  4 active torsions:
REMARK  status: ('A' for Active; 'I' for Inactive)
REMARK    1  A    between atoms: N_5  and  C_15
REMARK    2  A    between atoms: C_6  and  O_21
REMARK    3  A    between atoms: O_21  and  C_22
REMARK    4  A    between atoms: C_22  and  C_23
REMARK                            x       y       z     vdW  Elec       q    Type
REMARK                         _______ _______ _______ _____ _____    ______ ____
ROOT
ATOM      1  N   UNL     1      36.329 -23.815 -14.551  0.00  0.00    -0.293 NA
ATOM      2  N   UNL     1      39.894 -24.717 -14.629  0.00  0.00    -0.266 NA
ATOM      3  N   UNL     1      36.896 -25.762 -13.194  0.00  0.00    -0.316 NA
ATOM      4  N   UNL     1      39.254 -26.350 -13.253  0.00  0.00    -0.296 N 
ATOM      5  N   UNL     1      34.699 -24.968 -13.327  0.00  0.00    -0.238 N 
ATOM      6  C   UNL     1      37.613 -23.662 -14.942  0.00  0.00    +0.288 C 
ATOM      7  C   UNL     1      38.548 -24.556 -14.463  0.00  0.00    +0.215 C 
ATOM      8  C   UNL     1      38.174 -25.581 -13.605  0.00  0.00    +0.196 C 
ATOM      9  C   UNL     1      36.054 -24.842 -13.712  0.00  0.00    +0.207 C 
ATOM     10  C   UNL     1      40.271 -25.803 -13.884  0.00  0.00    +0.164 C 
ATOM     11  H   UNL     1      40.485 -24.156 -15.181  0.00  0.00    +0.126 HD
ATOM     12  H   UNL     1      39.266 -27.135 -12.659  0.00  0.00    +0.150 HD
ATOM     13  H   UNL     1      34.528 -25.722 -12.717  0.00  0.00    +0.166 HD
ENDROOT
BRANCH   5  15
ATOM     14 CL   UNL     1      31.853 -22.651 -16.913  0.00  0.00    -0.082 Cl
ATOM     15  C   UNL     1      33.548 -24.226 -13.646  0.00  0.00    +0.059 C 
ATOM     16  C   UNL     1      33.299 -23.849 -14.968  0.00  0.00    +0.027 C 
ATOM     17  C   UNL     1      32.647 -23.862 -12.641  0.00  0.00    +0.015 C 
ATOM     18  C   UNL     1      32.156 -23.114 -15.283  0.00  0.00    +0.059 C 
ATOM     19  C   UNL     1      31.504 -23.128 -12.957  0.00  0.00    +0.002 C 
ATOM     20  C   UNL     1      31.259 -22.753 -14.278  0.00  0.00    +0.011 C 
ENDBRANCH   5  15
BRANCH   6  21
ATOM     21  O   UNL     1      37.927 -22.630 -15.793  0.00  0.00    -0.453 OA
BRANCH  21  22
ATOM     22  C   UNL     1      36.915 -21.673 -16.046  0.00  0.00    +0.208 C 
BRANCH  22  23
ATOM     23  C   UNL     1      36.544 -21.741 -17.526  0.00  0.00    +0.044 C 
ATOM     24  C   UNL     1      35.048 -22.042 -17.696  0.00  0.00    +0.004 C 
ATOM     25  C   UNL     1      36.922 -20.436 -18.239  0.00  0.00    +0.004 C 
ATOM     26  C   UNL     1      34.641 -22.062 -19.167  0.00  0.00    +0.000 C 
ATOM     27  C   UNL     1      36.511 -20.459 -19.710  0.00  0.00    +0.000 C 
ATOM     28  C   UNL     1      35.026 -20.767 -19.875  0.00  0.00    +0.000 C 
ENDBRANCH  22  23
ENDBRANCH  21  22
ENDBRANCH   6  21
TORSDOF 4
ENDMDL
MODEL 8
REMARK VINA RESULT:     -10.3      2.612      5.418
REMARK  Name = 4565
REMARK  4 active torsions:
REMARK  status: ('A' for Active; 'I' for Inactive)
REMARK    1  A    between atoms: N_5  and  C_15
REMARK    2  A    between atoms: C_6  and  O_21
REMARK    3  A    between atoms: O_21  and  C_22
REMARK    4  A    between atoms: C_22  and  C_23
REMARK                            x       y       z     vdW  Elec       q    Type
REMARK                         _______ _______ _______ _____ _____    ______ ____
ROOT
ATOM      1  N   UNL     1      35.132 -23.096 -16.202  0.00  0.00    -0.293 NA
ATOM      2  N   UNL     1      32.953 -21.829 -18.879  0.00  0.00    -0.266 NA
ATOM      3  N   UNL     1      36.262 -21.646 -17.806  0.00  0.00    -0.316 NA
ATOM      4  N   UNL     1      34.814 -20.814 -19.571  0.00  0.00    -0.296 N 
ATOM      5  N   UNL     1      37.410 -22.592 -16.000  0.00  0.00    -0.238 N 
ATOM      6  C   UNL     1      33.956 -22.971 -16.854  0.00  0.00    +0.288 C 
ATOM      7  C   UNL     1      33.923 -22.183 -17.986  0.00  0.00    +0.215 C 
ATOM      8  C   UNL     1      35.068 -21.541 -18.436  0.00  0.00    +0.196 C 
ATOM      9  C   UNL     1      36.199 -22.434 -16.711  0.00  0.00    +0.207 C 
ATOM     10  C   UNL     1      33.534 -21.008 -19.810  0.00  0.00    +0.164 C 
ATOM     11  H   UNL     1      32.010 -22.110 -18.860  0.00  0.00    +0.126 HD
ATOM     12  H   UNL     1      35.447 -20.269 -20.091  0.00  0.00    +0.150 HD
ATOM     13  H   UNL     1      38.168 -22.100 -16.392  0.00  0.00    +0.166 HD
ENDROOT
BRANCH   5  15
ATOM     14 CL   UNL     1      40.398 -26.111 -13.761  0.00  0.00    -0.082 Cl
ATOM     15  C   UNL     1      37.745 -23.315 -14.840  0.00  0.00    +0.059 C 
ATOM     16  C   UNL     1      38.785 -24.247 -14.870  0.00  0.00    +0.027 C 
ATOM     17  C   UNL     1      37.039 -23.103 -13.653  0.00  0.00    +0.015 C 
ATOM     18  C   UNL     1      39.116 -24.963 -13.720  0.00  0.00    +0.059 C 
ATOM     19  C   UNL     1      37.371 -23.819 -12.503  0.00  0.00    +0.002 C 
ATOM     20  C   UNL     1      38.410 -24.749 -12.537  0.00  0.00    +0.011 C 
ENDBRANCH   5  15
BRANCH   6  21
ATOM     21  O   UNL     1      32.854 -23.629 -16.364  0.00  0.00    -0.453 OA
BRANCH  21  22
ATOM     22  C   UNL     1      32.546 -23.439 -14.996  0.00  0.00    +0.208 C 
BRANCH  22  23
ATOM     23  C   UNL     1      31.027 -23.397 -14.842  0.00  0.00    +0.044 C 
ATOM     24  C   UNL     1      30.378 -22.723 -16.059  0.00  0.00    +0.004 C 
ATOM     25  C   UNL     1      30.464 -24.809 -14.634  0.00  0.00    +0.004 C 
ATOM     26  C   UNL     1      28.854 -22.717 -15.953  0.00  0.00    +0.000 C 
ATOM     27  C   UNL     1      28.941 -24.799 -14.531  0.00  0.00    +0.000 C 
ATOM     28  C   UNL     1      28.299 -24.121 -15.738  0.00  0.00    +0.000 C 
ENDBRANCH  22  23
ENDBRANCH  21  22
ENDBRANCH   6  21
TORSDOF 4
ENDMDL
MODEL 9
REMARK VINA RESULT:     -10.3      3.222      7.049
REMARK  Name = 4565
REMARK  4 active torsions:
REMARK  status: ('A' for Active; 'I' for Inactive)
REMARK    1  A    between atoms: N_5  and  C_15
REMARK    2  A    between atoms: C_6  and  O_21
REMARK    3  A    between atoms: O_21  and  C_22
REMARK    4  A    between atoms: C_22  and  C_23
REMARK                            x       y       z     vdW  Elec       q    Type
REMARK                         _______ _______ _______ _____ _____    ______ ____
ROOT
ATOM      1  N   UNL     1      35.620 -23.525 -15.270  0.00  0.00    -0.293 NA
ATOM      2  N   UNL     1      36.457 -25.369 -12.201  0.00  0.00    -0.266 NA
ATOM      3  N   UNL     1      37.982 -23.431 -14.662  0.00  0.00    -0.316 NA
ATOM      4  N   UNL     1      38.523 -24.652 -12.631  0.00  0.00    -0.296 N 
ATOM      5  N   UNL     1      37.171 -22.345 -16.570  0.00  0.00    -0.238 N 
ATOM      6  C   UNL     1      35.331 -24.292 -14.197  0.00  0.00    +0.288 C 
ATOM      7  C   UNL     1      36.363 -24.634 -13.348  0.00  0.00    +0.215 C 
ATOM      8  C   UNL     1      37.658 -24.200 -13.595  0.00  0.00    +0.196 C 
ATOM      9  C   UNL     1      36.911 -23.147 -15.435  0.00  0.00    +0.207 C 
ATOM     10  C   UNL     1      37.770 -25.351 -11.809  0.00  0.00    +0.164 C 
ATOM     11  H   UNL     1      35.718 -25.828 -11.739  0.00  0.00    +0.126 HD
ATOM     12  H   UNL     1      39.492 -24.490 -12.569  0.00  0.00    +0.150 HD
ATOM     13  H   UNL     1      38.117 -22.086 -16.664  0.00  0.00    +0.166 HD
ENDROOT
BRANCH   5  15
ATOM     14 CL   UNL     1      32.440 -21.801 -18.479  0.00  0.00    -0.082 Cl
ATOM     15  C   UNL     1      36.343 -21.846 -17.591  0.00  0.00    +0.059 C 
ATOM     16  C   UNL     1      34.962 -22.048 -17.537  0.00  0.00    +0.027 C 
ATOM     17  C   UNL     1      36.899 -21.145 -18.665  0.00  0.00    +0.015 C 
ATOM     18  C   UNL     1      34.142 -21.551 -18.549  0.00  0.00    +0.059 C 
ATOM     19  C   UNL     1      36.078 -20.649 -19.677  0.00  0.00    +0.002 C 
ATOM     20  C   UNL     1      34.699 -20.852 -19.620  0.00  0.00    +0.011 C 
ENDBRANCH   5  15
BRANCH   6  21
ATOM     21  O   UNL     1      34.032 -24.693 -14.001  0.00  0.00    -0.453 OA
BRANCH  21  22
ATOM     22  C   UNL     1      33.065 -23.675 -13.816  0.00  0.00    +0.208 C 
BRANCH  22  23
ATOM     23  C   UNL     1      31.799 -24.067 -14.574  0.00  0.00    +0.044 C 
ATOM     24  C   UNL     1      30.925 -25.000 -13.723  0.00  0.00    +0.004 C 
ATOM     25  C   UNL     1      31.013 -22.820 -14.998  0.00  0.00    +0.004 C 
ATOM     26  C   UNL     1      29.626 -25.364 -14.439  0.00  0.00    +0.000 C 
ATOM     27  C   UNL     1      29.713 -23.188 -15.711  0.00  0.00    +0.000 C 
ATOM     28  C   UNL     1      28.852 -24.121 -14.866  0.00  0.00    +0.000 C 
ENDBRANCH  22  23
ENDBRANCH  21  22
ENDBRANCH   6  21
TORSDOF 4
ENDMDL
