MODEL 1
REMARK VINA RESULT:     -13.3      0.000      0.000
REMARK  Name = 4887
REMARK  9 active torsions:
REMARK  status: ('A' for Active; 'I' for Inactive)
REMARK    1  A    between atoms: N_2  and  C_8
REMARK    2  A    between atoms: C_3  and  C_23
REMARK    3  A    between atoms: C_14  and  C_20
REMARK    4  A    between atoms: C_22  and  O_28
REMARK    5  A    between atoms: O_28  and  C_29
REMARK    6  A    between atoms: C_29  and  C_30
REMARK    7  A    between atoms: C_30  and  C_31
REMARK    8  A    between atoms: C_31  and  C_32
REMARK    9  A    between atoms: C_32  and  C_33
REMARK                            x       y       z     vdW  Elec       q    Type
REMARK                         _______ _______ _______ _____ _____    ______ ____
ROOT
ATOM      1  O   UNL     1      33.770 -23.983 -18.246  0.00  0.00    -0.270 OA
ATOM      2  N   UNL     1      33.721 -22.374 -16.532  0.00  0.00    -0.278 N 
ATOM      3  C   UNL     1      33.788 -22.820 -17.858  0.00  0.00    +0.250 C 
ATOM      4  H   UNL     1      33.747 -21.399 -16.402  0.00  0.00    +0.155 HD
ENDROOT
BRANCH   2   8
ATOM      5  O   UNL     1      31.268 -23.144 -15.576  0.00  0.00    -0.442 OA
ATOM      6  O   UNL     1      30.844 -25.394 -12.208  0.00  0.00    -0.286 OA
ATOM      7  C   UNL     1      32.378 -23.543 -14.876  0.00  0.00    +0.163 C 
ATOM      8  C   UNL     1      33.620 -23.146 -15.371  0.00  0.00    +0.086 C 
ATOM      9  C   UNL     1      32.305 -24.313 -13.717  0.00  0.00    +0.075 C 
ATOM     10  C   UNL     1      34.786 -23.521 -14.703  0.00  0.00    +0.018 C 
ATOM     11  C   UNL     1      33.470 -24.691 -13.045  0.00  0.00    +0.006 C 
ATOM     12  C   UNL     1      30.983 -24.717 -13.218  0.00  0.00    +0.202 C 
ATOM     13  C   UNL     1      34.711 -24.292 -13.542  0.00  0.00    +0.002 C 
ATOM     14  C   UNL     1      30.012 -23.520 -15.111  0.00  0.00    +0.213 C 
ATOM     15  C   UNL     1      29.822 -24.261 -14.007  0.00  0.00    +0.090 C 
BRANCH  14  20
ATOM     16  N   UNL     1      28.508 -23.567 -17.087  0.00  0.00    -0.107 NA
ATOM     17  N   UNL     1      28.257 -21.909 -15.565  0.00  0.00    -0.084 NA
ATOM     18  N   UNL     1      27.527 -22.701 -17.379  0.00  0.00    -0.140 N 
ATOM     19  N   UNL     1      27.343 -21.702 -16.505  0.00  0.00    -0.022 NA
ATOM     20  C   UNL     1      28.937 -23.030 -15.941  0.00  0.00    +0.109 C 
ATOM     21  H   UNL     1      26.975 -22.793 -18.188  0.00  0.00    +0.197 HD
ENDBRANCH  14  20
ENDBRANCH   2   8
BRANCH   3  23
ATOM     22  C   UNL     1      34.165 -19.742 -20.802  0.00  0.00    +0.139 C 
ATOM     23  C   UNL     1      33.919 -21.750 -18.882  0.00  0.00    +0.054 C 
ATOM     24  C   UNL     1      35.304 -20.378 -20.308  0.00  0.00    +0.037 C 
ATOM     25  C   UNL     1      32.903 -20.110 -20.336  0.00  0.00    +0.037 C 
ATOM     26  C   UNL     1      35.181 -21.382 -19.347  0.00  0.00    +0.008 C 
ATOM     27  C   UNL     1      32.779 -21.114 -19.376  0.00  0.00    +0.008 C 
BRANCH  22  28
ATOM     28  O   UNL     1      34.285 -18.764 -21.741  0.00  0.00    -0.475 OA
BRANCH  28  29
ATOM     29  C   UNL     1      35.227 -18.984 -22.790  0.00  0.00    +0.205 C 
BRANCH  29  30
ATOM     30  C   UNL     1      34.474 -19.116 -24.107  0.00  0.00    +0.048 C 
BRANCH  30  31
ATOM     31  C   UNL     1      33.710 -17.838 -24.449  0.00  0.00    +0.009 C 
BRANCH  31  32
ATOM     32  C   UNL     1      34.668 -16.671 -24.703  0.00  0.00    +0.026 C 
BRANCH  32  33
ATOM     33  C   UNL     1      34.314 -15.468 -23.866  0.00  0.00    -0.022 C 
ATOM     34  C   UNL     1      33.399 -14.530 -24.344  0.00  0.00    -0.004 C 
ATOM     35  C   UNL     1      34.901 -15.292 -22.614  0.00  0.00    -0.004 C 
ATOM     36  C   UNL     1      33.072 -13.417 -23.571  0.00  0.00    -0.000 C 
ATOM     37  C   UNL     1      34.574 -14.180 -21.839  0.00  0.00    -0.000 C 
ATOM     38  C   UNL     1      33.660 -13.242 -22.318  0.00  0.00    -0.000 C 
ENDBRANCH  32  33
ENDBRANCH  31  32
ENDBRANCH  30  31
ENDBRANCH  29  30
ENDBRANCH  28  29
ENDBRANCH  22  28
ENDBRANCH   3  23
TORSDOF 9
ENDMDL
MODEL 2
REMARK VINA RESULT:     -12.9      1.959      4.174
REMARK  Name = 4887
REMARK  9 active torsions:
REMARK  status: ('A' for Active; 'I' for Inactive)
REMARK    1  A    between atoms: N_2  and  C_8
REMARK    2  A    between atoms: C_3  and  C_23
REMARK    3  A    between atoms: C_14  and  C_20
REMARK    4  A    between atoms: C_22  and  O_28
REMARK    5  A    between atoms: O_28  and  C_29
REMARK    6  A    between atoms: C_29  and  C_30
REMARK    7  A    between atoms: C_30  and  C_31
REMARK    8  A    between atoms: C_31  and  C_32
REMARK    9  A    between atoms: C_32  and  C_33
REMARK                            x       y       z     vdW  Elec       q    Type
REMARK                         _______ _______ _______ _____ _____    ______ ____
ROOT
ATOM      1  O   UNL     1      33.531 -23.783 -18.367  0.00  0.00    -0.270 OA
ATOM      2  N   UNL     1      32.394 -22.069 -17.226  0.00  0.00    -0.278 N 
ATOM      3  C   UNL     1      33.273 -22.598 -18.179  0.00  0.00    +0.250 C 
ATOM      4  H   UNL     1      32.308 -21.089 -17.216  0.00  0.00    +0.155 HD
ENDROOT
BRANCH   2   8
ATOM      5  O   UNL     1      33.587 -23.317 -15.095  0.00  0.00    -0.442 OA
ATOM      6  O   UNL     1      31.460 -25.367 -12.293  0.00  0.00    -0.286 OA
ATOM      7  C   UNL     1      32.222 -23.402 -15.200  0.00  0.00    +0.163 C 
ATOM      8  C   UNL     1      31.626 -22.764 -16.288  0.00  0.00    +0.086 C 
ATOM      9  C   UNL     1      31.434 -24.087 -14.278  0.00  0.00    +0.075 C 
ATOM     10  C   UNL     1      30.242 -22.815 -16.449  0.00  0.00    +0.018 C 
ATOM     11  C   UNL     1      30.047 -24.140 -14.435  0.00  0.00    +0.006 C 
ATOM     12  C   UNL     1      32.088 -24.749 -13.141  0.00  0.00    +0.202 C 
ATOM     13  C   UNL     1      29.453 -23.502 -15.525  0.00  0.00    +0.002 C 
ATOM     14  C   UNL     1      34.217 -23.942 -14.024  0.00  0.00    +0.213 C 
ATOM     15  C   UNL     1      33.558 -24.629 -13.076  0.00  0.00    +0.090 C 
BRANCH  14  20
ATOM     16  N   UNL     1      36.494 -24.219 -14.975  0.00  0.00    -0.107 NA
ATOM     17  N   UNL     1      36.258 -23.101 -13.019  0.00  0.00    -0.084 NA
ATOM     18  N   UNL     1      37.647 -23.773 -14.458  0.00  0.00    -0.140 N 
ATOM     19  N   UNL     1      37.555 -23.106 -13.300  0.00  0.00    -0.022 NA
ATOM     20  C   UNL     1      35.651 -23.773 -14.040  0.00  0.00    +0.109 C 
ATOM     21  H   UNL     1      38.512 -23.927 -14.903  0.00  0.00    +0.197 HD
ENDBRANCH  14  20
ENDBRANCH   2   8
BRANCH   3  23
ATOM     22  C   UNL     1      35.287 -19.713 -20.609  0.00  0.00    +0.139 C 
ATOM     23  C   UNL     1      33.973 -21.595 -19.024  0.00  0.00    +0.054 C 
ATOM     24  C   UNL     1      36.025 -20.611 -19.836  0.00  0.00    +0.037 C 
ATOM     25  C   UNL     1      33.893 -19.756 -20.589  0.00  0.00    +0.037 C 
ATOM     26  C   UNL     1      35.367 -21.552 -19.043  0.00  0.00    +0.008 C 
ATOM     27  C   UNL     1      33.236 -20.697 -19.797  0.00  0.00    +0.008 C 
BRANCH  22  28
ATOM     28  O   UNL     1      35.929 -18.797 -21.384  0.00  0.00    -0.475 OA
BRANCH  28  29
ATOM     29  C   UNL     1      35.393 -17.474 -21.403  0.00  0.00    +0.205 C 
BRANCH  29  30
ATOM     30  C   UNL     1      35.284 -17.009 -22.848  0.00  0.00    +0.048 C 
BRANCH  30  31
ATOM     31  C   UNL     1      34.864 -15.543 -22.938  0.00  0.00    +0.009 C 
BRANCH  31  32
ATOM     32  C   UNL     1      34.877 -14.878 -21.559  0.00  0.00    +0.026 C 
BRANCH  32  33
ATOM     33  C   UNL     1      33.828 -13.800 -21.451  0.00  0.00    -0.022 C 
ATOM     34  C   UNL     1      33.741 -12.811 -22.431  0.00  0.00    -0.004 C 
ATOM     35  C   UNL     1      32.946 -13.790 -20.372  0.00  0.00    -0.004 C 
ATOM     36  C   UNL     1      32.772 -11.813 -22.332  0.00  0.00    -0.000 C 
ATOM     37  C   UNL     1      31.976 -12.793 -20.272  0.00  0.00    -0.000 C 
ATOM     38  C   UNL     1      31.889 -11.805 -21.252  0.00  0.00    -0.000 C 
ENDBRANCH  32  33
ENDBRANCH  31  32
ENDBRANCH  30  31
ENDBRANCH  29  30
ENDBRANCH  28  29
ENDBRANCH  22  28
ENDBRANCH   3  23
TORSDOF 9
ENDMDL
MODEL 3
REMARK VINA RESULT:     -12.6      1.515      2.379
REMARK  Name = 4887
REMARK  9 active torsions:
REMARK  status: ('A' for Active; 'I' for Inactive)
REMARK    1  A    between atoms: N_2  and  C_8
REMARK    2  A    between atoms: C_3  and  C_23
REMARK    3  A    between atoms: C_14  and  C_20
REMARK    4  A    between atoms: C_22  and  O_28
REMARK    5  A    between atoms: O_28  and  C_29
REMARK    6  A    between atoms: C_29  and  C_30
REMARK    7  A    between atoms: C_30  and  C_31
REMARK    8  A    between atoms: C_31  and  C_32
REMARK    9  A    between atoms: C_32  and  C_33
REMARK                            x       y       z     vdW  Elec       q    Type
REMARK                         _______ _______ _______ _____ _____    ______ ____
ROOT
ATOM      1  O   UNL     1      34.197 -23.377 -17.998  0.00  0.00    -0.270 OA
ATOM      2  N   UNL     1      35.572 -21.900 -16.794  0.00  0.00    -0.278 N 
ATOM      3  C   UNL     1      34.792 -22.312 -17.881  0.00  0.00    +0.250 C 
ATOM      4  H   UNL     1      35.979 -21.007 -16.868  0.00  0.00    +0.155 HD
ENDROOT
BRANCH   2   8
ATOM      5  O   UNL     1      33.527 -22.834 -15.223  0.00  0.00    -0.442 OA
ATOM      6  O   UNL     1      34.189 -24.897 -11.774  0.00  0.00    -0.286 OA
ATOM      7  C   UNL     1      34.812 -23.083 -14.810  0.00  0.00    +0.163 C 
ATOM      8  C   UNL     1      35.844 -22.603 -15.617  0.00  0.00    +0.086 C 
ATOM      9  C   UNL     1      35.110 -23.781 -13.642  0.00  0.00    +0.075 C 
ATOM     10  C   UNL     1      37.172 -22.823 -15.250  0.00  0.00    +0.018 C 
ATOM     11  C   UNL     1      36.437 -24.005 -13.271  0.00  0.00    +0.006 C 
ATOM     12  C   UNL     1      34.002 -24.275 -12.812  0.00  0.00    +0.202 C 
ATOM     13  C   UNL     1      37.468 -23.524 -14.079  0.00  0.00    +0.002 C 
ATOM     14  C   UNL     1      32.473 -23.296 -14.443  0.00  0.00    +0.213 C 
ATOM     15  C   UNL     1      32.641 -23.980 -13.299  0.00  0.00    +0.090 C 
BRANCH  14  20
ATOM     16  N   UNL     1      30.036 -22.833 -14.316  0.00  0.00    -0.107 NA
ATOM     17  N   UNL     1      31.058 -22.749 -16.335  0.00  0.00    -0.084 NA
ATOM     18  N   UNL     1      29.216 -22.528 -15.331  0.00  0.00    -0.140 N 
ATOM     19  N   UNL     1      29.778 -22.467 -16.545  0.00  0.00    -0.022 NA
ATOM     20  C   UNL     1      31.180 -22.963 -14.993  0.00  0.00    +0.109 C 
ATOM     21  H   UNL     1      28.256 -22.358 -15.192  0.00  0.00    +0.197 HD
ENDBRANCH  14  20
ENDBRANCH   2   8
BRANCH   3  23
ATOM     22  C   UNL     1      34.562 -19.534 -21.124  0.00  0.00    +0.139 C 
ATOM     23  C   UNL     1      34.713 -21.346 -19.008  0.00  0.00    +0.054 C 
ATOM     24  C   UNL     1      33.393 -20.038 -20.552  0.00  0.00    +0.037 C 
ATOM     25  C   UNL     1      35.806 -19.936 -20.637  0.00  0.00    +0.037 C 
ATOM     26  C   UNL     1      33.468 -20.945 -19.495  0.00  0.00    +0.008 C 
ATOM     27  C   UNL     1      35.882 -20.842 -19.579  0.00  0.00    +0.008 C 
BRANCH  22  28
ATOM     28  O   UNL     1      34.489 -18.649 -22.154  0.00  0.00    -0.475 OA
BRANCH  28  29
ATOM     29  C   UNL     1      34.544 -19.184 -23.476  0.00  0.00    +0.205 C 
BRANCH  29  30
ATOM     30  C   UNL     1      33.885 -18.200 -24.432  0.00  0.00    +0.048 C 
BRANCH  30  31
ATOM     31  C   UNL     1      34.274 -16.758 -24.113  0.00  0.00    +0.009 C 
BRANCH  31  32
ATOM     32  C   UNL     1      33.692 -15.786 -25.142  0.00  0.00    +0.026 C 
BRANCH  32  33
ATOM     33  C   UNL     1      33.735 -14.361 -24.649  0.00  0.00    -0.022 C 
ATOM     34  C   UNL     1      34.122 -14.089 -23.337  0.00  0.00    -0.004 C 
ATOM     35  C   UNL     1      33.387 -13.317 -25.504  0.00  0.00    -0.004 C 
ATOM     36  C   UNL     1      34.161 -12.772 -22.880  0.00  0.00    -0.000 C 
ATOM     37  C   UNL     1      33.426 -11.999 -25.048  0.00  0.00    -0.000 C 
ATOM     38  C   UNL     1      33.813 -11.727 -23.736  0.00  0.00    -0.000 C 
ENDBRANCH  32  33
ENDBRANCH  31  32
ENDBRANCH  30  31
ENDBRANCH  29  30
ENDBRANCH  28  29
ENDBRANCH  22  28
ENDBRANCH   3  23
TORSDOF 9
ENDMDL
MODEL 4
REMARK VINA RESULT:     -12.0      1.783      2.418
REMARK  Name = 4887
REMARK  9 active torsions:
REMARK  status: ('A' for Active; 'I' for Inactive)
REMARK    1  A    between atoms: N_2  and  C_8
REMARK    2  A    between atoms: C_3  and  C_23
REMARK    3  A    between atoms: C_14  and  C_20
REMARK    4  A    between atoms: C_22  and  O_28
REMARK    5  A    between atoms: O_28  and  C_29
REMARK    6  A    between atoms: C_29  and  C_30
REMARK    7  A    between atoms: C_30  and  C_31
REMARK    8  A    between atoms: C_31  and  C_32
REMARK    9  A    between atoms: C_32  and  C_33
REMARK                            x       y       z     vdW  Elec       q    Type
REMARK                         _______ _______ _______ _____ _____    ______ ____
ROOT
ATOM      1  O   UNL     1      37.413 -20.827 -17.377  0.00  0.00    -0.270 OA
ATOM      2  N   UNL     1      35.546 -22.185 -16.935  0.00  0.00    -0.278 N 
ATOM      3  C   UNL     1      36.301 -21.258 -17.663  0.00  0.00    +0.250 C 
ATOM      4  H   UNL     1      34.669 -22.421 -17.315  0.00  0.00    +0.155 HD
ENDROOT
BRANCH   2   8
ATOM      5  O   UNL     1      33.596 -22.991 -15.182  0.00  0.00    -0.442 OA
ATOM      6  O   UNL     1      34.455 -24.841 -11.658  0.00  0.00    -0.286 OA
ATOM      7  C   UNL     1      34.902 -23.230 -14.836  0.00  0.00    +0.163 C 
ATOM      8  C   UNL     1      35.886 -22.816 -15.735  0.00  0.00    +0.086 C 
ATOM      9  C   UNL     1      35.267 -23.858 -13.647  0.00  0.00    +0.075 C 
ATOM     10  C   UNL     1      37.231 -23.032 -15.439  0.00  0.00    +0.018 C 
ATOM     11  C   UNL     1      36.613 -24.076 -13.346  0.00  0.00    +0.006 C 
ATOM     12  C   UNL     1      34.210 -24.283 -12.719  0.00  0.00    +0.202 C 
ATOM     13  C   UNL     1      37.595 -23.660 -14.247  0.00  0.00    +0.002 C 
ATOM     14  C   UNL     1      32.589 -23.388 -14.310  0.00  0.00    +0.213 C 
ATOM     15  C   UNL     1      32.822 -24.001 -13.138  0.00  0.00    +0.090 C 
BRANCH  14  20
ATOM     16  N   UNL     1      30.150 -22.983 -14.071  0.00  0.00    -0.107 NA
ATOM     17  N   UNL     1      31.083 -22.835 -16.129  0.00  0.00    -0.084 NA
ATOM     18  N   UNL     1      29.281 -22.675 -15.044  0.00  0.00    -0.140 N 
ATOM     19  N   UNL     1      29.790 -22.577 -16.280  0.00  0.00    -0.022 NA
ATOM     20  C   UNL     1      31.267 -23.073 -14.799  0.00  0.00    +0.109 C 
ATOM     21  H   UNL     1      28.325 -22.530 -14.862  0.00  0.00    +0.197 HD
ENDBRANCH  14  20
ENDBRANCH   2   8
BRANCH   3  23
ATOM     22  C   UNL     1      34.440 -19.768 -21.213  0.00  0.00    +0.139 C 
ATOM     23  C   UNL     1      35.654 -20.741 -18.897  0.00  0.00    +0.054 C 
ATOM     24  C   UNL     1      35.803 -19.560 -20.999  0.00  0.00    +0.037 C 
ATOM     25  C   UNL     1      33.685 -20.463 -20.268  0.00  0.00    +0.037 C 
ATOM     26  C   UNL     1      36.410 -20.045 -19.841  0.00  0.00    +0.008 C 
ATOM     27  C   UNL     1      34.291 -20.949 -19.111  0.00  0.00    +0.008 C 
BRANCH  22  28
ATOM     28  O   UNL     1      33.849 -19.296 -22.344  0.00  0.00    -0.475 OA
BRANCH  28  29
ATOM     29  C   UNL     1      34.697 -19.043 -23.463  0.00  0.00    +0.205 C 
BRANCH  29  30
ATOM     30  C   UNL     1      33.880 -18.370 -24.557  0.00  0.00    +0.048 C 
BRANCH  30  31
ATOM     31  C   UNL     1      34.161 -16.870 -24.628  0.00  0.00    +0.009 C 
BRANCH  31  32
ATOM     32  C   UNL     1      35.336 -16.484 -23.727  0.00  0.00    +0.026 C 
BRANCH  32  33
ATOM     33  C   UNL     1      34.898 -15.594 -22.591  0.00  0.00    -0.022 C 
ATOM     34  C   UNL     1      34.307 -14.360 -22.860  0.00  0.00    -0.004 C 
ATOM     35  C   UNL     1      35.085 -16.004 -21.272  0.00  0.00    -0.004 C 
ATOM     36  C   UNL     1      33.902 -13.536 -21.811  0.00  0.00    -0.000 C 
ATOM     37  C   UNL     1      34.680 -15.181 -20.221  0.00  0.00    -0.000 C 
ATOM     38  C   UNL     1      34.088 -13.947 -20.490  0.00  0.00    -0.000 C 
ENDBRANCH  32  33
ENDBRANCH  31  32
ENDBRANCH  30  31
ENDBRANCH  29  30
ENDBRANCH  28  29
ENDBRANCH  22  28
ENDBRANCH   3  23
TORSDOF 9
ENDMDL
MODEL 5
REMARK VINA RESULT:     -11.3      2.541      3.571
REMARK  Name = 4887
REMARK  9 active torsions:
REMARK  status: ('A' for Active; 'I' for Inactive)
REMARK    1  A    between atoms: N_2  and  C_8
REMARK    2  A    between atoms: C_3  and  C_23
REMARK    3  A    between atoms: C_14  and  C_20
REMARK    4  A    between atoms: C_22  and  O_28
REMARK    5  A    between atoms: O_28  and  C_29
REMARK    6  A    between atoms: C_29  and  C_30
REMARK    7  A    between atoms: C_30  and  C_31
REMARK    8  A    between atoms: C_31  and  C_32
REMARK    9  A    between atoms: C_32  and  C_33
REMARK                            x       y       z     vdW  Elec       q    Type
REMARK                         _______ _______ _______ _____ _____    ______ ____
ROOT
ATOM      1  O   UNL     1      37.827 -21.038 -16.099  0.00  0.00    -0.270 OA
ATOM      2  N   UNL     1      36.606 -23.046 -16.052  0.00  0.00    -0.278 N 
ATOM      3  C   UNL     1      36.994 -21.805 -16.570  0.00  0.00    +0.250 C 
ATOM      4  H   UNL     1      35.920 -23.532 -16.563  0.00  0.00    +0.155 HD
ENDROOT
BRANCH   2   8
ATOM      5  O   UNL     1      34.884 -23.671 -14.010  0.00  0.00    -0.442 OA
ATOM      6  O   UNL     1      36.121 -25.514 -10.596  0.00  0.00    -0.286 OA
ATOM      7  C   UNL     1      36.206 -24.001 -13.851  0.00  0.00    +0.163 C 
ATOM      8  C   UNL     1      37.073 -23.678 -14.896  0.00  0.00    +0.086 C 
ATOM      9  C   UNL     1      36.697 -24.632 -12.710  0.00  0.00    +0.075 C 
ATOM     10  C   UNL     1      38.429 -23.988 -14.793  0.00  0.00    +0.018 C 
ATOM     11  C   UNL     1      38.054 -24.944 -12.603  0.00  0.00    +0.006 C 
ATOM     12  C   UNL     1      35.761 -24.960 -11.626  0.00  0.00    +0.202 C 
ATOM     13  C   UNL     1      38.919 -24.620 -13.649  0.00  0.00    +0.002 C 
ATOM     14  C   UNL     1      33.991 -23.976 -12.989  0.00  0.00    +0.213 C 
ATOM     15  C   UNL     1      34.351 -24.583 -11.846  0.00  0.00    +0.090 C 
BRANCH  14  20
ATOM     16  N   UNL     1      32.260 -22.662 -14.190  0.00  0.00    -0.107 NA
ATOM     17  N   UNL     1      31.602 -24.144 -12.609  0.00  0.00    -0.084 NA
ATOM     18  N   UNL     1      30.932 -22.720 -14.015  0.00  0.00    -0.140 N 
ATOM     19  N   UNL     1      30.497 -23.584 -13.088  0.00  0.00    -0.022 NA
ATOM     20  C   UNL     1      32.637 -23.571 -13.288  0.00  0.00    +0.109 C 
ATOM     21  H   UNL     1      30.313 -22.161 -14.536  0.00  0.00    +0.197 HD
ENDBRANCH  14  20
ENDBRANCH   2   8
BRANCH   3  23
ATOM     22  C   UNL     1      34.969 -20.602 -20.139  0.00  0.00    +0.139 C 
ATOM     23  C   UNL     1      36.291 -21.386 -17.811  0.00  0.00    +0.054 C 
ATOM     24  C   UNL     1      34.332 -21.441 -19.224  0.00  0.00    +0.037 C 
ATOM     25  C   UNL     1      36.267 -20.156 -19.890  0.00  0.00    +0.037 C 
ATOM     26  C   UNL     1      34.993 -21.833 -18.060  0.00  0.00    +0.008 C 
ATOM     27  C   UNL     1      36.928 -20.548 -18.726  0.00  0.00    +0.008 C 
BRANCH  22  28
ATOM     28  O   UNL     1      34.324 -20.218 -21.273  0.00  0.00    -0.475 OA
BRANCH  28  29
ATOM     29  C   UNL     1      34.797 -19.038 -21.922  0.00  0.00    +0.205 C 
BRANCH  29  30
ATOM     30  C   UNL     1      34.619 -19.199 -23.425  0.00  0.00    +0.048 C 
BRANCH  30  31
ATOM     31  C   UNL     1      33.946 -17.976 -24.046  0.00  0.00    +0.009 C 
BRANCH  31  32
ATOM     32  C   UNL     1      34.942 -16.827 -24.224  0.00  0.00    +0.026 C 
BRANCH  32  33
ATOM     33  C   UNL     1      34.449 -15.558 -23.574  0.00  0.00    -0.022 C 
ATOM     34  C   UNL     1      34.876 -15.222 -22.290  0.00  0.00    -0.004 C 
ATOM     35  C   UNL     1      33.567 -14.722 -24.257  0.00  0.00    -0.004 C 
ATOM     36  C   UNL     1      34.420 -14.050 -21.688  0.00  0.00    -0.000 C 
ATOM     37  C   UNL     1      33.111 -13.549 -23.656  0.00  0.00    -0.000 C 
ATOM     38  C   UNL     1      33.538 -13.213 -22.371  0.00  0.00    -0.000 C 
ENDBRANCH  32  33
ENDBRANCH  31  32
ENDBRANCH  30  31
ENDBRANCH  29  30
ENDBRANCH  28  29
ENDBRANCH  22  28
ENDBRANCH   3  23
TORSDOF 9
ENDMDL
MODEL 6
REMARK VINA RESULT:     -10.6      2.370      4.795
REMARK  Name = 4887
REMARK  9 active torsions:
REMARK  status: ('A' for Active; 'I' for Inactive)
REMARK    1  A    between atoms: N_2  and  C_8
REMARK    2  A    between atoms: C_3  and  C_23
REMARK    3  A    between atoms: C_14  and  C_20
REMARK    4  A    between atoms: C_22  and  O_28
REMARK    5  A    between atoms: O_28  and  C_29
REMARK    6  A    between atoms: C_29  and  C_30
REMARK    7  A    between atoms: C_30  and  C_31
REMARK    8  A    between atoms: C_31  and  C_32
REMARK    9  A    between atoms: C_32  and  C_33
REMARK                            x       y       z     vdW  Elec       q    Type
REMARK                         _______ _______ _______ _____ _____    ______ ____
ROOT
ATOM      1  O   UNL     1      33.363 -24.046 -17.581  0.00  0.00    -0.270 OA
ATOM      2  N   UNL     1      33.607 -22.280 -16.049  0.00  0.00    -0.278 N 
ATOM      3  C   UNL     1      33.635 -22.881 -17.313  0.00  0.00    +0.250 C 
ATOM      4  H   UNL     1      33.857 -21.329 -16.017  0.00  0.00    +0.155 HD
ENDROOT
BRANCH   2   8
ATOM      5  O   UNL     1      35.522 -23.498 -14.508  0.00  0.00    -0.442 OA
ATOM      6  O   UNL     1      34.663 -25.239 -10.928  0.00  0.00    -0.286 OA
ATOM      7  C   UNL     1      34.235 -23.489 -14.034  0.00  0.00    +0.163 C 
ATOM      8  C   UNL     1      33.269 -22.867 -14.826  0.00  0.00    +0.086 C 
ATOM      9  C   UNL     1      33.871 -24.066 -12.819  0.00  0.00    +0.075 C 
ATOM     10  C   UNL     1      31.942 -22.826 -14.399  0.00  0.00    +0.018 C 
ATOM     11  C   UNL     1      32.544 -24.026 -12.387  0.00  0.00    +0.006 C 
ATOM     12  C   UNL     1      34.909 -24.714 -12.006  0.00  0.00    +0.202 C 
ATOM     13  C   UNL     1      31.580 -23.404 -13.181  0.00  0.00    +0.002 C 
ATOM     14  C   UNL     1      36.512 -24.110 -13.746  0.00  0.00    +0.213 C 
ATOM     15  C   UNL     1      36.277 -24.697 -12.561  0.00  0.00    +0.090 C 
BRANCH  14  20
ATOM     16  N   UNL     1      38.847 -24.862 -14.129  0.00  0.00    -0.107 NA
ATOM     17  N   UNL     1      38.072 -23.077 -15.288  0.00  0.00    -0.084 NA
ATOM     18  N   UNL     1      39.744 -24.324 -14.968  0.00  0.00    -0.140 N 
ATOM     19  N   UNL     1      39.328 -23.265 -15.675  0.00  0.00    -0.022 NA
ATOM     20  C   UNL     1      37.815 -24.047 -14.364  0.00  0.00    +0.109 C 
ATOM     21  H   UNL     1      40.654 -24.686 -15.059  0.00  0.00    +0.197 HD
ENDBRANCH  14  20
ENDBRANCH   2   8
BRANCH   3  23
ATOM     22  C   UNL     1      34.876 -20.338 -20.519  0.00  0.00    +0.139 C 
ATOM     23  C   UNL     1      34.067 -21.997 -18.427  0.00  0.00    +0.054 C 
ATOM     24  C   UNL     1      33.532 -20.384 -20.145  0.00  0.00    +0.037 C 
ATOM     25  C   UNL     1      35.814 -21.122 -19.848  0.00  0.00    +0.037 C 
ATOM     26  C   UNL     1      33.128 -21.214 -19.099  0.00  0.00    +0.008 C 
ATOM     27  C   UNL     1      35.410 -21.952 -18.802  0.00  0.00    +0.008 C 
BRANCH  22  28
ATOM     28  O   UNL     1      35.271 -19.527 -21.538  0.00  0.00    -0.475 OA
BRANCH  28  29
ATOM     29  C   UNL     1      34.274 -19.139 -22.482  0.00  0.00    +0.205 C 
BRANCH  29  30
ATOM     30  C   UNL     1      34.959 -18.550 -23.707  0.00  0.00    +0.048 C 
BRANCH  30  31
ATOM     31  C   UNL     1      34.044 -17.580 -24.453  0.00  0.00    +0.009 C 
BRANCH  31  32
ATOM     32  C   UNL     1      34.732 -16.231 -24.676  0.00  0.00    +0.026 C 
BRANCH  32  33
ATOM     33  C   UNL     1      34.306 -15.213 -23.648  0.00  0.00    -0.022 C 
ATOM     34  C   UNL     1      34.872 -15.230 -22.374  0.00  0.00    -0.004 C 
ATOM     35  C   UNL     1      33.346 -14.255 -23.971  0.00  0.00    -0.004 C 
ATOM     36  C   UNL     1      34.477 -14.290 -21.422  0.00  0.00    -0.000 C 
ATOM     37  C   UNL     1      32.951 -13.314 -23.021  0.00  0.00    -0.000 C 
ATOM     38  C   UNL     1      33.517 -13.331 -21.747  0.00  0.00    -0.000 C 
ENDBRANCH  32  33
ENDBRANCH  31  32
ENDBRANCH  30  31
ENDBRANCH  29  30
ENDBRANCH  28  29
ENDBRANCH  22  28
ENDBRANCH   3  23
TORSDOF 9
ENDMDL
