MODEL 1
REMARK VINA RESULT:     -11.9      0.000      0.000
REMARK  Name = 77993
REMARK  6 active torsions:
REMARK  status: ('A' for Active; 'I' for Inactive)
REMARK    1  A    between atoms: C_2  and  C_11
REMARK    2  A    between atoms: C_7  and  C_19
REMARK    3  A    between atoms: C_11  and  C_13
REMARK    4  A    between atoms: C_19  and  C_20
REMARK    5  A    between atoms: C_20  and  S_21
REMARK    6  A    between atoms: S_21  and  C_24
REMARK                            x       y       z     vdW  Elec       q    Type
REMARK                         _______ _______ _______ _____ _____    ______ ____
ROOT
ATOM      1  N   UNL     1      33.517 -23.548 -15.812  0.00  0.00    -0.312 N 
ATOM      2  C   UNL     1      35.612 -23.066 -15.349  0.00  0.00    -0.008 C 
ATOM      3  C   UNL     1      35.332 -22.536 -16.626  0.00  0.00    +0.010 C 
ATOM      4  C   UNL     1      34.496 -23.680 -14.865  0.00  0.00    +0.058 C 
ATOM      5  C   UNL     1      33.998 -22.853 -16.899  0.00  0.00    +0.048 C 
ATOM      6  C   UNL     1      36.067 -21.816 -17.588  0.00  0.00    -0.003 C 
ATOM      7  C   UNL     1      35.445 -21.442 -18.783  0.00  0.00    -0.020 C 
ATOM      8  C   UNL     1      33.364 -22.485 -18.090  0.00  0.00    +0.014 C 
ATOM      9  C   UNL     1      34.114 -21.773 -19.029  0.00  0.00    -0.003 C 
ATOM     10  H   UNL     1      32.601 -23.898 -15.729  0.00  0.00    +0.152 HD
ENDROOT
BRANCH   2  11
ATOM     11  C   UNL     1      36.924 -22.973 -14.631  0.00  0.00    +0.007 C 
BRANCH  11  13
ATOM     12  N   UNL     1      37.535 -23.740 -12.330  0.00  0.00    +0.387 N 
ATOM     13  C   UNL     1      37.155 -24.148 -13.689  0.00  0.00    -0.054 C 
ATOM     14  C   UNL     1      38.349 -25.001 -14.128  0.00  0.00    -0.023 C 
ATOM     15  C   UNL     1      38.969 -25.521 -12.837  0.00  0.00    -0.025 C 
ATOM     16  C   UNL     1      38.112 -24.942 -11.722  0.00  0.00    -0.077 C 
ATOM     17  C   UNL     1      36.415 -23.232 -11.546  0.00  0.00    -0.101 C 
ATOM     18  H   UNL     1      38.193 -22.961 -12.357  0.00  0.00    -0.080 HD
ENDBRANCH  11  13
ENDBRANCH   2  11
BRANCH   7  19
ATOM     19  C   UNL     1      36.220 -20.680 -19.808  0.00  0.00    +0.052 C 
BRANCH  19  20
ATOM     20  C   UNL     1      35.359 -19.777 -20.696  0.00  0.00    +0.161 C 
BRANCH  20  21
ATOM     21  S   UNL     1      36.121 -18.216 -21.014  0.00  0.00    +0.009 S 
ATOM     22  O   UNL     1      37.517 -18.439 -21.353  0.00  0.00    -0.169 OA
ATOM     23  O   UNL     1      35.765 -17.319 -19.929  0.00  0.00    -0.169 OA
BRANCH  21  24
ATOM     24  C   UNL     1      35.320 -17.641 -22.481  0.00  0.00    +0.106 C 
ATOM     25  C   UNL     1      35.372 -16.294 -22.797  0.00  0.00    +0.018 C 
ATOM     26  C   UNL     1      34.654 -18.549 -23.288  0.00  0.00    +0.018 C 
ATOM     27  C   UNL     1      34.740 -15.841 -23.954  0.00  0.00    +0.001 C 
ATOM     28  C   UNL     1      34.022 -18.095 -24.446  0.00  0.00    +0.001 C 
ATOM     29  C   UNL     1      34.065 -16.742 -24.779  0.00  0.00    +0.000 C 
ENDBRANCH  21  24
ENDBRANCH  20  21
ENDBRANCH  19  20
ENDBRANCH   7  19
TORSDOF 6
ENDMDL
MODEL 2
REMARK VINA RESULT:     -11.1      5.548     11.640
REMARK  Name = 77993
REMARK  6 active torsions:
REMARK  status: ('A' for Active; 'I' for Inactive)
REMARK    1  A    between atoms: C_2  and  C_11
REMARK    2  A    between atoms: C_7  and  C_19
REMARK    3  A    between atoms: C_11  and  C_13
REMARK    4  A    between atoms: C_19  and  C_20
REMARK    5  A    between atoms: C_20  and  S_21
REMARK    6  A    between atoms: S_21  and  C_24
REMARK                            x       y       z     vdW  Elec       q    Type
REMARK                         _______ _______ _______ _____ _____    ______ ____
ROOT
ATOM      1  N   UNL     1      33.327 -13.489 -25.863  0.00  0.00    -0.312 N 
ATOM      2  C   UNL     1      33.746 -12.199 -24.130  0.00  0.00    -0.008 C 
ATOM      3  C   UNL     1      34.088 -13.518 -23.765  0.00  0.00    +0.010 C 
ATOM      4  C   UNL     1      33.283 -12.196 -25.413  0.00  0.00    +0.058 C 
ATOM      5  C   UNL     1      33.814 -14.318 -24.878  0.00  0.00    +0.048 C 
ATOM      6  C   UNL     1      34.603 -14.127 -22.604  0.00  0.00    -0.003 C 
ATOM      7  C   UNL     1      34.826 -15.508 -22.598  0.00  0.00    -0.020 C 
ATOM      8  C   UNL     1      34.032 -15.699 -24.886  0.00  0.00    +0.014 C 
ATOM      9  C   UNL     1      34.543 -16.281 -23.722  0.00  0.00    -0.003 C 
ATOM     10  H   UNL     1      33.051 -13.783 -26.761  0.00  0.00    +0.152 HD
ENDROOT
BRANCH   2  11
ATOM     11  C   UNL     1      33.868 -10.988 -23.257  0.00  0.00    +0.007 C 
BRANCH  11  13
ATOM     12  N   UNL     1      32.576  -9.300 -21.938  0.00  0.00    +0.387 N 
ATOM     13  C   UNL     1      32.550 -10.617 -22.590  0.00  0.00    -0.054 C 
ATOM     14  C   UNL     1      32.215 -11.558 -21.430  0.00  0.00    -0.023 C 
ATOM     15  C   UNL     1      31.477 -10.696 -20.412  0.00  0.00    -0.025 C 
ATOM     16  C   UNL     1      31.428  -9.307 -21.028  0.00  0.00    -0.077 C 
ATOM     17  C   UNL     1      32.504  -8.189 -22.880  0.00  0.00    -0.101 C 
ATOM     18  H   UNL     1      33.461  -9.156 -21.452  0.00  0.00    -0.080 HD
ENDBRANCH  11  13
ENDBRANCH   2  11
BRANCH   7  19
ATOM     19  C   UNL     1      35.371 -16.160 -21.369  0.00  0.00    +0.052 C 
BRANCH  19  20
ATOM     20  C   UNL     1      34.688 -17.483 -21.011  0.00  0.00    +0.161 C 
BRANCH  20  21
ATOM     21  S   UNL     1      35.729 -18.880 -21.299  0.00  0.00    +0.009 S 
ATOM     22  O   UNL     1      37.074 -18.559 -20.855  0.00  0.00    -0.169 OA
ATOM     23  O   UNL     1      35.494 -19.335 -22.658  0.00  0.00    -0.169 OA
BRANCH  21  24
ATOM     24  C   UNL     1      35.102 -20.112 -20.198  0.00  0.00    +0.106 C 
ATOM     25  C   UNL     1      33.733 -20.279 -20.076  0.00  0.00    +0.018 C 
ATOM     26  C   UNL     1      35.993 -20.890 -19.476  0.00  0.00    +0.018 C 
ATOM     27  C   UNL     1      33.239 -21.252 -19.208  0.00  0.00    +0.001 C 
ATOM     28  C   UNL     1      35.498 -21.863 -18.608  0.00  0.00    +0.001 C 
ATOM     29  C   UNL     1      34.122 -22.044 -18.474  0.00  0.00    +0.000 C 
ENDBRANCH  21  24
ENDBRANCH  20  21
ENDBRANCH  19  20
ENDBRANCH   7  19
TORSDOF 6
ENDMDL
MODEL 3
REMARK VINA RESULT:     -11.0      2.110      4.127
REMARK  Name = 77993
REMARK  6 active torsions:
REMARK  status: ('A' for Active; 'I' for Inactive)
REMARK    1  A    between atoms: C_2  and  C_11
REMARK    2  A    between atoms: C_7  and  C_19
REMARK    3  A    between atoms: C_11  and  C_13
REMARK    4  A    between atoms: C_19  and  C_20
REMARK    5  A    between atoms: C_20  and  S_21
REMARK    6  A    between atoms: S_21  and  C_24
REMARK                            x       y       z     vdW  Elec       q    Type
REMARK                         _______ _______ _______ _____ _____    ______ ____
ROOT
ATOM      1  N   UNL     1      35.671 -22.799 -14.563  0.00  0.00    -0.312 N 
ATOM      2  C   UNL     1      33.930 -23.233 -15.837  0.00  0.00    -0.008 C 
ATOM      3  C   UNL     1      34.875 -22.551 -16.634  0.00  0.00    +0.010 C 
ATOM      4  C   UNL     1      34.430 -23.377 -14.577  0.00  0.00    +0.058 C 
ATOM      5  C   UNL     1      35.969 -22.286 -15.806  0.00  0.00    +0.048 C 
ATOM      6  C   UNL     1      34.921 -22.126 -17.976  0.00  0.00    -0.003 C 
ATOM      7  C   UNL     1      36.057 -21.454 -18.440  0.00  0.00    -0.020 C 
ATOM      8  C   UNL     1      37.111 -21.616 -16.257  0.00  0.00    +0.014 C 
ATOM      9  C   UNL     1      37.134 -21.203 -17.592  0.00  0.00    -0.003 C 
ATOM     10  H   UNL     1      36.265 -22.756 -13.780  0.00  0.00    +0.152 HD
ENDROOT
BRANCH   2  11
ATOM     11  C   UNL     1      32.591 -23.724 -16.293  0.00  0.00    +0.007 C 
BRANCH  11  13
ATOM     12  N   UNL     1      30.754 -24.407 -14.738  0.00  0.00    +0.387 N 
ATOM     13  C   UNL     1      31.464 -23.285 -15.367  0.00  0.00    -0.054 C 
ATOM     14  C   UNL     1      30.347 -22.569 -16.131  0.00  0.00    -0.023 C 
ATOM     15  C   UNL     1      29.061 -22.929 -15.397  0.00  0.00    -0.025 C 
ATOM     16  C   UNL     1      29.495 -23.835 -14.255  0.00  0.00    -0.077 C 
ATOM     17  C   UNL     1      31.507 -25.031 -13.656  0.00  0.00    -0.101 C 
ATOM     18  H   UNL     1      30.610 -25.163 -15.407  0.00  0.00    -0.080 HD
ENDBRANCH  11  13
ENDBRANCH   2  11
BRANCH   7  19
ATOM     19  C   UNL     1      36.113 -20.999 -19.861  0.00  0.00    +0.052 C 
BRANCH  19  20
ATOM     20  C   UNL     1      35.185 -19.823 -20.177  0.00  0.00    +0.161 C 
BRANCH  20  21
ATOM     21  S   UNL     1      36.059 -18.415 -20.786  0.00  0.00    +0.009 S 
ATOM     22  O   UNL     1      37.428 -18.805 -21.074  0.00  0.00    -0.169 OA
ATOM     23  O   UNL     1      35.787 -17.303 -19.891  0.00  0.00    -0.169 OA
BRANCH  21  24
ATOM     24  C   UNL     1      35.283 -18.068 -22.336  0.00  0.00    +0.106 C 
ATOM     25  C   UNL     1      35.378 -16.795 -22.870  0.00  0.00    +0.018 C 
ATOM     26  C   UNL     1      34.595 -19.078 -22.988  0.00  0.00    +0.018 C 
ATOM     27  C   UNL     1      34.766 -16.521 -24.093  0.00  0.00    +0.001 C 
ATOM     28  C   UNL     1      33.983 -18.804 -24.212  0.00  0.00    +0.001 C 
ATOM     29  C   UNL     1      34.069 -17.527 -24.763  0.00  0.00    +0.000 C 
ENDBRANCH  21  24
ENDBRANCH  20  21
ENDBRANCH  19  20
ENDBRANCH   7  19
TORSDOF 6
ENDMDL
MODEL 4
REMARK VINA RESULT:     -10.9      4.701      8.202
REMARK  Name = 77993
REMARK  6 active torsions:
REMARK  status: ('A' for Active; 'I' for Inactive)
REMARK    1  A    between atoms: C_2  and  C_11
REMARK    2  A    between atoms: C_7  and  C_19
REMARK    3  A    between atoms: C_11  and  C_13
REMARK    4  A    between atoms: C_19  and  C_20
REMARK    5  A    between atoms: C_20  and  S_21
REMARK    6  A    between atoms: S_21  and  C_24
REMARK                            x       y       z     vdW  Elec       q    Type
REMARK                         _______ _______ _______ _____ _____    ______ ____
ROOT
ATOM      1  N   UNL     1      34.386 -18.818 -24.221  0.00  0.00    -0.312 N 
ATOM      2  C   UNL     1      35.070 -18.496 -22.155  0.00  0.00    -0.008 C 
ATOM      3  C   UNL     1      34.795 -17.228 -22.709  0.00  0.00    +0.010 C 
ATOM      4  C   UNL     1      34.816 -19.456 -23.088  0.00  0.00    +0.058 C 
ATOM      5  C   UNL     1      34.363 -17.456 -24.018  0.00  0.00    +0.048 C 
ATOM      6  C   UNL     1      34.866 -15.901 -22.240  0.00  0.00    -0.003 C 
ATOM      7  C   UNL     1      34.504 -14.855 -23.095  0.00  0.00    -0.020 C 
ATOM      8  C   UNL     1      33.998 -16.420 -24.883  0.00  0.00    +0.014 C 
ATOM      9  C   UNL     1      34.077 -15.112 -24.397  0.00  0.00    -0.003 C 
ATOM     10  H   UNL     1      34.129 -19.267 -25.058  0.00  0.00    +0.152 HD
ENDROOT
BRANCH   2  11
ATOM     11  C   UNL     1      35.563 -18.756 -20.764  0.00  0.00    +0.007 C 
BRANCH  11  13
ATOM     12  N   UNL     1      34.242 -20.398 -19.416  0.00  0.00    +0.387 N 
ATOM     13  C   UNL     1      35.368 -20.206 -20.340  0.00  0.00    -0.054 C 
ATOM     14  C   UNL     1      36.558 -20.726 -19.530  0.00  0.00    -0.023 C 
ATOM     15  C   UNL     1      35.965 -21.714 -18.532  0.00  0.00    -0.025 C 
ATOM     16  C   UNL     1      34.470 -21.712 -18.809  0.00  0.00    -0.077 C 
ATOM     17  C   UNL     1      32.940 -20.332 -20.071  0.00  0.00    -0.101 C 
ATOM     18  H   UNL     1      34.210 -19.648 -18.725  0.00  0.00    -0.080 HD
ENDBRANCH  11  13
ENDBRANCH   2  11
BRANCH   7  19
ATOM     19  C   UNL     1      34.578 -13.446 -22.606  0.00  0.00    +0.052 C 
BRANCH  19  20
ATOM     20  C   UNL     1      34.102 -13.261 -21.162  0.00  0.00    +0.161 C 
BRANCH  20  21
ATOM     21  S   UNL     1      32.353 -13.053 -21.047  0.00  0.00    +0.009 S 
ATOM     22  O   UNL     1      31.865 -13.819 -19.913  0.00  0.00    -0.169 OA
ATOM     23  O   UNL     1      31.793 -13.267 -22.370  0.00  0.00    -0.169 OA
BRANCH  21  24
ATOM     24  C   UNL     1      32.152 -11.345 -20.641  0.00  0.00    +0.106 C 
ATOM     25  C   UNL     1      32.146 -10.404 -21.657  0.00  0.00    +0.018 C 
ATOM     26  C   UNL     1      32.005 -10.978 -19.314  0.00  0.00    +0.018 C 
ATOM     27  C   UNL     1      31.987  -9.056 -21.336  0.00  0.00    +0.001 C 
ATOM     28  C   UNL     1      31.846  -9.629 -18.994  0.00  0.00    +0.001 C 
ATOM     29  C   UNL     1      31.837  -8.669 -20.004  0.00  0.00    +0.000 C 
ENDBRANCH  21  24
ENDBRANCH  20  21
ENDBRANCH  19  20
ENDBRANCH   7  19
TORSDOF 6
ENDMDL
MODEL 5
REMARK VINA RESULT:     -10.9      3.772      9.949
REMARK  Name = 77993
REMARK  6 active torsions:
REMARK  status: ('A' for Active; 'I' for Inactive)
REMARK    1  A    between atoms: C_2  and  C_11
REMARK    2  A    between atoms: C_7  and  C_19
REMARK    3  A    between atoms: C_11  and  C_13
REMARK    4  A    between atoms: C_19  and  C_20
REMARK    5  A    between atoms: C_20  and  S_21
REMARK    6  A    between atoms: S_21  and  C_24
REMARK                            x       y       z     vdW  Elec       q    Type
REMARK                         _______ _______ _______ _____ _____    ______ ____
ROOT
ATOM      1  N   UNL     1      32.665 -21.094 -19.696  0.00  0.00    -0.312 N 
ATOM      2  C   UNL     1      34.512 -20.094 -20.350  0.00  0.00    -0.008 C 
ATOM      3  C   UNL     1      34.836 -20.882 -19.226  0.00  0.00    +0.010 C 
ATOM      4  C   UNL     1      33.184 -20.233 -20.625  0.00  0.00    +0.058 C 
ATOM      5  C   UNL     1      33.651 -21.507 -18.828  0.00  0.00    +0.048 C 
ATOM      6  C   UNL     1      36.014 -21.136 -18.496  0.00  0.00    -0.003 C 
ATOM      7  C   UNL     1      35.964 -22.003 -17.399  0.00  0.00    -0.020 C 
ATOM      8  C   UNL     1      33.587 -22.375 -17.734  0.00  0.00    +0.014 C 
ATOM      9  C   UNL     1      34.768 -22.612 -17.024  0.00  0.00    -0.003 C 
ATOM     10  H   UNL     1      31.723 -21.378 -19.654  0.00  0.00    +0.152 HD
ENDROOT
BRANCH   2  11
ATOM     11  C   UNL     1      35.466 -19.238 -21.125  0.00  0.00    +0.007 C 
BRANCH  11  13
ATOM     12  N   UNL     1      35.003 -17.953 -23.221  0.00  0.00    +0.387 N 
ATOM     13  C   UNL     1      34.780 -18.041 -21.771  0.00  0.00    -0.054 C 
ATOM     14  C   UNL     1      35.354 -16.715 -21.264  0.00  0.00    -0.023 C 
ATOM     15  C   UNL     1      35.264 -15.758 -22.447  0.00  0.00    -0.025 C 
ATOM     16  C   UNL     1      34.653 -16.575 -23.574  0.00  0.00    -0.077 C 
ATOM     17  C   UNL     1      34.217 -18.916 -23.984  0.00  0.00    -0.101 C 
ATOM     18  H   UNL     1      35.969 -18.183 -23.452  0.00  0.00    -0.080 HD
ENDBRANCH  11  13
ENDBRANCH   2  11
BRANCH   7  19
ATOM     19  C   UNL     1      37.209 -22.276 -16.620  0.00  0.00    +0.052 C 
BRANCH  19  20
ATOM     20  C   UNL     1      36.986 -22.391 -15.109  0.00  0.00    +0.161 C 
BRANCH  20  21
ATOM     21  S   UNL     1      37.365 -24.001 -14.491  0.00  0.00    +0.009 S 
ATOM     22  O   UNL     1      38.805 -24.185 -14.520  0.00  0.00    -0.169 OA
ATOM     23  O   UNL     1      36.491 -24.950 -15.159  0.00  0.00    -0.169 OA
BRANCH  21  24
ATOM     24  C   UNL     1      36.888 -23.928 -12.790  0.00  0.00    +0.106 C 
ATOM     25  C   UNL     1      37.392 -22.917 -11.989  0.00  0.00    +0.018 C 
ATOM     26  C   UNL     1      36.019 -24.883 -12.290  0.00  0.00    +0.018 C 
ATOM     27  C   UNL     1      37.015 -22.860 -10.647  0.00  0.00    +0.001 C 
ATOM     28  C   UNL     1      35.642 -24.825 -10.948  0.00  0.00    +0.001 C 
ATOM     29  C   UNL     1      36.140 -23.814 -10.127  0.00  0.00    +0.000 C 
ENDBRANCH  21  24
ENDBRANCH  20  21
ENDBRANCH  19  20
ENDBRANCH   7  19
TORSDOF 6
ENDMDL
MODEL 6
REMARK VINA RESULT:     -10.9      2.433      4.312
REMARK  Name = 77993
REMARK  6 active torsions:
REMARK  status: ('A' for Active; 'I' for Inactive)
REMARK    1  A    between atoms: C_2  and  C_11
REMARK    2  A    between atoms: C_7  and  C_19
REMARK    3  A    between atoms: C_11  and  C_13
REMARK    4  A    between atoms: C_19  and  C_20
REMARK    5  A    between atoms: C_20  and  S_21
REMARK    6  A    between atoms: S_21  and  C_24
REMARK                            x       y       z     vdW  Elec       q    Type
REMARK                         _______ _______ _______ _____ _____    ______ ____
ROOT
ATOM      1  N   UNL     1      35.959 -22.809 -15.627  0.00  0.00    -0.312 N 
ATOM      2  C   UNL     1      33.941 -23.227 -16.397  0.00  0.00    -0.008 C 
ATOM      3  C   UNL     1      34.602 -22.434 -17.359  0.00  0.00    +0.010 C 
ATOM      4  C   UNL     1      34.781 -23.448 -15.347  0.00  0.00    +0.058 C 
ATOM      5  C   UNL     1      35.879 -22.182 -16.851  0.00  0.00    +0.048 C 
ATOM      6  C   UNL     1      34.255 -21.899 -18.615  0.00  0.00    -0.003 C 
ATOM      7  C   UNL     1      35.194 -21.133 -19.314  0.00  0.00    -0.020 C 
ATOM      8  C   UNL     1      36.828 -21.418 -17.538  0.00  0.00    +0.014 C 
ATOM      9  C   UNL     1      36.460 -20.897 -18.782  0.00  0.00    -0.003 C 
ATOM     10  H   UNL     1      36.750 -22.800 -15.041  0.00  0.00    +0.152 HD
ENDROOT
BRANCH   2  11
ATOM     11  C   UNL     1      32.541 -23.748 -16.504  0.00  0.00    +0.007 C 
BRANCH  11  13
ATOM     12  N   UNL     1      31.116 -24.217 -14.502  0.00  0.00    +0.387 N 
ATOM     13  C   UNL     1      31.629 -23.190 -15.419  0.00  0.00    -0.054 C 
ATOM     14  C   UNL     1      30.346 -22.596 -16.007  0.00  0.00    -0.023 C 
ATOM     15  C   UNL     1      29.266 -22.857 -14.963  0.00  0.00    -0.025 C 
ATOM     16  C   UNL     1      29.972 -23.590 -13.834  0.00  0.00    -0.077 C 
ATOM     17  C   UNL     1      32.110 -24.678 -13.539  0.00  0.00    -0.101 C 
ATOM     18  H   UNL     1      30.857 -25.061 -15.013  0.00  0.00    -0.080 HD
ENDBRANCH  11  13
ENDBRANCH   2  11
BRANCH   7  19
ATOM     19  C   UNL     1      34.832 -20.561 -20.645  0.00  0.00    +0.052 C 
BRANCH  19  20
ATOM     20  C   UNL     1      34.676 -19.038 -20.648  0.00  0.00    +0.161 C 
BRANCH  20  21
ATOM     21  S   UNL     1      35.633 -18.262 -21.913  0.00  0.00    +0.009 S 
ATOM     22  O   UNL     1      35.173 -18.740 -23.205  0.00  0.00    -0.169 OA
ATOM     23  O   UNL     1      37.033 -18.379 -21.544  0.00  0.00    -0.169 OA
BRANCH  21  24
ATOM     24  C   UNL     1      35.183 -16.557 -21.803  0.00  0.00    +0.106 C 
ATOM     25  C   UNL     1      35.004 -15.983 -20.555  0.00  0.00    +0.018 C 
ATOM     26  C   UNL     1      35.017 -15.825 -22.967  0.00  0.00    +0.018 C 
ATOM     27  C   UNL     1      34.650 -14.637 -20.469  0.00  0.00    +0.001 C 
ATOM     28  C   UNL     1      34.662 -14.478 -22.880  0.00  0.00    +0.001 C 
ATOM     29  C   UNL     1      34.479 -13.885 -21.632  0.00  0.00    +0.000 C 
ENDBRANCH  21  24
ENDBRANCH  20  21
ENDBRANCH  19  20
ENDBRANCH   7  19
TORSDOF 6
ENDMDL
MODEL 7
REMARK VINA RESULT:     -10.7      1.339      2.131
REMARK  Name = 77993
REMARK  6 active torsions:
REMARK  status: ('A' for Active; 'I' for Inactive)
REMARK    1  A    between atoms: C_2  and  C_11
REMARK    2  A    between atoms: C_7  and  C_19
REMARK    3  A    between atoms: C_11  and  C_13
REMARK    4  A    between atoms: C_19  and  C_20
REMARK    5  A    between atoms: C_20  and  S_21
REMARK    6  A    between atoms: S_21  and  C_24
REMARK                            x       y       z     vdW  Elec       q    Type
REMARK                         _______ _______ _______ _____ _____    ______ ____
ROOT
ATOM      1  N   UNL     1      31.639 -22.724 -16.884  0.00  0.00    -0.312 N 
ATOM      2  C   UNL     1      33.647 -23.403 -16.294  0.00  0.00    -0.008 C 
ATOM      3  C   UNL     1      33.803 -22.531 -17.393  0.00  0.00    +0.010 C 
ATOM      4  C   UNL     1      32.321 -23.511 -15.995  0.00  0.00    +0.058 C 
ATOM      5  C   UNL     1      32.518 -22.113 -17.750  0.00  0.00    +0.048 C 
ATOM      6  C   UNL     1      34.902 -22.047 -18.129  0.00  0.00    -0.003 C 
ATOM      7  C   UNL     1      34.677 -21.166 -19.192  0.00  0.00    -0.020 C 
ATOM      8  C   UNL     1      32.278 -21.233 -18.809  0.00  0.00    +0.014 C 
ATOM      9  C   UNL     1      33.384 -20.766 -19.526  0.00  0.00    -0.003 C 
ATOM     10  H   UNL     1      30.661 -22.611 -16.902  0.00  0.00    +0.152 HD
ENDROOT
BRANCH   2  11
ATOM     11  C   UNL     1      34.753 -24.102 -15.566  0.00  0.00    +0.007 C 
BRANCH  11  13
ATOM     12  N   UNL     1      36.682 -23.461 -14.107  0.00  0.00    +0.387 N 
ATOM     13  C   UNL     1      35.240 -23.316 -14.356  0.00  0.00    -0.054 C 
ATOM     14  C   UNL     1      34.623 -23.836 -13.055  0.00  0.00    -0.023 C 
ATOM     15  C   UNL     1      35.694 -23.632 -11.990  0.00  0.00    -0.025 C 
ATOM     16  C   UNL     1      36.873 -23.014 -12.725  0.00  0.00    -0.077 C 
ATOM     17  C   UNL     1      37.506 -22.696 -15.035  0.00  0.00    -0.101 C 
ATOM     18  H   UNL     1      36.977 -24.427 -14.251  0.00  0.00    -0.080 HD
ENDBRANCH  11  13
ENDBRANCH   2  11
BRANCH   7  19
ATOM     19  C   UNL     1      35.837 -20.649 -19.978  0.00  0.00    +0.052 C 
BRANCH  19  20
ATOM     20  C   UNL     1      35.441 -19.819 -21.202  0.00  0.00    +0.161 C 
BRANCH  20  21
ATOM     21  S   UNL     1      36.204 -18.227 -21.216  0.00  0.00    +0.009 S 
ATOM     22  O   UNL     1      37.591 -18.378 -21.620  0.00  0.00    -0.169 OA
ATOM     23  O   UNL     1      35.873 -17.566 -19.965  0.00  0.00    -0.169 OA
BRANCH  21  24
ATOM     24  C   UNL     1      35.377 -17.368 -22.520  0.00  0.00    +0.106 C 
ATOM     25  C   UNL     1      34.783 -18.094 -23.538  0.00  0.00    +0.018 C 
ATOM     26  C   UNL     1      35.338 -15.984 -22.500  0.00  0.00    +0.018 C 
ATOM     27  C   UNL     1      34.130 -17.415 -24.567  0.00  0.00    +0.001 C 
ATOM     28  C   UNL     1      34.685 -15.306 -23.529  0.00  0.00    +0.001 C 
ATOM     29  C   UNL     1      34.081 -16.021 -24.562  0.00  0.00    +0.000 C 
ENDBRANCH  21  24
ENDBRANCH  20  21
ENDBRANCH  19  20
ENDBRANCH   7  19
TORSDOF 6
ENDMDL
MODEL 8
REMARK VINA RESULT:     -10.5      7.396     13.008
REMARK  Name = 77993
REMARK  6 active torsions:
REMARK  status: ('A' for Active; 'I' for Inactive)
REMARK    1  A    between atoms: C_2  and  C_11
REMARK    2  A    between atoms: C_7  and  C_19
REMARK    3  A    between atoms: C_11  and  C_13
REMARK    4  A    between atoms: C_19  and  C_20
REMARK    5  A    between atoms: C_20  and  S_21
REMARK    6  A    between atoms: S_21  and  C_24
REMARK                            x       y       z     vdW  Elec       q    Type
REMARK                         _______ _______ _______ _____ _____    ______ ____
ROOT
ATOM      1  N   UNL     1      31.856 -10.796 -19.019  0.00  0.00    -0.312 N 
ATOM      2  C   UNL     1      31.573  -9.688 -20.898  0.00  0.00    -0.008 C 
ATOM      3  C   UNL     1      32.011 -10.986 -21.238  0.00  0.00    +0.010 C 
ATOM      4  C   UNL     1      31.483  -9.587 -19.542  0.00  0.00    +0.058 C 
ATOM      5  C   UNL     1      32.183 -11.670 -20.032  0.00  0.00    +0.048 C 
ATOM      6  C   UNL     1      32.282 -11.660 -22.444  0.00  0.00    -0.003 C 
ATOM      7  C   UNL     1      32.714 -12.990 -22.401  0.00  0.00    -0.020 C 
ATOM      8  C   UNL     1      32.614 -12.999 -19.973  0.00  0.00    +0.014 C 
ATOM      9  C   UNL     1      32.878 -13.648 -21.183  0.00  0.00    -0.003 C 
ATOM     10  H   UNL     1      31.885 -11.011 -18.059  0.00  0.00    +0.152 HD
ENDROOT
BRANCH   2  11
ATOM     11  C   UNL     1      31.256  -8.590 -21.866  0.00  0.00    +0.007 C 
BRANCH  11  13
ATOM     12  N   UNL     1      31.644  -6.163 -22.332  0.00  0.00    +0.387 N 
ATOM     13  C   UNL     1      32.163  -7.379 -21.690  0.00  0.00    -0.054 C 
ATOM     14  C   UNL     1      33.512  -7.574 -22.386  0.00  0.00    -0.023 C 
ATOM     15  C   UNL     1      33.925  -6.187 -22.862  0.00  0.00    -0.025 C 
ATOM     16  C   UNL     1      32.798  -5.264 -22.426  0.00  0.00    -0.077 C 
ATOM     17  C   UNL     1      30.547  -5.546 -21.596  0.00  0.00    -0.101 C 
ATOM     18  H   UNL     1      31.241  -6.379 -23.243  0.00  0.00    -0.080 HD
ENDBRANCH  11  13
ENDBRANCH   2  11
BRANCH   7  19
ATOM     19  C   UNL     1      33.004 -13.711 -23.676  0.00  0.00    +0.052 C 
BRANCH  19  20
ATOM     20  C   UNL     1      34.342 -14.456 -23.681  0.00  0.00    +0.161 C 
BRANCH  20  21
ATOM     21  S   UNL     1      34.250 -16.005 -24.523  0.00  0.00    +0.009 S 
ATOM     22  O   UNL     1      35.269 -16.035 -25.558  0.00  0.00    -0.169 OA
ATOM     23  O   UNL     1      32.858 -16.246 -24.859  0.00  0.00    -0.169 OA
BRANCH  21  24
ATOM     24  C   UNL     1      34.725 -17.186 -23.296  0.00  0.00    +0.106 C 
ATOM     25  C   UNL     1      34.513 -18.533 -23.536  0.00  0.00    +0.018 C 
ATOM     26  C   UNL     1      35.301 -16.742 -22.117  0.00  0.00    +0.018 C 
ATOM     27  C   UNL     1      34.889 -19.464 -22.568  0.00  0.00    +0.001 C 
ATOM     28  C   UNL     1      35.676 -17.674 -21.149  0.00  0.00    +0.001 C 
ATOM     29  C   UNL     1      35.470 -19.034 -21.375  0.00  0.00    +0.000 C 
ENDBRANCH  21  24
ENDBRANCH  20  21
ENDBRANCH  19  20
ENDBRANCH   7  19
TORSDOF 6
ENDMDL
MODEL 9
REMARK VINA RESULT:     -10.3      4.495     10.520
REMARK  Name = 77993
REMARK  6 active torsions:
REMARK  status: ('A' for Active; 'I' for Inactive)
REMARK    1  A    between atoms: C_2  and  C_11
REMARK    2  A    between atoms: C_7  and  C_19
REMARK    3  A    between atoms: C_11  and  C_13
REMARK    4  A    between atoms: C_19  and  C_20
REMARK    5  A    between atoms: C_20  and  S_21
REMARK    6  A    between atoms: S_21  and  C_24
REMARK                            x       y       z     vdW  Elec       q    Type
REMARK                         _______ _______ _______ _____ _____    ______ ____
ROOT
ATOM      1  N   UNL     1      33.679 -16.523 -25.094  0.00  0.00    -0.312 N 
ATOM      2  C   UNL     1      34.304 -15.135 -23.505  0.00  0.00    -0.008 C 
ATOM      3  C   UNL     1      34.640 -16.438 -23.081  0.00  0.00    +0.010 C 
ATOM      4  C   UNL     1      33.719 -15.202 -24.734  0.00  0.00    +0.058 C 
ATOM      5  C   UNL     1      34.235 -17.301 -24.103  0.00  0.00    +0.048 C 
ATOM      6  C   UNL     1      35.247 -16.985 -21.934  0.00  0.00    -0.003 C 
ATOM      7  C   UNL     1      35.428 -18.369 -21.851  0.00  0.00    -0.020 C 
ATOM      8  C   UNL     1      34.409 -18.686 -24.034  0.00  0.00    +0.014 C 
ATOM      9  C   UNL     1      35.014 -19.206 -22.886  0.00  0.00    -0.003 C 
ATOM     10  H   UNL     1      33.308 -16.866 -25.938  0.00  0.00    +0.152 HD
ENDROOT
BRANCH   2  11
ATOM     11  C   UNL     1      34.547 -13.873 -22.735  0.00  0.00    +0.007 C 
BRANCH  11  13
ATOM     12  N   UNL     1      33.400 -11.686 -22.335  0.00  0.00    +0.387 N 
ATOM     13  C   UNL     1      33.254 -13.147 -22.385  0.00  0.00    -0.054 C 
ATOM     14  C   UNL     1      32.778 -13.485 -20.970  0.00  0.00    -0.023 C 
ATOM     15  C   UNL     1      32.103 -12.218 -20.459  0.00  0.00    -0.025 C 
ATOM     16  C   UNL     1      32.227 -11.214 -21.594  0.00  0.00    -0.077 C 
ATOM     17  C   UNL     1      33.483 -11.069 -23.653  0.00  0.00    -0.101 C 
ATOM     18  H   UNL     1      34.278 -11.427 -21.884  0.00  0.00    -0.080 HD
ENDBRANCH  11  13
ENDBRANCH   2  11
BRANCH   7  19
ATOM     19  C   UNL     1      36.070 -18.956 -20.637  0.00  0.00    +0.052 C 
BRANCH  19  20
ATOM     20  C   UNL     1      35.318 -20.154 -20.051  0.00  0.00    +0.161 C 
BRANCH  20  21
ATOM     21  S   UNL     1      36.324 -21.121 -18.969  0.00  0.00    +0.009 S 
ATOM     22  O   UNL     1      37.096 -20.226 -18.125  0.00  0.00    -0.169 OA
ATOM     23  O   UNL     1      36.994 -22.131 -19.771  0.00  0.00    -0.169 OA
BRANCH  21  24
ATOM     24  C   UNL     1      35.159 -21.942 -17.923  0.00  0.00    +0.106 C 
ATOM     25  C   UNL     1      35.570 -22.402 -16.683  0.00  0.00    +0.018 C 
ATOM     26  C   UNL     1      33.857 -22.110 -18.363  0.00  0.00    +0.018 C 
ATOM     27  C   UNL     1      34.650 -23.049 -15.858  0.00  0.00    +0.001 C 
ATOM     28  C   UNL     1      32.938 -22.757 -17.537  0.00  0.00    +0.001 C 
ATOM     29  C   UNL     1      33.334 -23.226 -16.285  0.00  0.00    +0.000 C 
ENDBRANCH  21  24
ENDBRANCH  20  21
ENDBRANCH  19  20
ENDBRANCH   7  19
TORSDOF 6
ENDMDL
