MODEL 1
REMARK VINA RESULT:     -12.3      0.000      0.000
REMARK  Name = 32778
REMARK  7 active torsions:
REMARK  status: ('A' for Active; 'I' for Inactive)
REMARK    1  A    between atoms: C_1  and  S_7
REMARK    2  A    between atoms: C_2  and  C_23
REMARK    3  A    between atoms: S_7  and  N_12
REMARK    4  A    between atoms: N_11  and  N_16
REMARK    5  A    between atoms: C_23  and  C_24
REMARK    6  A    between atoms: C_24  and  N_26
REMARK    7  A    between atoms: C_27  and  C_31
REMARK                            x       y       z     vdW  Elec       q    Type
REMARK                         _______ _______ _______ _____ _____    ______ ____
ROOT
ATOM      1  C   UNL     1      34.369 -21.151 -19.410  0.00  0.00    +0.125 C 
ATOM      2  C   UNL     1      35.300 -19.096 -21.050  0.00  0.00    -0.020 C 
ATOM      3  C   UNL     1      35.732 -20.859 -19.455  0.00  0.00    +0.020 C 
ATOM      4  C   UNL     1      33.472 -20.417 -20.185  0.00  0.00    +0.020 C 
ATOM      5  C   UNL     1      36.198 -19.831 -20.275  0.00  0.00    -0.003 C 
ATOM      6  C   UNL     1      33.937 -19.389 -21.004  0.00  0.00    -0.003 C 
ENDROOT
BRANCH   1   7
ATOM      7  S   UNL     1      33.780 -22.455 -18.371  0.00  0.00    +0.077 S 
ATOM      8  O   UNL     1      33.910 -23.704 -19.097  0.00  0.00    -0.150 OA
ATOM      9  O   UNL     1      32.490 -22.033 -17.859  0.00  0.00    -0.150 OA
BRANCH   7  12
ATOM     10  O   UNL     1      34.152 -24.205 -15.835  0.00  0.00    -0.250 OA
ATOM     11  N   UNL     1      36.011 -23.017 -15.136  0.00  0.00    -0.230 N 
ATOM     12  N   UNL     1      34.930 -22.411 -17.108  0.00  0.00    -0.168 N 
ATOM     13  C   UNL     1      34.969 -23.301 -15.988  0.00  0.00    +0.333 C 
ATOM     14  H   UNL     1      36.625 -22.272 -15.329  0.00  0.00    +0.171 HD
ATOM     15  H   UNL     1      35.625 -21.713 -17.153  0.00  0.00    +0.178 HD
BRANCH  11  16
ATOM     16  N   UNL     1      36.186 -23.794 -14.001  0.00  0.00    -0.205 NA
ATOM     17  C   UNL     1      37.880 -24.430 -11.362  0.00  0.00    +0.002 C 
ATOM     18  C   UNL     1      37.836 -25.828 -11.965  0.00  0.00    +0.002 C 
ATOM     19  C   UNL     1      36.592 -23.629 -11.508  0.00  0.00    +0.019 C 
ATOM     20  C   UNL     1      37.086 -25.992 -13.283  0.00  0.00    +0.019 C 
ATOM     21  C   UNL     1      36.475 -22.921 -12.862  0.00  0.00    +0.092 C 
ATOM     22  C   UNL     1      37.200 -24.822 -14.259  0.00  0.00    +0.092 C 
ENDBRANCH  11  16
ENDBRANCH   7  12
ENDBRANCH   1   7
BRANCH   2  23
ATOM     23  C   UNL     1      35.798 -17.996 -21.926  0.00  0.00    +0.048 C 
BRANCH  23  24
ATOM     24  C   UNL     1      34.895 -17.718 -23.134  0.00  0.00    +0.094 C 
BRANCH  24  26
ATOM     25  O   UNL     1      33.446 -16.543 -25.273  0.00  0.00    -0.268 OA
ATOM     26  N   UNL     1      34.631 -16.315 -23.308  0.00  0.00    -0.299 N 
ATOM     27  C   UNL     1      33.908 -15.819 -24.391  0.00  0.00    +0.267 C 
ATOM     28  H   UNL     1      34.973 -15.681 -22.636  0.00  0.00    +0.150 HD
BRANCH  27  31
ATOM     29  O   UNL     1      33.315 -12.412 -25.275  0.00  0.00    -0.358 OA
ATOM     30  N   UNL     1      33.359 -13.769 -25.574  0.00  0.00    -0.073 NA
ATOM     31  C   UNL     1      33.753 -14.359 -24.442  0.00  0.00    +0.176 C 
ATOM     32  C   UNL     1      33.970 -13.434 -23.405  0.00  0.00    +0.063 C 
ATOM     33  C   UNL     1      33.682 -12.226 -23.981  0.00  0.00    +0.155 C 
ATOM     34  C   UNL     1      33.692 -10.840 -23.495  0.00  0.00    +0.075 C 
ENDBRANCH  27  31
ENDBRANCH  24  26
ENDBRANCH  23  24
ENDBRANCH   2  23
TORSDOF 7
ENDMDL
MODEL 2
REMARK VINA RESULT:     -11.4      2.627     11.986
REMARK  Name = 32778
REMARK  7 active torsions:
REMARK  status: ('A' for Active; 'I' for Inactive)
REMARK    1  A    between atoms: C_1  and  S_7
REMARK    2  A    between atoms: C_2  and  C_23
REMARK    3  A    between atoms: S_7  and  N_12
REMARK    4  A    between atoms: N_11  and  N_16
REMARK    5  A    between atoms: C_23  and  C_24
REMARK    6  A    between atoms: C_24  and  N_26
REMARK    7  A    between atoms: C_27  and  C_31
REMARK                            x       y       z     vdW  Elec       q    Type
REMARK                         _______ _______ _______ _____ _____    ______ ____
ROOT
ATOM      1  C   UNL     1      35.493 -19.931 -20.203  0.00  0.00    +0.125 C 
ATOM      2  C   UNL     1      34.087 -21.812 -18.699  0.00  0.00    -0.020 C 
ATOM      3  C   UNL     1      34.099 -19.943 -20.231  0.00  0.00    +0.020 C 
ATOM      4  C   UNL     1      36.185 -20.859 -19.425  0.00  0.00    +0.020 C 
ATOM      5  C   UNL     1      33.395 -20.883 -19.478  0.00  0.00    -0.003 C 
ATOM      6  C   UNL     1      35.481 -21.799 -18.672  0.00  0.00    -0.003 C 
ENDROOT
BRANCH   1   7
ATOM      7  S   UNL     1      36.384 -18.739 -21.159  0.00  0.00    +0.077 S 
ATOM      8  O   UNL     1      36.067 -18.954 -22.557  0.00  0.00    -0.150 OA
ATOM      9  O   UNL     1      37.761 -18.780 -20.702  0.00  0.00    -0.150 OA
BRANCH   7  12
ATOM     10  O   UNL     1      34.742 -16.569 -22.653  0.00  0.00    -0.250 OA
ATOM     11  N   UNL     1      34.457 -15.294 -20.744  0.00  0.00    -0.230 N 
ATOM     12  N   UNL     1      35.657 -17.286 -20.629  0.00  0.00    -0.168 N 
ATOM     13  C   UNL     1      34.922 -16.377 -21.453  0.00  0.00    +0.333 C 
ATOM     14  H   UNL     1      34.643 -15.211 -19.780  0.00  0.00    +0.171 HD
ATOM     15  H   UNL     1      35.752 -17.055 -19.676  0.00  0.00    +0.178 HD
BRANCH  11  16
ATOM     16  N   UNL     1      33.721 -14.320 -21.402  0.00  0.00    -0.205 NA
ATOM     17  C   UNL     1      33.523 -11.317 -22.488  0.00  0.00    +0.002 C 
ATOM     18  C   UNL     1      32.210 -11.385 -21.719  0.00  0.00    +0.002 C 
ATOM     19  C   UNL     1      33.890 -12.590 -23.241  0.00  0.00    +0.019 C 
ATOM     20  C   UNL     1      31.882 -12.700 -21.021  0.00  0.00    +0.019 C 
ATOM     21  C   UNL     1      34.588 -13.630 -22.359  0.00  0.00    +0.092 C 
ATOM     22  C   UNL     1      33.073 -13.445 -20.420  0.00  0.00    +0.092 C 
ENDBRANCH  11  16
ENDBRANCH   7  12
ENDBRANCH   1   7
BRANCH   2  23
ATOM     23  C   UNL     1      33.334 -22.817 -17.894  0.00  0.00    +0.048 C 
BRANCH  23  24
ATOM     24  C   UNL     1      33.669 -22.778 -16.397  0.00  0.00    +0.094 C 
BRANCH  24  26
ATOM     25  O   UNL     1      34.022 -24.300 -14.028  0.00  0.00    -0.268 OA
ATOM     26  N   UNL     1      34.814 -23.585 -16.072  0.00  0.00    -0.299 N 
ATOM     27  C   UNL     1      34.908 -24.303 -14.882  0.00  0.00    +0.267 C 
ATOM     28  H   UNL     1      35.559 -23.632 -16.714  0.00  0.00    +0.150 HD
BRANCH  27  31
ATOM     29  O   UNL     1      37.516 -26.735 -14.709  0.00  0.00    -0.358 OA
ATOM     30  N   UNL     1      36.218 -26.345 -15.021  0.00  0.00    -0.073 NA
ATOM     31  C   UNL     1      36.156 -25.054 -14.685  0.00  0.00    +0.176 C 
ATOM     32  C   UNL     1      37.372 -24.579 -14.162  0.00  0.00    +0.063 C 
ATOM     33  C   UNL     1      38.192 -25.675 -14.198  0.00  0.00    +0.155 C 
ATOM     34  C   UNL     1      39.589 -25.912 -13.813  0.00  0.00    +0.075 C 
ENDBRANCH  27  31
ENDBRANCH  24  26
ENDBRANCH  23  24
ENDBRANCH   2  23
TORSDOF 7
ENDMDL
MODEL 3
REMARK VINA RESULT:     -11.2      2.514     12.642
REMARK  Name = 32778
REMARK  7 active torsions:
REMARK  status: ('A' for Active; 'I' for Inactive)
REMARK    1  A    between atoms: C_1  and  S_7
REMARK    2  A    between atoms: C_2  and  C_23
REMARK    3  A    between atoms: S_7  and  N_12
REMARK    4  A    between atoms: N_11  and  N_16
REMARK    5  A    between atoms: C_23  and  C_24
REMARK    6  A    between atoms: C_24  and  N_26
REMARK    7  A    between atoms: C_27  and  C_31
REMARK                            x       y       z     vdW  Elec       q    Type
REMARK                         _______ _______ _______ _____ _____    ______ ____
ROOT
ATOM      1  C   UNL     1      34.647 -17.028 -23.371  0.00  0.00    +0.125 C 
ATOM      2  C   UNL     1      35.314 -19.015 -21.530  0.00  0.00    -0.020 C 
ATOM      3  C   UNL     1      34.302 -18.356 -23.623  0.00  0.00    +0.020 C 
ATOM      4  C   UNL     1      35.327 -16.694 -22.199  0.00  0.00    +0.020 C 
ATOM      5  C   UNL     1      34.634 -19.349 -22.702  0.00  0.00    -0.003 C 
ATOM      6  C   UNL     1      35.659 -17.688 -21.279  0.00  0.00    -0.003 C 
ENDROOT
BRANCH   1   7
ATOM      7  S   UNL     1      34.227 -15.770 -24.539  0.00  0.00    +0.077 S 
ATOM      8  O   UNL     1      32.903 -16.058 -25.056  0.00  0.00    -0.150 OA
ATOM      9  O   UNL     1      35.356 -15.641 -25.441  0.00  0.00    -0.150 OA
BRANCH   7  12
ATOM     10  O   UNL     1      33.170 -12.890 -25.014  0.00  0.00    -0.250 OA
ATOM     11  N   UNL     1      33.705 -12.206 -22.869  0.00  0.00    -0.230 N 
ATOM     12  N   UNL     1      34.153 -14.396 -23.526  0.00  0.00    -0.168 N 
ATOM     13  C   UNL     1      33.629 -13.117 -23.898  0.00  0.00    +0.333 C 
ATOM     14  H   UNL     1      34.089 -12.466 -22.001  0.00  0.00    +0.171 HD
ATOM     15  H   UNL     1      34.502 -14.491 -22.609  0.00  0.00    +0.178 HD
BRANCH  11  16
ATOM     16  N   UNL     1      33.235 -10.918 -23.071  0.00  0.00    -0.205 NA
ATOM     17  C   UNL     1      33.593  -7.775 -22.594  0.00  0.00    +0.002 C 
ATOM     18  C   UNL     1      32.147  -7.926 -22.141  0.00  0.00    +0.002 C 
ATOM     19  C   UNL     1      33.974  -8.613 -23.809  0.00  0.00    +0.019 C 
ATOM     20  C   UNL     1      31.539  -9.323 -22.213  0.00  0.00    +0.019 C 
ATOM     21  C   UNL     1      34.353 -10.052 -23.449  0.00  0.00    +0.092 C 
ATOM     22  C   UNL     1      32.489 -10.475 -21.889  0.00  0.00    +0.092 C 
ENDBRANCH  11  16
ENDBRANCH   7  12
ENDBRANCH   1   7
BRANCH   2  23
ATOM     23  C   UNL     1      35.668 -20.078 -20.545  0.00  0.00    +0.048 C 
BRANCH  23  24
ATOM     24  C   UNL     1      34.448 -20.784 -19.939  0.00  0.00    +0.094 C 
BRANCH  24  26
ATOM     25  O   UNL     1      32.645 -22.308 -18.365  0.00  0.00    -0.268 OA
ATOM     26  N   UNL     1      34.766 -21.475 -18.719  0.00  0.00    -0.299 N 
ATOM     27  C   UNL     1      33.817 -22.204 -18.004  0.00  0.00    +0.267 C 
ATOM     28  H   UNL     1      35.688 -21.432 -18.376  0.00  0.00    +0.150 HD
BRANCH  27  31
ATOM     29  O   UNL     1      35.698 -23.537 -15.279  0.00  0.00    -0.358 OA
ATOM     30  N   UNL     1      35.603 -22.909 -16.516  0.00  0.00    -0.073 NA
ATOM     31  C   UNL     1      34.293 -22.825 -16.760  0.00  0.00    +0.176 C 
ATOM     32  C   UNL     1      33.519 -23.377 -15.724  0.00  0.00    +0.063 C 
ATOM     33  C   UNL     1      34.450 -23.811 -14.819  0.00  0.00    +0.155 C 
ATOM     34  C   UNL     1      34.365 -24.479 -13.514  0.00  0.00    +0.075 C 
ENDBRANCH  27  31
ENDBRANCH  24  26
ENDBRANCH  23  24
ENDBRANCH   2  23
TORSDOF 7
ENDMDL
MODEL 4
REMARK VINA RESULT:     -11.0      3.570     12.169
REMARK  Name = 32778
REMARK  7 active torsions:
REMARK  status: ('A' for Active; 'I' for Inactive)
REMARK    1  A    between atoms: C_1  and  S_7
REMARK    2  A    between atoms: C_2  and  C_23
REMARK    3  A    between atoms: S_7  and  N_12
REMARK    4  A    between atoms: N_11  and  N_16
REMARK    5  A    between atoms: C_23  and  C_24
REMARK    6  A    between atoms: C_24  and  N_26
REMARK    7  A    between atoms: C_27  and  C_31
REMARK                            x       y       z     vdW  Elec       q    Type
REMARK                         _______ _______ _______ _____ _____    ______ ____
ROOT
ATOM      1  C   UNL     1      34.757 -17.084 -23.170  0.00  0.00    +0.125 C 
ATOM      2  C   UNL     1      35.474 -18.840 -21.125  0.00  0.00    -0.020 C 
ATOM      3  C   UNL     1      35.248 -16.585 -21.963  0.00  0.00    +0.020 C 
ATOM      4  C   UNL     1      34.624 -18.460 -23.354  0.00  0.00    +0.020 C 
ATOM      5  C   UNL     1      35.608 -17.464 -20.941  0.00  0.00    -0.003 C 
ATOM      6  C   UNL     1      34.983 -19.338 -22.332  0.00  0.00    -0.003 C 
ENDROOT
BRANCH   1   7
ATOM      7  S   UNL     1      34.301 -15.969 -24.464  0.00  0.00    +0.077 S 
ATOM      8  O   UNL     1      32.895 -16.168 -24.756  0.00  0.00    -0.150 OA
ATOM      9  O   UNL     1      35.296 -16.112 -25.511  0.00  0.00    -0.150 OA
BRANCH   7  12
ATOM     10  O   UNL     1      32.497 -13.449 -24.289  0.00  0.00    -0.250 OA
ATOM     11  N   UNL     1      34.022 -12.296 -22.985  0.00  0.00    -0.230 N 
ATOM     12  N   UNL     1      34.512 -14.462 -23.687  0.00  0.00    -0.168 N 
ATOM     13  C   UNL     1      33.573 -13.383 -23.700  0.00  0.00    +0.333 C 
ATOM     14  H   UNL     1      34.899 -12.320 -22.539  0.00  0.00    +0.171 HD
ATOM     15  H   UNL     1      35.350 -14.324 -23.188  0.00  0.00    +0.178 HD
BRANCH  11  16
ATOM     16  N   UNL     1      33.223 -11.166 -22.900  0.00  0.00    -0.205 NA
ATOM     17  C   UNL     1      32.864  -8.144 -21.913  0.00  0.00    +0.002 C 
ATOM     18  C   UNL     1      31.588  -8.741 -21.336  0.00  0.00    +0.002 C 
ATOM     19  C   UNL     1      33.248  -8.666 -23.292  0.00  0.00    +0.019 C 
ATOM     20  C   UNL     1      31.339 -10.225 -21.588  0.00  0.00    +0.019 C 
ATOM     21  C   UNL     1      34.022  -9.987 -23.240  0.00  0.00    +0.092 C 
ATOM     22  C   UNL     1      32.582 -11.113 -21.582  0.00  0.00    +0.092 C 
ENDBRANCH  11  16
ENDBRANCH   7  12
ENDBRANCH   1   7
BRANCH   2  23
ATOM     23  C   UNL     1      35.860 -19.779 -20.032  0.00  0.00    +0.048 C 
BRANCH  23  24
ATOM     24  C   UNL     1      35.357 -21.212 -20.249  0.00  0.00    +0.094 C 
BRANCH  24  26
ATOM     25  O   UNL     1      35.620 -22.533 -17.752  0.00  0.00    -0.268 OA
ATOM     26  N   UNL     1      34.283 -21.556 -19.357  0.00  0.00    -0.299 N 
ATOM     27  C   UNL     1      34.499 -22.208 -18.144  0.00  0.00    +0.267 C 
ATOM     28  H   UNL     1      33.361 -21.323 -19.612  0.00  0.00    +0.150 HD
BRANCH  27  31
ATOM     29  O   UNL     1      31.203 -22.533 -16.813  0.00  0.00    -0.358 OA
ATOM     30  N   UNL     1      32.104 -22.064 -17.763  0.00  0.00    -0.073 NA
ATOM     31  C   UNL     1      33.295 -22.518 -17.361  0.00  0.00    +0.176 C 
ATOM     32  C   UNL     1      33.209 -23.271 -16.177  0.00  0.00    +0.063 C 
ATOM     33  C   UNL     1      31.874 -23.249 -15.874  0.00  0.00    +0.155 C 
ATOM     34  C   UNL     1      31.069 -23.821 -14.788  0.00  0.00    +0.075 C 
ENDBRANCH  27  31
ENDBRANCH  24  26
ENDBRANCH  23  24
ENDBRANCH   2  23
TORSDOF 7
ENDMDL
MODEL 5
REMARK VINA RESULT:     -10.8      4.835      8.470
REMARK  Name = 32778
REMARK  7 active torsions:
REMARK  status: ('A' for Active; 'I' for Inactive)
REMARK    1  A    between atoms: C_1  and  S_7
REMARK    2  A    between atoms: C_2  and  C_23
REMARK    3  A    between atoms: S_7  and  N_12
REMARK    4  A    between atoms: N_11  and  N_16
REMARK    5  A    between atoms: C_23  and  C_24
REMARK    6  A    between atoms: C_24  and  N_26
REMARK    7  A    between atoms: C_27  and  C_31
REMARK                            x       y       z     vdW  Elec       q    Type
REMARK                         _______ _______ _______ _____ _____    ______ ____
ROOT
ATOM      1  C   UNL     1      33.993 -14.557 -24.387  0.00  0.00    +0.125 C 
ATOM      2  C   UNL     1      33.698 -11.825 -23.907  0.00  0.00    -0.020 C 
ATOM      3  C   UNL     1      34.308 -14.031 -23.134  0.00  0.00    +0.020 C 
ATOM      4  C   UNL     1      33.531 -13.716 -25.401  0.00  0.00    +0.020 C 
ATOM      5  C   UNL     1      34.160 -12.665 -22.894  0.00  0.00    -0.003 C 
ATOM      6  C   UNL     1      33.383 -12.350 -25.160  0.00  0.00    -0.003 C 
ENDROOT
BRANCH   1   7
ATOM      7  S   UNL     1      34.182 -16.288 -24.691  0.00  0.00    +0.077 S 
ATOM      8  O   UNL     1      35.353 -16.474 -25.526  0.00  0.00    -0.150 OA
ATOM      9  O   UNL     1      32.887 -16.782 -25.121  0.00  0.00    -0.150 OA
BRANCH   7  12
ATOM     10  O   UNL     1      34.226 -19.148 -23.486  0.00  0.00    -0.250 OA
ATOM     11  N   UNL     1      34.796 -18.386 -21.378  0.00  0.00    -0.230 N 
ATOM     12  N   UNL     1      34.511 -16.862 -23.116  0.00  0.00    -0.168 N 
ATOM     13  C   UNL     1      34.490 -18.234 -22.711  0.00  0.00    +0.333 C 
ATOM     14  H   UNL     1      34.996 -17.600 -20.819  0.00  0.00    +0.171 HD
ATOM     15  H   UNL     1      34.734 -16.192 -22.428  0.00  0.00    +0.178 HD
BRANCH  11  16
ATOM     16  N   UNL     1      34.819 -19.660 -20.831  0.00  0.00    -0.205 NA
ATOM     17  C   UNL     1      34.114 -21.591 -18.380  0.00  0.00    +0.002 C 
ATOM     18  C   UNL     1      35.584 -21.950 -18.557  0.00  0.00    +0.002 C 
ATOM     19  C   UNL     1      33.349 -21.367 -19.678  0.00  0.00    +0.019 C 
ATOM     20  C   UNL     1      36.343 -21.238 -19.672  0.00  0.00    +0.019 C 
ATOM     21  C   UNL     1      33.514 -19.950 -20.235  0.00  0.00    +0.092 C 
ATOM     22  C   UNL     1      35.954 -19.779 -19.909  0.00  0.00    +0.092 C 
ENDBRANCH  11  16
ENDBRANCH   7  12
ENDBRANCH   1   7
BRANCH   2  23
ATOM     23  C   UNL     1      33.539 -10.365 -23.649  0.00  0.00    +0.048 C 
BRANCH  23  24
ATOM     24  C   UNL     1      32.586 -10.047 -22.490  0.00  0.00    +0.094 C 
BRANCH  24  26
ATOM     25  O   UNL     1      32.788  -8.278 -20.280  0.00  0.00    -0.268 OA
ATOM     26  N   UNL     1      32.187  -8.665 -22.472  0.00  0.00    -0.299 N 
ATOM     27  C   UNL     1      32.321  -7.864 -21.340  0.00  0.00    +0.267 C 
ATOM     28  H   UNL     1      31.806  -8.271 -23.290  0.00  0.00    +0.150 HD
BRANCH  27  31
ATOM     29  O   UNL     1      30.506  -4.861 -22.000  0.00  0.00    -0.358 OA
ATOM     30  N   UNL     1      30.647  -6.244 -22.033  0.00  0.00    -0.073 NA
ATOM     31  C   UNL     1      31.837  -6.482 -21.474  0.00  0.00    +0.176 C 
ATOM     32  C   UNL     1      32.486  -5.301 -21.073  0.00  0.00    +0.063 C 
ATOM     33  C   UNL     1      31.607  -4.312 -21.427  0.00  0.00    +0.155 C 
ATOM     34  C   UNL     1      31.625  -2.848 -21.311  0.00  0.00    +0.075 C 
ENDBRANCH  27  31
ENDBRANCH  24  26
ENDBRANCH  23  24
ENDBRANCH   2  23
TORSDOF 7
ENDMDL
MODEL 6
REMARK VINA RESULT:     -10.7      3.462      4.943
REMARK  Name = 32778
REMARK  7 active torsions:
REMARK  status: ('A' for Active; 'I' for Inactive)
REMARK    1  A    between atoms: C_1  and  S_7
REMARK    2  A    between atoms: C_2  and  C_23
REMARK    3  A    between atoms: S_7  and  N_12
REMARK    4  A    between atoms: N_11  and  N_16
REMARK    5  A    between atoms: C_23  and  C_24
REMARK    6  A    between atoms: C_24  and  N_26
REMARK    7  A    between atoms: C_27  and  C_31
REMARK                            x       y       z     vdW  Elec       q    Type
REMARK                         _______ _______ _______ _____ _____    ______ ____
ROOT
ATOM      1  C   UNL     1      36.093 -22.430 -16.393  0.00  0.00    +0.125 C 
ATOM      2  C   UNL     1      35.703 -21.107 -18.817  0.00  0.00    -0.020 C 
ATOM      3  C   UNL     1      34.933 -22.658 -17.133  0.00  0.00    +0.020 C 
ATOM      4  C   UNL     1      37.058 -21.540 -16.865  0.00  0.00    +0.020 C 
ATOM      5  C   UNL     1      34.738 -21.997 -18.346  0.00  0.00    -0.003 C 
ATOM      6  C   UNL     1      36.863 -20.879 -18.078  0.00  0.00    -0.003 C 
ENDROOT
BRANCH   1   7
ATOM      7  S   UNL     1      36.338 -23.267 -14.855  0.00  0.00    +0.077 S 
ATOM      8  O   UNL     1      37.503 -22.695 -14.210  0.00  0.00    -0.150 OA
ATOM      9  O   UNL     1      36.279 -24.689 -15.138  0.00  0.00    -0.150 OA
BRANCH   7  12
ATOM     10  O   UNL     1      33.377 -24.172 -15.077  0.00  0.00    -0.250 OA
ATOM     11  N   UNL     1      32.686 -22.753 -13.385  0.00  0.00    -0.230 N 
ATOM     12  N   UNL     1      34.932 -22.802 -14.003  0.00  0.00    -0.168 N 
ATOM     13  C   UNL     1      33.616 -23.320 -14.226  0.00  0.00    +0.333 C 
ATOM     14  H   UNL     1      32.958 -22.072 -12.727  0.00  0.00    +0.171 HD
ATOM     15  H   UNL     1      35.035 -22.121 -13.299  0.00  0.00    +0.178 HD
BRANCH  11  16
ATOM     16  N   UNL     1      31.361 -23.151 -13.476  0.00  0.00    -0.205 NA
ATOM     17  C   UNL     1      29.214 -25.263 -14.555  0.00  0.00    +0.002 C 
ATOM     18  C   UNL     1      28.565 -23.979 -15.055  0.00  0.00    +0.002 C 
ATOM     19  C   UNL     1      29.854 -25.161 -13.175  0.00  0.00    +0.019 C 
ATOM     20  C   UNL     1      29.281 -22.670 -14.739  0.00  0.00    +0.019 C 
ATOM     21  C   UNL     1      31.274 -24.589 -13.213  0.00  0.00    +0.092 C 
ATOM     22  C   UNL     1      30.808 -22.729 -14.767  0.00  0.00    +0.092 C 
ENDBRANCH  11  16
ENDBRANCH   7  12
ENDBRANCH   1   7
BRANCH   2  23
ATOM     23  C   UNL     1      35.495 -20.401 -20.115  0.00  0.00    +0.048 C 
BRANCH  23  24
ATOM     24  C   UNL     1      36.592 -19.379 -20.440  0.00  0.00    +0.094 C 
BRANCH  24  26
ATOM     25  O   UNL     1      35.670 -18.139 -22.820  0.00  0.00    -0.268 OA
ATOM     26  N   UNL     1      36.077 -18.041 -20.552  0.00  0.00    -0.299 N 
ATOM     27  C   UNL     1      35.644 -17.507 -21.764  0.00  0.00    +0.267 C 
ATOM     28  H   UNL     1      36.029 -17.482 -19.743  0.00  0.00    +0.150 HD
BRANCH  27  31
ATOM     29  O   UNL     1      34.507 -14.247 -20.858  0.00  0.00    -0.358 OA
ATOM     30  N   UNL     1      34.922 -15.536 -20.542  0.00  0.00    -0.073 NA
ATOM     31  C   UNL     1      35.175 -16.115 -21.718  0.00  0.00    +0.176 C 
ATOM     32  C   UNL     1      34.942 -15.250 -22.801  0.00  0.00    +0.063 C 
ATOM     33  C   UNL     1      34.523 -14.090 -22.207  0.00  0.00    +0.155 C 
ATOM     34  C   UNL     1      34.110 -12.777 -22.719  0.00  0.00    +0.075 C 
ENDBRANCH  27  31
ENDBRANCH  24  26
ENDBRANCH  23  24
ENDBRANCH   2  23
TORSDOF 7
ENDMDL
MODEL 7
REMARK VINA RESULT:     -10.6      3.298      4.165
REMARK  Name = 32778
REMARK  7 active torsions:
REMARK  status: ('A' for Active; 'I' for Inactive)
REMARK    1  A    between atoms: C_1  and  S_7
REMARK    2  A    between atoms: C_2  and  C_23
REMARK    3  A    between atoms: S_7  and  N_12
REMARK    4  A    between atoms: N_11  and  N_16
REMARK    5  A    between atoms: C_23  and  C_24
REMARK    6  A    between atoms: C_24  and  N_26
REMARK    7  A    between atoms: C_27  and  C_31
REMARK                            x       y       z     vdW  Elec       q    Type
REMARK                         _______ _______ _______ _____ _____    ______ ____
ROOT
ATOM      1  C   UNL     1      35.368 -20.238 -20.209  0.00  0.00    +0.125 C 
ATOM      2  C   UNL     1      34.988 -18.269 -22.148  0.00  0.00    -0.020 C 
ATOM      3  C   UNL     1      34.143 -20.134 -20.867  0.00  0.00    +0.020 C 
ATOM      4  C   UNL     1      36.404 -19.356 -20.520  0.00  0.00    +0.020 C 
ATOM      5  C   UNL     1      33.953 -19.151 -21.837  0.00  0.00    -0.003 C 
ATOM      6  C   UNL     1      36.214 -18.372 -21.491  0.00  0.00    -0.003 C 
ENDROOT
BRANCH   1   7
ATOM      7  S   UNL     1      35.608 -21.484 -18.978  0.00  0.00    +0.077 S 
ATOM      8  O   UNL     1      36.491 -20.950 -17.960  0.00  0.00    -0.150 OA
ATOM      9  O   UNL     1      35.949 -22.707 -19.681  0.00  0.00    -0.150 OA
BRANCH   7  12
ATOM     10  O   UNL     1      34.362 -23.431 -16.906  0.00  0.00    -0.250 OA
ATOM     11  N   UNL     1      32.271 -22.453 -17.058  0.00  0.00    -0.230 N 
ATOM     12  N   UNL     1      34.028 -21.622 -18.342  0.00  0.00    -0.168 N 
ATOM     13  C   UNL     1      33.602 -22.589 -17.377  0.00  0.00    +0.333 C 
ATOM     14  H   UNL     1      31.726 -21.750 -17.481  0.00  0.00    +0.171 HD
ATOM     15  H   UNL     1      33.352 -20.982 -18.667  0.00  0.00    +0.178 HD
BRANCH  11  16
ATOM     16  N   UNL     1      31.706 -23.317 -16.133  0.00  0.00    -0.205 NA
ATOM     17  C   UNL     1      29.633 -23.780 -13.741  0.00  0.00    +0.002 C 
ATOM     18  C   UNL     1      30.883 -24.360 -13.094  0.00  0.00    +0.002 C 
ATOM     19  C   UNL     1      29.475 -24.092 -15.224  0.00  0.00    +0.019 C 
ATOM     20  C   UNL     1      32.162 -24.351 -13.924  0.00  0.00    +0.019 C 
ATOM     21  C   UNL     1      30.254 -23.130 -16.126  0.00  0.00    +0.092 C 
ATOM     22  C   UNL     1      32.354 -23.135 -14.830  0.00  0.00    +0.092 C 
ENDBRANCH  11  16
ENDBRANCH   7  12
ENDBRANCH   1   7
BRANCH   2  23
ATOM     23  C   UNL     1      34.785 -17.218 -23.186  0.00  0.00    +0.048 C 
BRANCH  23  24
ATOM     24  C   UNL     1      35.562 -15.924 -22.909  0.00  0.00    +0.094 C 
BRANCH  24  26
ATOM     25  O   UNL     1      34.600 -14.905 -20.441  0.00  0.00    -0.268 OA
ATOM     26  N   UNL     1      34.693 -14.790 -22.743  0.00  0.00    -0.299 N 
ATOM     27  C   UNL     1      34.266 -14.354 -21.490  0.00  0.00    +0.267 C 
ATOM     28  H   UNL     1      34.390 -14.303 -23.543  0.00  0.00    +0.150 HD
BRANCH  27  31
ATOM     29  O   UNL     1      32.462 -11.346 -22.154  0.00  0.00    -0.358 OA
ATOM     30  N   UNL     1      33.454 -12.275 -22.449  0.00  0.00    -0.073 NA
ATOM     31  C   UNL     1      33.356 -13.200 -21.491  0.00  0.00    +0.176 C 
ATOM     32  C   UNL     1      32.331 -12.912 -20.572  0.00  0.00    +0.063 C 
ATOM     33  C   UNL     1      31.802 -11.736 -21.034  0.00  0.00    +0.155 C 
ATOM     34  C   UNL     1      30.714 -10.863 -20.576  0.00  0.00    +0.075 C 
ENDBRANCH  27  31
ENDBRANCH  24  26
ENDBRANCH  23  24
ENDBRANCH   2  23
TORSDOF 7
ENDMDL
MODEL 8
REMARK VINA RESULT:     -10.4      4.191     13.044
REMARK  Name = 32778
REMARK  7 active torsions:
REMARK  status: ('A' for Active; 'I' for Inactive)
REMARK    1  A    between atoms: C_1  and  S_7
REMARK    2  A    between atoms: C_2  and  C_23
REMARK    3  A    between atoms: S_7  and  N_12
REMARK    4  A    between atoms: N_11  and  N_16
REMARK    5  A    between atoms: C_23  and  C_24
REMARK    6  A    between atoms: C_24  and  N_26
REMARK    7  A    between atoms: C_27  and  C_31
REMARK                            x       y       z     vdW  Elec       q    Type
REMARK                         _______ _______ _______ _____ _____    ______ ____
ROOT
ATOM      1  C   UNL     1      34.073 -14.200 -23.995  0.00  0.00    +0.125 C 
ATOM      2  C   UNL     1      35.108 -16.262 -22.427  0.00  0.00    -0.020 C 
ATOM      3  C   UNL     1      34.283 -14.001 -22.631  0.00  0.00    +0.020 C 
ATOM      4  C   UNL     1      34.380 -15.431 -24.576  0.00  0.00    +0.020 C 
ATOM      5  C   UNL     1      34.801 -15.031 -21.847  0.00  0.00    -0.003 C 
ATOM      6  C   UNL     1      34.898 -16.462 -23.792  0.00  0.00    -0.003 C 
ENDROOT
BRANCH   1   7
ATOM      7  S   UNL     1      33.416 -12.893 -24.988  0.00  0.00    +0.077 S 
ATOM      8  O   UNL     1      32.281 -13.413 -25.725  0.00  0.00    -0.150 OA
ATOM      9  O   UNL     1      34.536 -12.294 -25.689  0.00  0.00    -0.150 OA
BRANCH   7  12
ATOM     10  O   UNL     1      34.306 -10.027 -24.194  0.00  0.00    -0.250 OA
ATOM     11  N   UNL     1      32.737  -9.875 -22.500  0.00  0.00    -0.230 N 
ATOM     12  N   UNL     1      32.863 -11.815 -23.783  0.00  0.00    -0.168 N 
ATOM     13  C   UNL     1      33.385 -10.506 -23.537  0.00  0.00    +0.333 C 
ATOM     14  H   UNL     1      32.006 -10.327 -22.020  0.00  0.00    +0.171 HD
ATOM     15  H   UNL     1      32.122 -12.120 -23.208  0.00  0.00    +0.178 HD
BRANCH  11  16
ATOM     16  N   UNL     1      33.127  -8.594 -22.138  0.00  0.00    -0.205 NA
ATOM     17  C   UNL     1      32.411  -5.825 -20.706  0.00  0.00    +0.002 C 
ATOM     18  C   UNL     1      32.896  -5.287 -22.046  0.00  0.00    +0.002 C 
ATOM     19  C   UNL     1      33.204  -7.009 -20.167  0.00  0.00    +0.019 C 
ATOM     20  C   UNL     1      33.364  -6.310 -23.076  0.00  0.00    +0.019 C 
ATOM     21  C   UNL     1      32.746  -8.351 -20.746  0.00  0.00    +0.092 C 
ATOM     22  C   UNL     1      32.589  -7.626 -23.100  0.00  0.00    +0.092 C 
ENDBRANCH  11  16
ENDBRANCH   7  12
ENDBRANCH   1   7
BRANCH   2  23
ATOM     23  C   UNL     1      35.662 -17.364 -21.589  0.00  0.00    +0.048 C 
BRANCH  23  24
ATOM     24  C   UNL     1      35.398 -18.763 -22.162  0.00  0.00    +0.094 C 
BRANCH  24  26
ATOM     25  O   UNL     1      36.402 -20.046 -19.838  0.00  0.00    -0.268 OA
ATOM     26  N   UNL     1      34.644 -19.590 -21.259  0.00  0.00    -0.299 N 
ATOM     27  C   UNL     1      35.216 -20.185 -20.136  0.00  0.00    +0.267 C 
ATOM     28  H   UNL     1      33.687 -19.741 -21.440  0.00  0.00    +0.150 HD
BRANCH  27  31
ATOM     29  O   UNL     1      32.463 -21.882 -18.625  0.00  0.00    -0.358 OA
ATOM     30  N   UNL     1      33.000 -20.979 -19.536  0.00  0.00    -0.073 NA
ATOM     31  C   UNL     1      34.319 -21.026 -19.332  0.00  0.00    +0.176 C 
ATOM     32  C   UNL     1      34.671 -21.932 -18.316  0.00  0.00    +0.063 C 
ATOM     33  C   UNL     1      33.468 -22.442 -17.904  0.00  0.00    +0.155 C 
ATOM     34  C   UNL     1      33.077 -23.428 -16.888  0.00  0.00    +0.075 C 
ENDBRANCH  27  31
ENDBRANCH  24  26
ENDBRANCH  23  24
ENDBRANCH   2  23
TORSDOF 7
ENDMDL
MODEL 9
REMARK VINA RESULT:     -10.3      4.943     14.048
REMARK  Name = 32778
REMARK  7 active torsions:
REMARK  status: ('A' for Active; 'I' for Inactive)
REMARK    1  A    between atoms: C_1  and  S_7
REMARK    2  A    between atoms: C_2  and  C_23
REMARK    3  A    between atoms: S_7  and  N_12
REMARK    4  A    between atoms: N_11  and  N_16
REMARK    5  A    between atoms: C_23  and  C_24
REMARK    6  A    between atoms: C_24  and  N_26
REMARK    7  A    between atoms: C_27  and  C_31
REMARK                            x       y       z     vdW  Elec       q    Type
REMARK                         _______ _______ _______ _____ _____    ______ ____
ROOT
ATOM      1  C   UNL     1      32.746 -12.147 -21.305  0.00  0.00    +0.125 C 
ATOM      2  C   UNL     1      34.304 -14.064 -22.601  0.00  0.00    -0.020 C 
ATOM      3  C   UNL     1      33.211 -13.259 -20.602  0.00  0.00    +0.020 C 
ATOM      4  C   UNL     1      33.059 -11.994 -22.656  0.00  0.00    +0.020 C 
ATOM      5  C   UNL     1      33.991 -14.217 -21.250  0.00  0.00    -0.003 C 
ATOM      6  C   UNL     1      33.839 -12.952 -23.304  0.00  0.00    -0.003 C 
ENDROOT
BRANCH   1   7
ATOM      7  S   UNL     1      31.757 -10.935 -20.483  0.00  0.00    +0.077 S 
ATOM      8  O   UNL     1      31.955 -11.082 -19.054  0.00  0.00    -0.150 OA
ATOM      9  O   UNL     1      30.425 -11.023 -21.053  0.00  0.00    -0.150 OA
BRANCH   7  12
ATOM     10  O   UNL     1      30.821  -8.701 -22.426  0.00  0.00    -0.250 OA
ATOM     11  N   UNL     1      32.771  -7.484 -22.164  0.00  0.00    -0.230 N 
ATOM     12  N   UNL     1      32.502  -9.491 -21.013  0.00  0.00    -0.168 N 
ATOM     13  C   UNL     1      31.933  -8.549 -21.927  0.00  0.00    +0.333 C 
ATOM     14  H   UNL     1      33.651  -7.435 -21.725  0.00  0.00    +0.171 HD
ATOM     15  H   UNL     1      33.400  -9.290 -20.660  0.00  0.00    +0.178 HD
BRANCH  11  16
ATOM     16  N   UNL     1      32.362  -6.481 -23.030  0.00  0.00    -0.205 NA
ATOM     17  C   UNL     1      32.919  -3.623 -24.354  0.00  0.00    +0.002 C 
ATOM     18  C   UNL     1      31.495  -3.392 -23.867  0.00  0.00    +0.002 C 
ATOM     19  C   UNL     1      33.184  -5.013 -24.920  0.00  0.00    +0.019 C 
ATOM     20  C   UNL     1      30.808  -4.551 -23.153  0.00  0.00    +0.019 C 
ATOM     21  C   UNL     1      33.503  -6.050 -23.838  0.00  0.00    +0.092 C 
ATOM     22  C   UNL     1      31.710  -5.410 -22.268  0.00  0.00    +0.092 C 
ENDBRANCH  11  16
ENDBRANCH   7  12
ENDBRANCH   1   7
BRANCH   2  23
ATOM     23  C   UNL     1      35.139 -15.088 -23.293  0.00  0.00    +0.048 C 
BRANCH  23  24
ATOM     24  C   UNL     1      34.570 -16.509 -23.198  0.00  0.00    +0.094 C 
BRANCH  24  26
ATOM     25  O   UNL     1      34.505 -19.331 -22.908  0.00  0.00    -0.268 OA
ATOM     26  N   UNL     1      35.159 -17.263 -22.125  0.00  0.00    -0.299 N 
ATOM     27  C   UNL     1      35.081 -18.653 -22.058  0.00  0.00    +0.267 C 
ATOM     28  H   UNL     1      35.636 -16.780 -21.411  0.00  0.00    +0.150 HD
BRANCH  27  31
ATOM     29  O   UNL     1      37.089 -19.519 -19.236  0.00  0.00    -0.358 OA
ATOM     30  N   UNL     1      36.754 -18.684 -20.296  0.00  0.00    -0.073 NA
ATOM     31  C   UNL     1      35.708 -19.273 -20.881  0.00  0.00    +0.176 C 
ATOM     32  C   UNL     1      35.340 -20.469 -20.241  0.00  0.00    +0.063 C 
ATOM     33  C   UNL     1      36.240 -20.579 -19.215  0.00  0.00    +0.155 C 
ATOM     34  C   UNL     1      36.453 -21.568 -18.151  0.00  0.00    +0.075 C 
ENDBRANCH  27  31
ENDBRANCH  24  26
ENDBRANCH  23  24
ENDBRANCH   2  23
TORSDOF 7
ENDMDL
