MODEL 1
REMARK VINA RESULT:     -12.0      0.000      0.000
REMARK  Name = 11712628
REMARK  7 active torsions:
REMARK  status: ('A' for Active; 'I' for Inactive)
REMARK    1  A    between atoms: C_1  and  C_10
REMARK    2  A    between atoms: C_2  and  C_16
REMARK    3  A    between atoms: C_3  and  C_14
REMARK    4  A    between atoms: C_4  and  S_25
REMARK    5  A    between atoms: C_15  and  C_24
REMARK    6  A    between atoms: S_25  and  C_26
REMARK    7  A    between atoms: C_29  and  N_32
REMARK                            x       y       z     vdW  Elec       q    Type
REMARK                         _______ _______ _______ _____ _____    ______ ____
ROOT
ATOM      1  C   UNL     1      34.231 -14.821 -22.495  0.00  0.00    +0.076 C 
ATOM      2  C   UNL     1      34.269 -14.435 -21.164  0.00  0.00    +0.004 C 
ATOM      3  C   UNL     1      34.688 -16.089 -22.855  0.00  0.00    +0.081 C 
ATOM      4  C   UNL     1      35.177 -16.957 -21.878  0.00  0.00    +0.033 C 
ATOM      5  C   UNL     1      34.753 -15.288 -20.183  0.00  0.00    +0.000 C 
ATOM      6  C   UNL     1      35.209 -16.556 -20.542  0.00  0.00    +0.006 C 
ENDROOT
BRANCH   1  10
ATOM      7  F   UNL     1      33.996 -14.298 -24.818  0.00  0.00    -0.166 F 
ATOM      8  F   UNL     1      32.351 -13.747 -23.514  0.00  0.00    -0.166 F 
ATOM      9  F   UNL     1      34.219 -12.636 -23.434  0.00  0.00    -0.166 F 
ATOM     10  C   UNL     1      33.707 -13.893 -23.549  0.00  0.00    +0.419 C 
ENDBRANCH   1  10
BRANCH   3  14
ATOM     11  F   UNL     1      34.850 -17.833 -24.484  0.00  0.00    -0.166 F 
ATOM     12  F   UNL     1      33.451 -16.228 -24.897  0.00  0.00    -0.166 F 
ATOM     13  F   UNL     1      35.590 -15.866 -25.044  0.00  0.00    -0.166 F 
ATOM     14  C   UNL     1      34.644 -16.499 -24.295  0.00  0.00    +0.419 C 
ENDBRANCH   3  14
BRANCH   2  16
ATOM     15  C   UNL     1      32.513 -12.791 -20.553  0.00  0.00    +0.058 C 
ATOM     16  C   UNL     1      33.794 -13.104 -20.748  0.00  0.00    +0.005 C 
BRANCH  15  24
ATOM     17  O   UNL     1      32.713  -8.239 -22.817  0.00  0.00    -0.350 OA
ATOM     18  O   UNL     1      31.999 -11.197 -18.949  0.00  0.00    -0.270 OA
ATOM     19  N   UNL     1      32.139 -10.433 -21.138  0.00  0.00    -0.271 N 
ATOM     20  C   UNL     1      31.678  -9.087 -20.795  0.00  0.00    +0.126 C 
ATOM     21  C   UNL     1      32.364 -10.627 -22.577  0.00  0.00    +0.126 C 
ATOM     22  C   UNL     1      32.604  -8.043 -21.405  0.00  0.00    +0.164 C 
ATOM     23  C   UNL     1      33.267  -9.523 -23.117  0.00  0.00    +0.164 C 
ATOM     24  C   UNL     1      32.196 -11.408 -20.147  0.00  0.00    +0.249 C 
ENDBRANCH  15  24
ENDBRANCH   2  16
BRANCH   4  25
ATOM     25  S   UNL     1      35.777 -18.593 -22.282  0.00  0.00    -0.087 S 
BRANCH  25  26
ATOM     26  C   UNL     1      34.928 -19.580 -21.060  0.00  0.00    +0.031 C 
ATOM     27  C   UNL     1      35.660 -20.330 -20.141  0.00  0.00    +0.021 C 
ATOM     28  C   UNL     1      33.536 -19.599 -21.029  0.00  0.00    +0.007 C 
ATOM     29  C   UNL     1      34.997 -21.100 -19.188  0.00  0.00    +0.042 C 
ATOM     30  C   UNL     1      32.871 -20.369 -20.075  0.00  0.00    +0.002 C 
ATOM     31  C   UNL     1      33.602 -21.120 -19.154  0.00  0.00    +0.014 C 
BRANCH  29  32
ATOM     32  N   UNL     1      35.734 -21.860 -18.256  0.00  0.00    -0.357 N 
ATOM     33  H   UNL     1      36.301 -22.603 -18.567  0.00  0.00    +0.142 HD
ATOM     34  H   UNL     1      35.682 -21.648 -17.296  0.00  0.00    +0.142 HD
ENDBRANCH  29  32
ENDBRANCH  25  26
ENDBRANCH   4  25
TORSDOF 7
ENDMDL
MODEL 2
REMARK VINA RESULT:     -11.4      3.204      8.164
REMARK  Name = 11712628
REMARK  7 active torsions:
REMARK  status: ('A' for Active; 'I' for Inactive)
REMARK    1  A    between atoms: C_1  and  C_10
REMARK    2  A    between atoms: C_2  and  C_16
REMARK    3  A    between atoms: C_3  and  C_14
REMARK    4  A    between atoms: C_4  and  S_25
REMARK    5  A    between atoms: C_15  and  C_24
REMARK    6  A    between atoms: S_25  and  C_26
REMARK    7  A    between atoms: C_29  and  N_32
REMARK                            x       y       z     vdW  Elec       q    Type
REMARK                         _______ _______ _______ _____ _____    ______ ____
ROOT
ATOM      1  C   UNL     1      34.433 -15.345 -23.507  0.00  0.00    +0.076 C 
ATOM      2  C   UNL     1      34.927 -15.517 -22.223  0.00  0.00    +0.004 C 
ATOM      3  C   UNL     1      33.987 -14.086 -23.908  0.00  0.00    +0.081 C 
ATOM      4  C   UNL     1      34.041 -13.012 -23.019  0.00  0.00    +0.033 C 
ATOM      5  C   UNL     1      34.985 -14.458 -21.329  0.00  0.00    +0.000 C 
ATOM      6  C   UNL     1      34.540 -13.198 -21.730  0.00  0.00    +0.006 C 
ENDROOT
BRANCH   1  10
ATOM      7  F   UNL     1      34.662 -17.696 -23.890  0.00  0.00    -0.166 F 
ATOM      8  F   UNL     1      33.150 -16.653 -25.045  0.00  0.00    -0.166 F 
ATOM      9  F   UNL     1      35.256 -16.356 -25.496  0.00  0.00    -0.166 F 
ATOM     10  C   UNL     1      34.374 -16.495 -24.467  0.00  0.00    +0.419 C 
ENDBRANCH   1  10
BRANCH   3  14
ATOM     11  F   UNL     1      33.420 -12.607 -25.700  0.00  0.00    -0.166 F 
ATOM     12  F   UNL     1      34.190 -14.560 -26.243  0.00  0.00    -0.166 F 
ATOM     13  F   UNL     1      32.183 -14.374 -25.429  0.00  0.00    -0.166 F 
ATOM     14  C   UNL     1      33.456 -13.908 -25.297  0.00  0.00    +0.419 C 
ENDBRANCH   3  14
BRANCH   2  16
ATOM     15  C   UNL     1      35.123 -17.363 -20.576  0.00  0.00    +0.058 C 
ATOM     16  C   UNL     1      35.407 -16.832 -21.766  0.00  0.00    +0.005 C 
BRANCH  15  24
ATOM     17  O   UNL     1      33.184 -21.918 -19.403  0.00  0.00    -0.350 OA
ATOM     18  O   UNL     1      36.899 -18.753 -20.037  0.00  0.00    -0.270 OA
ATOM     19  N   UNL     1      34.824 -19.779 -20.237  0.00  0.00    -0.271 N 
ATOM     20  C   UNL     1      35.373 -21.127 -20.081  0.00  0.00    +0.126 C 
ATOM     21  C   UNL     1      33.378 -19.760 -20.495  0.00  0.00    +0.126 C 
ATOM     22  C   UNL     1      34.568 -21.905 -19.048  0.00  0.00    +0.164 C 
ATOM     23  C   UNL     1      32.650 -20.591 -19.444  0.00  0.00    +0.164 C 
ATOM     24  C   UNL     1      35.689 -18.689 -20.261  0.00  0.00    +0.249 C 
ENDBRANCH  15  24
ENDBRANCH   2  16
BRANCH   4  25
ATOM     25  S   UNL     1      33.482 -11.375 -23.479  0.00  0.00    -0.087 S 
BRANCH  25  26
ATOM     26  C   UNL     1      32.563 -10.906 -22.022  0.00  0.00    +0.031 C 
ATOM     27  C   UNL     1      32.539  -9.574 -21.614  0.00  0.00    +0.021 C 
ATOM     28  C   UNL     1      31.872 -11.874 -21.296  0.00  0.00    +0.007 C 
ATOM     29  C   UNL     1      31.821  -9.209 -20.476  0.00  0.00    +0.042 C 
ATOM     30  C   UNL     1      31.153 -11.509 -20.158  0.00  0.00    +0.002 C 
ATOM     31  C   UNL     1      31.129 -10.176 -19.748  0.00  0.00    +0.014 C 
BRANCH  29  32
ATOM     32  N   UNL     1      31.795  -7.862 -20.060  0.00  0.00    -0.357 N 
ATOM     33  H   UNL     1      32.491  -7.238 -20.369  0.00  0.00    +0.142 HD
ATOM     34  H   UNL     1      31.081  -7.545 -19.460  0.00  0.00    +0.142 HD
ENDBRANCH  29  32
ENDBRANCH  25  26
ENDBRANCH   4  25
TORSDOF 7
ENDMDL
MODEL 3
REMARK VINA RESULT:     -10.8      6.196      9.149
REMARK  Name = 11712628
REMARK  7 active torsions:
REMARK  status: ('A' for Active; 'I' for Inactive)
REMARK    1  A    between atoms: C_1  and  C_10
REMARK    2  A    between atoms: C_2  and  C_16
REMARK    3  A    between atoms: C_3  and  C_14
REMARK    4  A    between atoms: C_4  and  S_25
REMARK    5  A    between atoms: C_15  and  C_24
REMARK    6  A    between atoms: S_25  and  C_26
REMARK    7  A    between atoms: C_29  and  N_32
REMARK                            x       y       z     vdW  Elec       q    Type
REMARK                         _______ _______ _______ _____ _____    ______ ____
ROOT
ATOM      1  C   UNL     1      35.438 -22.005 -17.425  0.00  0.00    +0.076 C 
ATOM      2  C   UNL     1      34.457 -21.850 -18.392  0.00  0.00    +0.004 C 
ATOM      3  C   UNL     1      35.117 -22.616 -16.213  0.00  0.00    +0.081 C 
ATOM      4  C   UNL     1      33.816 -23.066 -15.983  0.00  0.00    +0.033 C 
ATOM      5  C   UNL     1      33.160 -22.292 -18.176  0.00  0.00    +0.000 C 
ATOM      6  C   UNL     1      32.839 -22.904 -16.965  0.00  0.00    +0.006 C 
ENDROOT
BRANCH   1  10
ATOM      7  F   UNL     1      37.094 -20.307 -17.109  0.00  0.00    -0.166 F 
ATOM      8  F   UNL     1      37.790 -22.362 -17.167  0.00  0.00    -0.166 F 
ATOM      9  F   UNL     1      37.118 -21.392 -18.993  0.00  0.00    -0.166 F 
ATOM     10  C   UNL     1      36.837 -21.524 -17.667  0.00  0.00    +0.419 C 
ENDBRANCH   1  10
BRANCH   3  14
ATOM     11  F   UNL     1      36.929 -23.909 -15.338  0.00  0.00    -0.166 F 
ATOM     12  F   UNL     1      37.079 -21.754 -15.152  0.00  0.00    -0.166 F 
ATOM     13  F   UNL     1      35.671 -22.854 -13.914  0.00  0.00    -0.166 F 
ATOM     14  C   UNL     1      36.182 -22.781 -15.174  0.00  0.00    +0.419 C 
ENDBRANCH   3  14
BRANCH   2  16
ATOM     15  C   UNL     1      34.442 -19.952 -19.991  0.00  0.00    +0.058 C 
ATOM     16  C   UNL     1      34.762 -21.209 -19.683  0.00  0.00    +0.005 C 
BRANCH  15  24
ATOM     17  O   UNL     1      35.400 -15.378 -22.004  0.00  0.00    -0.350 OA
ATOM     18  O   UNL     1      34.705 -20.243 -22.276  0.00  0.00    -0.270 OA
ATOM     19  N   UNL     1      35.241 -18.140 -21.447  0.00  0.00    -0.271 N 
ATOM     20  C   UNL     1      35.755 -17.663 -22.732  0.00  0.00    +0.126 C 
ATOM     21  C   UNL     1      35.380 -17.162 -20.360  0.00  0.00    +0.126 C 
ATOM     22  C   UNL     1      35.156 -16.303 -23.066  0.00  0.00    +0.164 C 
ATOM     23  C   UNL     1      34.793 -15.821 -20.786  0.00  0.00    +0.164 C 
ATOM     24  C   UNL     1      34.807 -19.457 -21.333  0.00  0.00    +0.249 C 
ENDBRANCH  15  24
ENDBRANCH   2  16
BRANCH   4  25
ATOM     25  S   UNL     1      33.347 -23.856 -14.448  0.00  0.00    -0.087 S 
BRANCH  25  26
ATOM     26  C   UNL     1      31.569 -23.880 -14.605  0.00  0.00    +0.031 C 
ATOM     27  C   UNL     1      30.852 -25.013 -14.225  0.00  0.00    +0.021 C 
ATOM     28  C   UNL     1      30.903 -22.765 -15.108  0.00  0.00    +0.007 C 
ATOM     29  C   UNL     1      29.464 -25.030 -14.348  0.00  0.00    +0.042 C 
ATOM     30  C   UNL     1      29.513 -22.781 -15.231  0.00  0.00    +0.002 C 
ATOM     31  C   UNL     1      28.794 -23.915 -14.851  0.00  0.00    +0.014 C 
BRANCH  29  32
ATOM     32  N   UNL     1      28.735 -26.175 -13.965  0.00  0.00    -0.357 N 
ATOM     33  H   UNL     1      29.026 -27.067 -14.266  0.00  0.00    +0.142 HD
ATOM     34  H   UNL     1      27.936 -26.084 -13.397  0.00  0.00    +0.142 HD
ENDBRANCH  29  32
ENDBRANCH  25  26
ENDBRANCH   4  25
TORSDOF 7
ENDMDL
MODEL 4
REMARK VINA RESULT:     -10.7      4.712     10.364
REMARK  Name = 11712628
REMARK  7 active torsions:
REMARK  status: ('A' for Active; 'I' for Inactive)
REMARK    1  A    between atoms: C_1  and  C_10
REMARK    2  A    between atoms: C_2  and  C_16
REMARK    3  A    between atoms: C_3  and  C_14
REMARK    4  A    between atoms: C_4  and  S_25
REMARK    5  A    between atoms: C_15  and  C_24
REMARK    6  A    between atoms: S_25  and  C_26
REMARK    7  A    between atoms: C_29  and  N_32
REMARK                            x       y       z     vdW  Elec       q    Type
REMARK                         _______ _______ _______ _____ _____    ______ ____
ROOT
ATOM      1  C   UNL     1      32.364 -10.296 -21.487  0.00  0.00    +0.076 C 
ATOM      2  C   UNL     1      32.970 -10.353 -22.732  0.00  0.00    +0.004 C 
ATOM      3  C   UNL     1      32.421  -9.113 -20.750  0.00  0.00    +0.081 C 
ATOM      4  C   UNL     1      33.084  -8.000 -21.267  0.00  0.00    +0.033 C 
ATOM      5  C   UNL     1      33.633  -9.254 -23.259  0.00  0.00    +0.000 C 
ATOM      6  C   UNL     1      33.689  -8.071 -22.522  0.00  0.00    +0.006 C 
ENDROOT
BRANCH   1  10
ATOM      7  F   UNL     1      31.773 -12.605 -21.697  0.00  0.00    -0.166 F 
ATOM      8  F   UNL     1      32.092 -11.850 -19.688  0.00  0.00    -0.166 F 
ATOM      9  F   UNL     1      30.310 -11.274 -20.794  0.00  0.00    -0.166 F 
ATOM     10  C   UNL     1      31.650 -11.488 -20.926  0.00  0.00    +0.419 C 
ENDBRANCH   1  10
BRANCH   3  14
ATOM     11  F   UNL     1      31.467  -7.792 -18.999  0.00  0.00    -0.166 F 
ATOM     12  F   UNL     1      30.583  -9.741 -19.354  0.00  0.00    -0.166 F 
ATOM     13  F   UNL     1      32.542  -9.592 -18.424  0.00  0.00    -0.166 F 
ATOM     14  C   UNL     1      31.762  -9.059 -19.405  0.00  0.00    +0.419 C 
ENDBRANCH   3  14
BRANCH   2  16
ATOM     15  C   UNL     1      34.006 -12.186 -24.046  0.00  0.00    +0.058 C 
ATOM     16  C   UNL     1      32.930 -11.585 -23.538  0.00  0.00    +0.005 C 
BRANCH  15  24
ATOM     17  O   UNL     1      34.762 -17.157 -23.267  0.00  0.00    -0.350 OA
ATOM     18  O   UNL     1      33.559 -13.275 -26.043  0.00  0.00    -0.270 OA
ATOM     19  N   UNL     1      33.891 -14.637 -24.191  0.00  0.00    -0.271 N 
ATOM     20  C   UNL     1      33.542 -15.861 -24.913  0.00  0.00    +0.126 C 
ATOM     21  C   UNL     1      34.175 -14.857 -22.766  0.00  0.00    +0.126 C 
ATOM     22  C   UNL     1      34.595 -16.934 -24.669  0.00  0.00    +0.164 C 
ATOM     23  C   UNL     1      35.207 -15.968 -22.606  0.00  0.00    +0.164 C 
ATOM     24  C   UNL     1      33.801 -13.411 -24.843  0.00  0.00    +0.249 C 
ENDBRANCH  15  24
ENDBRANCH   2  16
BRANCH   4  25
ATOM     25  S   UNL     1      33.189  -6.458 -20.366  0.00  0.00    -0.087 S 
BRANCH  25  26
ATOM     26  C   UNL     1      32.225  -5.382 -21.414  0.00  0.00    +0.031 C 
ATOM     27  C   UNL     1      32.191  -4.012 -21.160  0.00  0.00    +0.021 C 
ATOM     28  C   UNL     1      31.509  -5.915 -22.483  0.00  0.00    +0.007 C 
ATOM     29  C   UNL     1      31.437  -3.173 -21.980  0.00  0.00    +0.042 C 
ATOM     30  C   UNL     1      30.755  -5.076 -23.303  0.00  0.00    +0.002 C 
ATOM     31  C   UNL     1      30.719  -3.704 -23.051  0.00  0.00    +0.014 C 
BRANCH  29  32
ATOM     32  N   UNL     1      31.400  -1.786 -21.726  0.00  0.00    -0.357 N 
ATOM     33  H   UNL     1      32.118  -1.204 -22.066  0.00  0.00    +0.142 HD
ATOM     34  H   UNL     1      30.657  -1.399 -21.209  0.00  0.00    +0.142 HD
ENDBRANCH  29  32
ENDBRANCH  25  26
ENDBRANCH   4  25
TORSDOF 7
ENDMDL
MODEL 5
REMARK VINA RESULT:     -10.6      7.758     11.034
REMARK  Name = 11712628
REMARK  7 active torsions:
REMARK  status: ('A' for Active; 'I' for Inactive)
REMARK    1  A    between atoms: C_1  and  C_10
REMARK    2  A    between atoms: C_2  and  C_16
REMARK    3  A    between atoms: C_3  and  C_14
REMARK    4  A    between atoms: C_4  and  S_25
REMARK    5  A    between atoms: C_15  and  C_24
REMARK    6  A    between atoms: S_25  and  C_26
REMARK    7  A    between atoms: C_29  and  N_32
REMARK                            x       y       z     vdW  Elec       q    Type
REMARK                         _______ _______ _______ _____ _____    ______ ____
ROOT
ATOM      1  C   UNL     1      32.225 -23.222 -15.538  0.00  0.00    +0.076 C 
ATOM      2  C   UNL     1      33.289 -22.844 -16.342  0.00  0.00    +0.004 C 
ATOM      3  C   UNL     1      32.476 -23.866 -14.326  0.00  0.00    +0.081 C 
ATOM      4  C   UNL     1      33.790 -24.125 -13.933  0.00  0.00    +0.033 C 
ATOM      5  C   UNL     1      34.600 -23.095 -15.964  0.00  0.00    +0.000 C 
ATOM      6  C   UNL     1      34.851 -23.739 -14.752  0.00  0.00    +0.006 C 
ENDROOT
BRANCH   1  10
ATOM      7  F   UNL     1      30.107 -24.074 -16.255  0.00  0.00    -0.166 F 
ATOM      8  F   UNL     1      30.082 -22.307 -14.996  0.00  0.00    -0.166 F 
ATOM      9  F   UNL     1      30.743 -22.158 -17.063  0.00  0.00    -0.166 F 
ATOM     10  C   UNL     1      30.812 -22.947 -15.954  0.00  0.00    +0.419 C 
ENDBRANCH   1  10
BRANCH   3  14
ATOM     11  F   UNL     1      30.286 -24.813 -14.162  0.00  0.00    -0.166 F 
ATOM     12  F   UNL     1      31.651 -25.203 -12.523  0.00  0.00    -0.166 F 
ATOM     13  F   UNL     1      30.796 -23.220 -12.773  0.00  0.00    -0.166 F 
ATOM     14  C   UNL     1      31.322 -24.271 -13.462  0.00  0.00    +0.419 C 
ENDBRANCH   3  14
BRANCH   2  16
ATOM     15  C   UNL     1      34.023 -21.610 -18.366  0.00  0.00    +0.058 C 
ATOM     16  C   UNL     1      33.060 -22.162 -17.628  0.00  0.00    +0.005 C 
BRANCH  15  24
ATOM     17  O   UNL     1      36.314 -18.470 -21.649  0.00  0.00    -0.350 OA
ATOM     18  O   UNL     1      32.439 -20.975 -19.936  0.00  0.00    -0.270 OA
ATOM     19  N   UNL     1      34.631 -20.351 -20.388  0.00  0.00    -0.271 N 
ATOM     20  C   UNL     1      34.306 -19.826 -21.714  0.00  0.00    +0.126 C 
ATOM     21  C   UNL     1      36.064 -20.294 -20.070  0.00  0.00    +0.126 C 
ATOM     22  C   UNL     1      34.905 -18.437 -21.892  0.00  0.00    +0.164 C 
ATOM     23  C   UNL     1      36.596 -18.885 -20.309  0.00  0.00    +0.164 C 
ATOM     24  C   UNL     1      33.632 -20.952 -19.628  0.00  0.00    +0.249 C 
ENDBRANCH  15  24
ENDBRANCH   2  16
BRANCH   4  25
ATOM     25  S   UNL     1      34.171 -24.949 -12.391  0.00  0.00    -0.087 S 
BRANCH  25  26
ATOM     26  C   UNL     1      35.897 -24.538 -12.202  0.00  0.00    +0.031 C 
ATOM     27  C   UNL     1      36.876 -25.415 -12.666  0.00  0.00    +0.021 C 
ATOM     28  C   UNL     1      36.263 -23.342 -11.588  0.00  0.00    +0.007 C 
ATOM     29  C   UNL     1      38.224 -25.094 -12.517  0.00  0.00    +0.042 C 
ATOM     30  C   UNL     1      37.612 -23.020 -11.439  0.00  0.00    +0.002 C 
ATOM     31  C   UNL     1      38.593 -23.897 -11.904  0.00  0.00    +0.014 C 
BRANCH  29  32
ATOM     32  N   UNL     1      39.217 -25.979 -12.986  0.00  0.00    -0.357 N 
ATOM     33  H   UNL     1      40.089 -25.628 -13.280  0.00  0.00    +0.142 HD
ATOM     34  H   UNL     1      39.039 -26.946 -13.020  0.00  0.00    +0.142 HD
ENDBRANCH  29  32
ENDBRANCH  25  26
ENDBRANCH   4  25
TORSDOF 7
ENDMDL
MODEL 6
REMARK VINA RESULT:     -10.6      5.140      9.683
REMARK  Name = 11712628
REMARK  7 active torsions:
REMARK  status: ('A' for Active; 'I' for Inactive)
REMARK    1  A    between atoms: C_1  and  C_10
REMARK    2  A    between atoms: C_2  and  C_16
REMARK    3  A    between atoms: C_3  and  C_14
REMARK    4  A    between atoms: C_4  and  S_25
REMARK    5  A    between atoms: C_15  and  C_24
REMARK    6  A    between atoms: S_25  and  C_26
REMARK    7  A    between atoms: C_29  and  N_32
REMARK                            x       y       z     vdW  Elec       q    Type
REMARK                         _______ _______ _______ _____ _____    ______ ____
ROOT
ATOM      1  C   UNL     1      35.308 -20.616 -19.501  0.00  0.00    +0.076 C 
ATOM      2  C   UNL     1      34.019 -21.075 -19.278  0.00  0.00    +0.004 C 
ATOM      3  C   UNL     1      35.550 -19.740 -20.560  0.00  0.00    +0.081 C 
ATOM      4  C   UNL     1      34.499 -19.333 -21.383  0.00  0.00    +0.033 C 
ATOM      5  C   UNL     1      32.965 -20.679 -20.088  0.00  0.00    +0.000 C 
ATOM      6  C   UNL     1      33.207 -19.803 -21.146  0.00  0.00    +0.006 C 
ENDROOT
BRANCH   1  10
ATOM      7  F   UNL     1      37.186 -20.008 -18.149  0.00  0.00    -0.166 F 
ATOM      8  F   UNL     1      36.034 -21.734 -17.515  0.00  0.00    -0.166 F 
ATOM      9  F   UNL     1      37.315 -21.869 -19.267  0.00  0.00    -0.166 F 
ATOM     10  C   UNL     1      36.441 -21.048 -18.621  0.00  0.00    +0.419 C 
ENDBRANCH   1  10
BRANCH   3  14
ATOM     11  F   UNL     1      37.900 -20.186 -20.539  0.00  0.00    -0.166 F 
ATOM     12  F   UNL     1      37.166 -18.846 -22.078  0.00  0.00    -0.166 F 
ATOM     13  F   UNL     1      37.256 -18.177 -20.012  0.00  0.00    -0.166 F 
ATOM     14  C   UNL     1      36.945 -19.247 -20.795  0.00  0.00    +0.419 C 
ENDBRANCH   3  14
BRANCH   2  16
ATOM     15  C   UNL     1      32.537 -22.112 -17.578  0.00  0.00    +0.058 C 
ATOM     16  C   UNL     1      33.727 -22.000 -18.169  0.00  0.00    +0.005 C 
BRANCH  15  24
ATOM     17  O   UNL     1      28.758 -23.569 -14.499  0.00  0.00    -0.350 OA
ATOM     18  O   UNL     1      33.443 -23.558 -16.008  0.00  0.00    -0.270 OA
ATOM     19  N   UNL     1      31.126 -23.389 -16.023  0.00  0.00    -0.271 N 
ATOM     20  C   UNL     1      30.949 -24.455 -15.036  0.00  0.00    +0.126 C 
ATOM     21  C   UNL     1      29.859 -22.851 -16.538  0.00  0.00    +0.126 C 
ATOM     22  C   UNL     1      29.999 -24.001 -13.936  0.00  0.00    +0.164 C 
ATOM     23  C   UNL     1      28.951 -22.456 -15.378  0.00  0.00    +0.164 C 
ATOM     24  C   UNL     1      32.406 -23.079 -16.471  0.00  0.00    +0.249 C 
ENDBRANCH  15  24
ENDBRANCH   2  16
BRANCH   4  25
ATOM     25  S   UNL     1      34.751 -18.213 -22.755  0.00  0.00    -0.087 S 
BRANCH  25  26
ATOM     26  C   UNL     1      34.733 -16.637 -21.918  0.00  0.00    +0.031 C 
ATOM     27  C   UNL     1      34.655 -15.458 -22.657  0.00  0.00    +0.021 C 
ATOM     28  C   UNL     1      34.799 -16.590 -20.527  0.00  0.00    +0.007 C 
ATOM     29  C   UNL     1      34.641 -14.228 -22.002  0.00  0.00    +0.042 C 
ATOM     30  C   UNL     1      34.785 -15.358 -19.872  0.00  0.00    +0.002 C 
ATOM     31  C   UNL     1      34.706 -14.177 -20.610  0.00  0.00    +0.014 C 
BRANCH  29  32
ATOM     32  N   UNL     1      34.561 -13.032 -22.747  0.00  0.00    -0.357 N 
ATOM     33  H   UNL     1      33.687 -12.707 -23.062  0.00  0.00    +0.142 HD
ATOM     34  H   UNL     1      35.379 -12.523 -22.951  0.00  0.00    +0.142 HD
ENDBRANCH  29  32
ENDBRANCH  25  26
ENDBRANCH   4  25
TORSDOF 7
ENDMDL
MODEL 7
REMARK VINA RESULT:     -10.5      6.398      9.281
REMARK  Name = 11712628
REMARK  7 active torsions:
REMARK  status: ('A' for Active; 'I' for Inactive)
REMARK    1  A    between atoms: C_1  and  C_10
REMARK    2  A    between atoms: C_2  and  C_16
REMARK    3  A    between atoms: C_3  and  C_14
REMARK    4  A    between atoms: C_4  and  S_25
REMARK    5  A    between atoms: C_15  and  C_24
REMARK    6  A    between atoms: S_25  and  C_26
REMARK    7  A    between atoms: C_29  and  N_32
REMARK                            x       y       z     vdW  Elec       q    Type
REMARK                         _______ _______ _______ _____ _____    ______ ____
ROOT
ATOM      1  C   UNL     1      34.770 -22.231 -17.436  0.00  0.00    +0.076 C 
ATOM      2  C   UNL     1      35.790 -21.550 -18.083  0.00  0.00    +0.004 C 
ATOM      3  C   UNL     1      34.952 -22.647 -16.117  0.00  0.00    +0.081 C 
ATOM      4  C   UNL     1      36.153 -22.377 -15.460  0.00  0.00    +0.033 C 
ATOM      5  C   UNL     1      36.989 -21.275 -17.442  0.00  0.00    +0.000 C 
ATOM      6  C   UNL     1      37.171 -21.691 -16.123  0.00  0.00    +0.006 C 
ENDROOT
BRANCH   1  10
ATOM      7  F   UNL     1      33.545 -22.361 -19.488  0.00  0.00    -0.166 F 
ATOM      8  F   UNL     1      33.037 -23.800 -17.945  0.00  0.00    -0.166 F 
ATOM      9  F   UNL     1      32.466 -21.714 -17.715  0.00  0.00    -0.166 F 
ATOM     10  C   UNL     1      33.478 -22.524 -18.136  0.00  0.00    +0.419 C 
ENDBRANCH   1  10
BRANCH   3  14
ATOM     11  F   UNL     1      33.983 -23.412 -14.069  0.00  0.00    -0.166 F 
ATOM     12  F   UNL     1      32.615 -22.842 -15.652  0.00  0.00    -0.166 F 
ATOM     13  F   UNL     1      33.759 -24.682 -15.819  0.00  0.00    -0.166 F 
ATOM     14  C   UNL     1      33.846 -23.382 -15.424  0.00  0.00    +0.419 C 
ENDBRANCH   3  14
BRANCH   2  16
ATOM     15  C   UNL     1      35.320 -19.848 -19.827  0.00  0.00    +0.058 C 
ATOM     16  C   UNL     1      35.631 -21.096 -19.475  0.00  0.00    +0.005 C 
BRANCH  15  24
ATOM     17  O   UNL     1      35.109 -15.602 -22.622  0.00  0.00    -0.350 OA
ATOM     18  O   UNL     1      34.874 -20.480 -22.013  0.00  0.00    -0.270 OA
ATOM     19  N   UNL     1      35.423 -18.246 -21.688  0.00  0.00    -0.271 N 
ATOM     20  C   UNL     1      35.451 -17.949 -23.121  0.00  0.00    +0.126 C 
ATOM     21  C   UNL     1      35.798 -17.103 -20.845  0.00  0.00    +0.126 C 
ATOM     22  C   UNL     1      34.639 -16.694 -23.414  0.00  0.00    +0.164 C 
ATOM     23  C   UNL     1      34.970 -15.880 -21.225  0.00  0.00    +0.164 C 
ATOM     24  C   UNL     1      35.187 -19.551 -21.266  0.00  0.00    +0.249 C 
ENDBRANCH  15  24
ENDBRANCH   2  16
BRANCH   4  25
ATOM     25  S   UNL     1      36.442 -22.888 -13.770  0.00  0.00    -0.087 S 
BRANCH  25  26
ATOM     26  C   UNL     1      37.157 -24.504 -14.019  0.00  0.00    +0.031 C 
ATOM     27  C   UNL     1      38.523 -24.699 -13.821  0.00  0.00    +0.021 C 
ATOM     28  C   UNL     1      36.347 -25.568 -14.412  0.00  0.00    +0.007 C 
ATOM     29  C   UNL     1      39.080 -25.962 -14.016  0.00  0.00    +0.042 C 
ATOM     30  C   UNL     1      36.905 -26.832 -14.607  0.00  0.00    +0.002 C 
ATOM     31  C   UNL     1      38.272 -27.028 -14.409  0.00  0.00    +0.014 C 
BRANCH  29  32
ATOM     32  N   UNL     1      40.462 -26.163 -13.816  0.00  0.00    -0.357 N 
ATOM     33  H   UNL     1      41.038 -25.403 -13.569  0.00  0.00    +0.142 HD
ATOM     34  H   UNL     1      40.850 -27.061 -13.923  0.00  0.00    +0.142 HD
ENDBRANCH  29  32
ENDBRANCH  25  26
ENDBRANCH   4  25
TORSDOF 7
ENDMDL
MODEL 8
REMARK VINA RESULT:     -10.4      4.607     10.219
REMARK  Name = 11712628
REMARK  7 active torsions:
REMARK  status: ('A' for Active; 'I' for Inactive)
REMARK    1  A    between atoms: C_1  and  C_10
REMARK    2  A    between atoms: C_2  and  C_16
REMARK    3  A    between atoms: C_3  and  C_14
REMARK    4  A    between atoms: C_4  and  S_25
REMARK    5  A    between atoms: C_15  and  C_24
REMARK    6  A    between atoms: S_25  and  C_26
REMARK    7  A    between atoms: C_29  and  N_32
REMARK                            x       y       z     vdW  Elec       q    Type
REMARK                         _______ _______ _______ _____ _____    ______ ____
ROOT
ATOM      1  C   UNL     1      32.360 -10.518 -21.456  0.00  0.00    +0.076 C 
ATOM      2  C   UNL     1      32.892 -10.630 -22.731  0.00  0.00    +0.004 C 
ATOM      3  C   UNL     1      32.401  -9.287 -20.801  0.00  0.00    +0.081 C 
ATOM      4  C   UNL     1      32.974  -8.181 -21.430  0.00  0.00    +0.033 C 
ATOM      5  C   UNL     1      33.466  -9.540 -23.368  0.00  0.00    +0.000 C 
ATOM      6  C   UNL     1      33.507  -8.308 -22.714  0.00  0.00    +0.006 C 
ENDROOT
BRANCH   1  10
ATOM      7  F   UNL     1      31.824 -12.850 -21.505  0.00  0.00    -0.166 F 
ATOM      8  F   UNL     1      32.314 -11.993 -19.573  0.00  0.00    -0.166 F 
ATOM      9  F   UNL     1      30.415 -11.518 -20.521  0.00  0.00    -0.166 F 
ATOM     10  C   UNL     1      31.741 -11.701 -20.775  0.00  0.00    +0.419 C 
ENDBRANCH   1  10
BRANCH   3  14
ATOM     11  F   UNL     1      32.641  -9.666 -18.452  0.00  0.00    -0.166 F 
ATOM     12  F   UNL     1      31.555  -7.888 -19.056  0.00  0.00    -0.166 F 
ATOM     13  F   UNL     1      30.646  -9.848 -19.298  0.00  0.00    -0.166 F 
ATOM     14  C   UNL     1      31.822  -9.173 -19.424  0.00  0.00    +0.419 C 
ENDBRANCH   3  14
BRANCH   2  16
ATOM     15  C   UNL     1      33.946 -12.524 -23.940  0.00  0.00    +0.058 C 
ATOM     16  C   UNL     1      32.866 -11.915 -23.452  0.00  0.00    +0.005 C 
BRANCH  15  24
ATOM     17  O   UNL     1      34.906 -17.406 -22.878  0.00  0.00    -0.350 OA
ATOM     18  O   UNL     1      33.464 -13.754 -25.845  0.00  0.00    -0.270 OA
ATOM     19  N   UNL     1      33.912 -14.982 -23.924  0.00  0.00    -0.271 N 
ATOM     20  C   UNL     1      33.580 -16.261 -24.553  0.00  0.00    +0.126 C 
ATOM     21  C   UNL     1      34.257 -15.100 -22.501  0.00  0.00    +0.126 C 
ATOM     22  C   UNL     1      34.679 -17.280 -24.284  0.00  0.00    +0.164 C 
ATOM     23  C   UNL     1      35.332 -16.164 -22.311  0.00  0.00    +0.164 C 
ATOM     24  C   UNL     1      33.754 -13.804 -24.649  0.00  0.00    +0.249 C 
ENDBRANCH  15  24
ENDBRANCH   2  16
BRANCH   4  25
ATOM     25  S   UNL     1      33.056  -6.579 -20.639  0.00  0.00    -0.087 S 
BRANCH  25  26
ATOM     26  C   UNL     1      32.383  -5.531 -21.917  0.00  0.00    +0.031 C 
ATOM     27  C   UNL     1      33.193  -5.111 -22.970  0.00  0.00    +0.021 C 
ATOM     28  C   UNL     1      31.048  -5.135 -21.857  0.00  0.00    +0.007 C 
ATOM     29  C   UNL     1      32.666  -4.292 -23.968  0.00  0.00    +0.042 C 
ATOM     30  C   UNL     1      30.521  -4.315 -22.856  0.00  0.00    +0.002 C 
ATOM     31  C   UNL     1      31.330  -3.894 -23.911  0.00  0.00    +0.014 C 
BRANCH  29  32
ATOM     32  N   UNL     1      33.483  -3.865 -25.035  0.00  0.00    -0.357 N 
ATOM     33  H   UNL     1      34.306  -3.356 -24.851  0.00  0.00    +0.142 HD
ATOM     34  H   UNL     1      33.230  -4.074 -25.963  0.00  0.00    +0.142 HD
ENDBRANCH  29  32
ENDBRANCH  25  26
ENDBRANCH   4  25
TORSDOF 7
ENDMDL
MODEL 9
REMARK VINA RESULT:     -10.3      5.120      9.951
REMARK  Name = 11712628
REMARK  7 active torsions:
REMARK  status: ('A' for Active; 'I' for Inactive)
REMARK    1  A    between atoms: C_1  and  C_10
REMARK    2  A    between atoms: C_2  and  C_16
REMARK    3  A    between atoms: C_3  and  C_14
REMARK    4  A    between atoms: C_4  and  S_25
REMARK    5  A    between atoms: C_15  and  C_24
REMARK    6  A    between atoms: S_25  and  C_26
REMARK    7  A    between atoms: C_29  and  N_32
REMARK                            x       y       z     vdW  Elec       q    Type
REMARK                         _______ _______ _______ _____ _____    ______ ____
ROOT
ATOM      1  C   UNL     1      34.891 -20.835 -19.423  0.00  0.00    +0.076 C 
ATOM      2  C   UNL     1      36.203 -20.961 -18.992  0.00  0.00    +0.004 C 
ATOM      3  C   UNL     1      34.600 -19.998 -20.500  0.00  0.00    +0.081 C 
ATOM      4  C   UNL     1      35.626 -19.296 -21.134  0.00  0.00    +0.033 C 
ATOM      5  C   UNL     1      37.232 -20.268 -19.612  0.00  0.00    +0.000 C 
ATOM      6  C   UNL     1      36.942 -19.432 -20.690  0.00  0.00    +0.006 C 
ENDROOT
BRANCH   1  10
ATOM      7  F   UNL     1      34.109 -22.011 -17.491  0.00  0.00    -0.166 F 
ATOM      8  F   UNL     1      32.645 -20.854 -18.600  0.00  0.00    -0.166 F 
ATOM      9  F   UNL     1      33.423 -22.705 -19.434  0.00  0.00    -0.166 F 
ATOM     10  C   UNL     1      33.785 -21.587 -18.746  0.00  0.00    +0.419 C 
ENDBRANCH   1  10
BRANCH   3  14
ATOM     11  F   UNL     1      32.474 -21.029 -20.867  0.00  0.00    -0.166 F 
ATOM     12  F   UNL     1      32.465 -18.950 -20.251  0.00  0.00    -0.166 F 
ATOM     13  F   UNL     1      33.092 -19.482 -22.264  0.00  0.00    -0.166 F 
ATOM     14  C   UNL     1      33.181 -19.868 -20.960  0.00  0.00    +0.419 C 
ENDBRANCH   3  14
BRANCH   2  16
ATOM     15  C   UNL     1      36.850 -21.397 -16.635  0.00  0.00    +0.058 C 
ATOM     16  C   UNL     1      36.546 -21.836 -17.857  0.00  0.00    +0.005 C 
BRANCH  15  24
ATOM     17  O   UNL     1      34.171 -24.196 -13.337  0.00  0.00    -0.350 OA
ATOM     18  O   UNL     1      38.367 -22.517 -15.286  0.00  0.00    -0.270 OA
ATOM     19  N   UNL     1      36.143 -23.149 -15.063  0.00  0.00    -0.271 N 
ATOM     20  C   UNL     1      36.452 -24.255 -14.156  0.00  0.00    +0.126 C 
ATOM     21  C   UNL     1      34.717 -23.053 -15.406  0.00  0.00    +0.126 C 
ATOM     22  C   UNL     1      35.543 -24.204 -12.935  0.00  0.00    +0.164 C 
ATOM     23  C   UNL     1      33.875 -23.046 -14.135  0.00  0.00    +0.164 C 
ATOM     24  C   UNL     1      37.182 -22.400 -15.606  0.00  0.00    +0.249 C 
ENDBRANCH  15  24
ENDBRANCH   2  16
BRANCH   4  25
ATOM     25  S   UNL     1      35.311 -18.208 -22.519  0.00  0.00    -0.087 S 
BRANCH  25  26
ATOM     26  C   UNL     1      35.061 -16.652 -21.682  0.00  0.00    +0.031 C 
ATOM     27  C   UNL     1      34.894 -15.483 -22.422  0.00  0.00    +0.021 C 
ATOM     28  C   UNL     1      35.036 -16.609 -20.290  0.00  0.00    +0.007 C 
ATOM     29  C   UNL     1      34.700 -14.268 -21.767  0.00  0.00    +0.042 C 
ATOM     30  C   UNL     1      34.841 -15.394 -19.634  0.00  0.00    +0.002 C 
ATOM     31  C   UNL     1      34.673 -14.223 -20.373  0.00  0.00    +0.014 C 
BRANCH  29  32
ATOM     32  N   UNL     1      34.530 -13.083 -22.513  0.00  0.00    -0.357 N 
ATOM     33  H   UNL     1      35.318 -12.593 -22.844  0.00  0.00    +0.142 HD
ATOM     34  H   UNL     1      33.625 -12.745 -22.703  0.00  0.00    +0.142 HD
ENDBRANCH  29  32
ENDBRANCH  25  26
ENDBRANCH   4  25
TORSDOF 7
ENDMDL
