MODEL 1
REMARK VINA RESULT:     -11.6      0.000      0.000
REMARK  Name = 4369491
REMARK  2 active torsions:
REMARK  status: ('A' for Active; 'I' for Inactive)
REMARK    1  A    between atoms: C_10  and  C_21
REMARK    2  A    between atoms: C_17  and  O_27
REMARK                            x       y       z     vdW  Elec       q    Type
REMARK                         _______ _______ _______ _____ _____    ______ ____
ROOT
ATOM      1  O   UNL     1      33.717 -16.438 -25.759  0.00  0.00    -0.270 OA
ATOM      2  O   UNL     1      34.888 -20.138 -23.288  0.00  0.00    -0.270 OA
ATOM      3  N   UNL     1      34.723 -14.040 -21.177  0.00  0.00    -0.353 N 
ATOM      4  N   UNL     1      34.245 -18.507 -24.827  0.00  0.00    -0.248 N 
ATOM      5  C   UNL     1      34.401 -15.413 -22.912  0.00  0.00    +0.022 A 
ATOM      6  C   UNL     1      34.399 -16.692 -23.484  0.00  0.00    +0.060 C 
ATOM      7  C   UNL     1      34.779 -15.357 -21.561  0.00  0.00    +0.057 A 
ATOM      8  C   UNL     1      34.113 -14.070 -23.326  0.00  0.00    +0.020 A 
ATOM      9  C   UNL     1      34.753 -17.816 -22.740  0.00  0.00    +0.058 C 
ATOM     10  C   UNL     1      35.123 -17.750 -21.415  0.00  0.00    +0.006 C 
ATOM     11  C   UNL     1      34.324 -13.241 -22.221  0.00  0.00    +0.057 A 
ATOM     12  C   UNL     1      35.139 -16.494 -20.803  0.00  0.00    +0.017 C 
ATOM     13  C   UNL     1      34.070 -17.143 -24.835  0.00  0.00    +0.252 C 
ATOM     14  C   UNL     1      34.653 -18.989 -23.607  0.00  0.00    +0.252 C 
ATOM     15  C   UNL     1      33.690 -13.463 -24.530  0.00  0.00    +0.038 C 
ATOM     16  C   UNL     1      34.136 -11.853 -22.258  0.00  0.00    +0.020 C 
ATOM     17  C   UNL     1      33.499 -12.076 -24.583  0.00  0.00    +0.134 C 
ATOM     18  C   UNL     1      33.720 -11.284 -23.462  0.00  0.00    +0.038 C 
ATOM     19  H   UNL     1      34.940 -13.711 -20.275  0.00  0.00    +0.166 HD
ATOM     20  H   UNL     1      34.093 -19.079 -25.613  0.00  0.00    +0.158 HD
ENDROOT
BRANCH  10  21
ATOM     21  C   UNL     1      35.489 -18.917 -20.646  0.00  0.00    +0.000 C 
ATOM     22  C   UNL     1      36.829 -19.165 -20.347  0.00  0.00    +0.000 C 
ATOM     23  C   UNL     1      34.502 -19.798 -20.200  0.00  0.00    +0.000 C 
ATOM     24  C   UNL     1      37.183 -20.292 -19.605  0.00  0.00    +0.000 C 
ATOM     25  C   UNL     1      34.856 -20.924 -19.457  0.00  0.00    +0.000 C 
ATOM     26  C   UNL     1      36.196 -21.171 -19.160  0.00  0.00    +0.000 C 
ENDBRANCH  10  21
BRANCH  17  27
ATOM     27  O   UNL     1      33.092 -11.499 -25.749  0.00  0.00    -0.506 OA
ATOM     28  H   UNL     1      33.409 -10.651 -25.987  0.00  0.00    +0.292 HD
ENDBRANCH  17  27
TORSDOF 2
ENDMDL
MODEL 2
REMARK VINA RESULT:     -11.2      5.774      9.192
REMARK  Name = 4369491
REMARK  2 active torsions:
REMARK  status: ('A' for Active; 'I' for Inactive)
REMARK    1  A    between atoms: C_10  and  C_21
REMARK    2  A    between atoms: C_17  and  O_27
REMARK                            x       y       z     vdW  Elec       q    Type
REMARK                         _______ _______ _______ _____ _____    ______ ____
ROOT
ATOM      1  O   UNL     1      31.739 -22.777 -16.817  0.00  0.00    -0.270 OA
ATOM      2  O   UNL     1      34.140 -24.666 -13.376  0.00  0.00    -0.270 OA
ATOM      3  N   UNL     1      36.564 -21.267 -18.300  0.00  0.00    -0.353 N 
ATOM      4  N   UNL     1      32.618 -23.855 -14.948  0.00  0.00    -0.248 N 
ATOM      5  C   UNL     1      34.719 -22.091 -17.343  0.00  0.00    +0.022 A 
ATOM      6  C   UNL     1      34.077 -22.810 -16.327  0.00  0.00    +0.060 C 
ATOM      7  C   UNL     1      36.115 -21.998 -17.228  0.00  0.00    +0.057 A 
ATOM      8  C   UNL     1      34.345 -21.382 -18.534  0.00  0.00    +0.020 A 
ATOM      9  C   UNL     1      34.799 -23.384 -15.282  0.00  0.00    +0.058 C 
ATOM     10  C   UNL     1      36.169 -23.287 -15.179  0.00  0.00    +0.006 C 
ATOM     11  C   UNL     1      35.519 -20.882 -19.104  0.00  0.00    +0.057 A 
ATOM     12  C   UNL     1      36.851 -22.579 -16.171  0.00  0.00    +0.017 C 
ATOM     13  C   UNL     1      32.665 -23.117 -16.107  0.00  0.00    +0.252 C 
ATOM     14  C   UNL     1      33.857 -24.059 -14.391  0.00  0.00    +0.252 C 
ATOM     15  C   UNL     1      33.127 -21.107 -19.194  0.00  0.00    +0.038 C 
ATOM     16  C   UNL     1      35.536 -20.131 -20.286  0.00  0.00    +0.020 C 
ATOM     17  C   UNL     1      33.127 -20.358 -20.377  0.00  0.00    +0.134 C 
ATOM     18  C   UNL     1      34.316 -19.878 -20.915  0.00  0.00    +0.038 C 
ATOM     19  H   UNL     1      37.508 -21.049 -18.471  0.00  0.00    +0.166 HD
ATOM     20  H   UNL     1      31.784 -24.201 -14.557  0.00  0.00    +0.158 HD
ENDROOT
BRANCH  10  21
ATOM     21  C   UNL     1      36.916 -23.883 -14.094  0.00  0.00    +0.000 C 
ATOM     22  C   UNL     1      37.118 -23.172 -12.910  0.00  0.00    +0.000 C 
ATOM     23  C   UNL     1      37.436 -25.171 -14.229  0.00  0.00    +0.000 C 
ATOM     24  C   UNL     1      37.838 -23.747 -11.864  0.00  0.00    +0.000 C 
ATOM     25  C   UNL     1      38.156 -25.747 -13.182  0.00  0.00    +0.000 C 
ATOM     26  C   UNL     1      38.358 -25.034 -12.000  0.00  0.00    +0.000 C 
ENDBRANCH  10  21
BRANCH  17  27
ATOM     27  O   UNL     1      31.947 -20.098 -21.008  0.00  0.00    -0.506 OA
ATOM     28  H   UNL     1      31.139 -20.180 -20.542  0.00  0.00    +0.292 HD
ENDBRANCH  17  27
TORSDOF 2
ENDMDL
MODEL 3
REMARK VINA RESULT:     -11.0      9.141     12.360
REMARK  Name = 4369491
REMARK  2 active torsions:
REMARK  status: ('A' for Active; 'I' for Inactive)
REMARK    1  A    between atoms: C_10  and  C_21
REMARK    2  A    between atoms: C_17  and  O_27
REMARK                            x       y       z     vdW  Elec       q    Type
REMARK                         _______ _______ _______ _____ _____    ______ ____
ROOT
ATOM      1  O   UNL     1      36.187 -22.906 -16.648  0.00  0.00    -0.270 OA
ATOM      2  O   UNL     1      31.690 -22.399 -17.475  0.00  0.00    -0.270 OA
ATOM      3  N   UNL     1      34.328 -24.853 -12.118  0.00  0.00    -0.353 N 
ATOM      4  N   UNL     1      34.019 -22.506 -17.401  0.00  0.00    -0.248 N 
ATOM      5  C   UNL     1      34.706 -23.971 -14.138  0.00  0.00    +0.022 A 
ATOM      6  C   UNL     1      34.253 -23.423 -15.345  0.00  0.00    +0.060 C 
ATOM      7  C   UNL     1      33.702 -24.341 -13.229  0.00  0.00    +0.057 A 
ATOM      8  C   UNL     1      35.966 -24.280 -13.525  0.00  0.00    +0.020 A 
ATOM      9  C   UNL     1      32.892 -23.267 -15.601  0.00  0.00    +0.058 C 
ATOM     10  C   UNL     1      31.915 -23.635 -14.702  0.00  0.00    +0.006 C 
ATOM     11  C   UNL     1      35.692 -24.827 -12.269  0.00  0.00    +0.057 A 
ATOM     12  C   UNL     1      32.322 -24.186 -13.484  0.00  0.00    +0.017 C 
ATOM     13  C   UNL     1      34.980 -22.929 -16.513  0.00  0.00    +0.252 C 
ATOM     14  C   UNL     1      32.741 -22.674 -16.929  0.00  0.00    +0.252 C 
ATOM     15  C   UNL     1      37.321 -24.153 -13.904  0.00  0.00    +0.038 C 
ATOM     16  C   UNL     1      36.693 -25.249 -11.384  0.00  0.00    +0.020 C 
ATOM     17  C   UNL     1      38.333 -24.569 -13.030  0.00  0.00    +0.134 C 
ATOM     18  C   UNL     1      38.022 -25.110 -11.788  0.00  0.00    +0.038 C 
ATOM     19  H   UNL     1      33.861 -25.192 -11.321  0.00  0.00    +0.166 HD
ATOM     20  H   UNL     1      34.226 -22.123 -18.283  0.00  0.00    +0.158 HD
ENDROOT
BRANCH  10  21
ATOM     21  C   UNL     1      30.504 -23.471 -14.970  0.00  0.00    +0.000 C 
ATOM     22  C   UNL     1      29.848 -22.305 -14.575  0.00  0.00    +0.000 C 
ATOM     23  C   UNL     1      29.796 -24.481 -15.624  0.00  0.00    +0.000 C 
ATOM     24  C   UNL     1      28.487 -22.148 -14.833  0.00  0.00    +0.000 C 
ATOM     25  C   UNL     1      28.434 -24.323 -15.883  0.00  0.00    +0.000 C 
ATOM     26  C   UNL     1      27.780 -23.157 -15.486  0.00  0.00    +0.000 C 
ENDBRANCH  10  21
BRANCH  17  27
ATOM     27  O   UNL     1      39.637 -24.443 -13.404  0.00  0.00    -0.506 OA
ATOM     28  H   UNL     1      40.270 -25.072 -13.118  0.00  0.00    +0.292 HD
ENDBRANCH  17  27
TORSDOF 2
ENDMDL
MODEL 4
REMARK VINA RESULT:     -11.0      1.702      7.208
REMARK  Name = 4369491
REMARK  2 active torsions:
REMARK  status: ('A' for Active; 'I' for Inactive)
REMARK    1  A    between atoms: C_10  and  C_21
REMARK    2  A    between atoms: C_17  and  O_27
REMARK                            x       y       z     vdW  Elec       q    Type
REMARK                         _______ _______ _______ _____ _____    ______ ____
ROOT
ATOM      1  O   UNL     1      33.775 -16.023 -25.870  0.00  0.00    -0.270 OA
ATOM      2  O   UNL     1      32.917 -11.506 -25.710  0.00  0.00    -0.270 OA
ATOM      3  N   UNL     1      34.959 -15.173 -20.806  0.00  0.00    -0.353 N 
ATOM      4  N   UNL     1      33.249 -13.771 -26.156  0.00  0.00    -0.248 N 
ATOM      5  C   UNL     1      34.371 -15.117 -22.963  0.00  0.00    +0.022 A 
ATOM      6  C   UNL     1      33.930 -14.427 -24.099  0.00  0.00    +0.060 C 
ATOM      7  C   UNL     1      34.525 -14.337 -21.805  0.00  0.00    +0.057 A 
ATOM      8  C   UNL     1      34.733 -16.462 -22.618  0.00  0.00    +0.020 A 
ATOM      9  C   UNL     1      33.668 -13.059 -24.056  0.00  0.00    +0.058 C 
ATOM     10  C   UNL     1      33.822 -12.303 -22.916  0.00  0.00    +0.006 C 
ATOM     11  C   UNL     1      35.093 -16.460 -21.268  0.00  0.00    +0.057 A 
ATOM     12  C   UNL     1      34.261 -12.950 -21.758  0.00  0.00    +0.017 C 
ATOM     13  C   UNL     1      33.657 -14.885 -25.460  0.00  0.00    +0.252 C 
ATOM     14  C   UNL     1      33.229 -12.635 -25.385  0.00  0.00    +0.252 C 
ATOM     15  C   UNL     1      34.795 -17.691 -23.312  0.00  0.00    +0.038 C 
ATOM     16  C   UNL     1      35.507 -17.611 -20.585  0.00  0.00    +0.020 C 
ATOM     17  C   UNL     1      35.207 -18.851 -22.643  0.00  0.00    +0.134 C 
ATOM     18  C   UNL     1      35.557 -18.809 -21.298  0.00  0.00    +0.038 C 
ATOM     19  H   UNL     1      35.148 -14.890 -19.883  0.00  0.00    +0.166 HD
ATOM     20  H   UNL     1      32.997 -13.786 -27.107  0.00  0.00    +0.158 HD
ENDROOT
BRANCH  10  21
ATOM     21  C   UNL     1      33.550 -10.884 -22.874  0.00  0.00    +0.000 C 
ATOM     22  C   UNL     1      34.458  -9.982 -23.429  0.00  0.00    +0.000 C 
ATOM     23  C   UNL     1      32.379 -10.414 -22.278  0.00  0.00    +0.000 C 
ATOM     24  C   UNL     1      34.197  -8.613 -23.389  0.00  0.00    +0.000 C 
ATOM     25  C   UNL     1      32.116  -9.044 -22.239  0.00  0.00    +0.000 C 
ATOM     26  C   UNL     1      33.026  -8.144 -22.793  0.00  0.00    +0.000 C 
ENDBRANCH  10  21
BRANCH  17  27
ATOM     27  O   UNL     1      35.263 -20.032 -23.320  0.00  0.00    -0.506 OA
ATOM     28  H   UNL     1      35.517 -20.044 -24.221  0.00  0.00    +0.292 HD
ENDBRANCH  17  27
TORSDOF 2
ENDMDL
MODEL 5
REMARK VINA RESULT:     -10.8      4.391      7.441
REMARK  Name = 4369491
REMARK  2 active torsions:
REMARK  status: ('A' for Active; 'I' for Inactive)
REMARK    1  A    between atoms: C_10  and  C_21
REMARK    2  A    between atoms: C_17  and  O_27
REMARK                            x       y       z     vdW  Elec       q    Type
REMARK                         _______ _______ _______ _____ _____    ______ ____
ROOT
ATOM      1  O   UNL     1      32.591 -21.975 -19.554  0.00  0.00    -0.270 OA
ATOM      2  O   UNL     1      33.808 -23.988 -15.600  0.00  0.00    -0.270 OA
ATOM      3  N   UNL     1      37.406 -19.894 -19.058  0.00  0.00    -0.353 N 
ATOM      4  N   UNL     1      32.865 -23.158 -17.566  0.00  0.00    -0.248 N 
ATOM      5  C   UNL     1      35.455 -20.974 -18.902  0.00  0.00    +0.022 A 
ATOM      6  C   UNL     1      34.583 -21.849 -18.241  0.00  0.00    +0.060 C 
ATOM      7  C   UNL     1      36.694 -20.769 -18.275  0.00  0.00    +0.057 A 
ATOM      8  C   UNL     1      35.450 -20.182 -20.099  0.00  0.00    +0.020 A 
ATOM      9  C   UNL     1      34.947 -22.462 -17.044  0.00  0.00    +0.058 C 
ATOM     10  C   UNL     1      36.165 -22.254 -16.437  0.00  0.00    +0.006 C 
ATOM     11  C   UNL     1      36.680 -19.522 -20.163  0.00  0.00    +0.057 A 
ATOM     12  C   UNL     1      37.067 -21.388 -17.062  0.00  0.00    +0.017 C 
ATOM     13  C   UNL     1      33.234 -22.302 -18.577  0.00  0.00    +0.252 C 
ATOM     14  C   UNL     1      33.837 -23.307 -16.607  0.00  0.00    +0.252 C 
ATOM     15  C   UNL     1      34.525 -19.949 -21.142  0.00  0.00    +0.038 C 
ATOM     16  C   UNL     1      37.029 -18.654 -21.206  0.00  0.00    +0.020 C 
ATOM     17  C   UNL     1      34.859 -19.084 -22.191  0.00  0.00    +0.134 C 
ATOM     18  C   UNL     1      36.095 -18.447 -22.221  0.00  0.00    +0.038 C 
ATOM     19  H   UNL     1      38.315 -19.575 -18.855  0.00  0.00    +0.166 HD
ATOM     20  H   UNL     1      31.995 -23.616 -17.532  0.00  0.00    +0.158 HD
ENDROOT
BRANCH  10  21
ATOM     21  C   UNL     1      36.540 -22.890 -15.194  0.00  0.00    +0.000 C 
ATOM     22  C   UNL     1      35.823 -22.622 -14.028  0.00  0.00    +0.000 C 
ATOM     23  C   UNL     1      37.620 -23.774 -15.160  0.00  0.00    +0.000 C 
ATOM     24  C   UNL     1      36.184 -23.236 -12.829  0.00  0.00    +0.000 C 
ATOM     25  C   UNL     1      37.981 -24.388 -13.960  0.00  0.00    +0.000 C 
ATOM     26  C   UNL     1      37.263 -24.118 -12.795  0.00  0.00    +0.000 C 
ENDBRANCH  10  21
BRANCH  17  27
ATOM     27  O   UNL     1      33.962 -18.867 -23.193  0.00  0.00    -0.506 OA
ATOM     28  H   UNL     1      33.944 -18.041 -23.635  0.00  0.00    +0.292 HD
ENDBRANCH  17  27
TORSDOF 2
ENDMDL
MODEL 6
REMARK VINA RESULT:     -10.8      4.631      9.601
REMARK  Name = 4369491
REMARK  2 active torsions:
REMARK  status: ('A' for Active; 'I' for Inactive)
REMARK    1  A    between atoms: C_10  and  C_21
REMARK    2  A    between atoms: C_17  and  O_27
REMARK                            x       y       z     vdW  Elec       q    Type
REMARK                         _______ _______ _______ _____ _____    ______ ____
ROOT
ATOM      1  O   UNL     1      32.464 -23.145 -16.685  0.00  0.00    -0.270 OA
ATOM      2  O   UNL     1      32.464 -20.410 -20.385  0.00  0.00    -0.270 OA
ATOM      3  N   UNL     1      37.605 -22.000 -16.820  0.00  0.00    -0.353 N 
ATOM      4  N   UNL     1      32.090 -21.827 -18.570  0.00  0.00    -0.248 N 
ATOM      5  C   UNL     1      35.400 -22.237 -17.107  0.00  0.00    +0.022 A 
ATOM      6  C   UNL     1      34.214 -21.964 -17.801  0.00  0.00    +0.060 C 
ATOM      7  C   UNL     1      36.554 -21.623 -17.620  0.00  0.00    +0.057 A 
ATOM      8  C   UNL     1      35.802 -23.002 -15.962  0.00  0.00    +0.020 A 
ATOM      9  C   UNL     1      34.208 -21.136 -18.922  0.00  0.00    +0.058 C 
ATOM     10  C   UNL     1      35.346 -20.538 -19.417  0.00  0.00    +0.006 C 
ATOM     11  C   UNL     1      37.181 -22.832 -15.813  0.00  0.00    +0.057 A 
ATOM     12  C   UNL     1      36.552 -20.783 -18.755  0.00  0.00    +0.017 C 
ATOM     13  C   UNL     1      32.841 -22.410 -17.576  0.00  0.00    +0.252 C 
ATOM     14  C   UNL     1      32.836 -21.048 -19.419  0.00  0.00    +0.252 C 
ATOM     15  C   UNL     1      35.138 -23.830 -15.028  0.00  0.00    +0.038 C 
ATOM     16  C   UNL     1      37.920 -23.440 -14.790  0.00  0.00    +0.020 C 
ATOM     17  C   UNL     1      35.864 -24.445 -14.000  0.00  0.00    +0.134 C 
ATOM     18  C   UNL     1      37.235 -24.251 -13.884  0.00  0.00    +0.038 C 
ATOM     19  H   UNL     1      38.537 -21.713 -16.950  0.00  0.00    +0.166 HD
ATOM     20  H   UNL     1      31.119 -21.955 -18.663  0.00  0.00    +0.158 HD
ENDROOT
BRANCH  10  21
ATOM     21  C   UNL     1      35.338 -19.681 -20.580  0.00  0.00    +0.000 C 
ATOM     22  C   UNL     1      34.983 -20.197 -21.827  0.00  0.00    +0.000 C 
ATOM     23  C   UNL     1      35.685 -18.334 -20.458  0.00  0.00    +0.000 C 
ATOM     24  C   UNL     1      34.975 -19.370 -22.949  0.00  0.00    +0.000 C 
ATOM     25  C   UNL     1      35.676 -17.506 -21.580  0.00  0.00    +0.000 C 
ATOM     26  C   UNL     1      35.322 -18.025 -22.826  0.00  0.00    +0.000 C 
ENDBRANCH  10  21
BRANCH  17  27
ATOM     27  O   UNL     1      35.215 -25.241 -13.104  0.00  0.00    -0.506 OA
ATOM     28  H   UNL     1      35.330 -25.101 -12.185  0.00  0.00    +0.292 HD
ENDBRANCH  17  27
TORSDOF 2
ENDMDL
MODEL 7
REMARK VINA RESULT:     -10.7      8.954     11.310
REMARK  Name = 4369491
REMARK  2 active torsions:
REMARK  status: ('A' for Active; 'I' for Inactive)
REMARK    1  A    between atoms: C_10  and  C_21
REMARK    2  A    between atoms: C_17  and  O_27
REMARK                            x       y       z     vdW  Elec       q    Type
REMARK                         _______ _______ _______ _____ _____    ______ ____
ROOT
ATOM      1  O   UNL     1      32.738 -22.347 -17.885  0.00  0.00    -0.270 OA
ATOM      2  O   UNL     1      36.793 -22.981 -15.806  0.00  0.00    -0.270 OA
ATOM      3  N   UNL     1      30.986 -24.314 -13.322  0.00  0.00    -0.353 N 
ATOM      4  N   UNL     1      34.942 -22.528 -17.151  0.00  0.00    -0.248 N 
ATOM      5  C   UNL     1      32.115 -23.530 -15.085  0.00  0.00    +0.022 A 
ATOM      6  C   UNL     1      33.315 -23.200 -15.729  0.00  0.00    +0.060 C 
ATOM      7  C   UNL     1      32.251 -24.054 -13.790  0.00  0.00    +0.057 A 
ATOM      8  C   UNL     1      30.711 -23.486 -15.379  0.00  0.00    +0.020 A 
ATOM      9  C   UNL     1      34.546 -23.390 -15.104  0.00  0.00    +0.058 C 
ATOM     10  C   UNL     1      34.667 -23.905 -13.833  0.00  0.00    +0.006 C 
ATOM     11  C   UNL     1      30.038 -23.982 -14.259  0.00  0.00    +0.057 A 
ATOM     12  C   UNL     1      33.496 -24.248 -13.152  0.00  0.00    +0.017 C 
ATOM     13  C   UNL     1      33.575 -22.642 -17.055  0.00  0.00    +0.252 C 
ATOM     14  C   UNL     1      35.597 -22.956 -16.023  0.00  0.00    +0.252 C 
ATOM     15  C   UNL     1      29.932 -23.077 -16.485  0.00  0.00    +0.038 C 
ATOM     16  C   UNL     1      28.643 -24.087 -14.190  0.00  0.00    +0.020 C 
ATOM     17  C   UNL     1      28.536 -23.176 -16.430  0.00  0.00    +0.134 C 
ATOM     18  C   UNL     1      27.902 -23.674 -15.298  0.00  0.00    +0.038 C 
ATOM     19  H   UNL     1      30.784 -24.688 -12.434  0.00  0.00    +0.166 HD
ATOM     20  H   UNL     1      35.403 -22.177 -17.946  0.00  0.00    +0.158 HD
ENDROOT
BRANCH  10  21
ATOM     21  C   UNL     1      35.945 -24.101 -13.187  0.00  0.00    +0.000 C 
ATOM     22  C   UNL     1      36.462 -23.115 -12.346  0.00  0.00    +0.000 C 
ATOM     23  C   UNL     1      36.664 -25.278 -13.404  0.00  0.00    +0.000 C 
ATOM     24  C   UNL     1      37.695 -23.305 -11.723  0.00  0.00    +0.000 C 
ATOM     25  C   UNL     1      37.897 -25.468 -12.779  0.00  0.00    +0.000 C 
ATOM     26  C   UNL     1      38.413 -24.481 -11.940  0.00  0.00    +0.000 C 
ENDBRANCH  10  21
BRANCH  17  27
ATOM     27  O   UNL     1      27.793 -22.778 -17.501  0.00  0.00    -0.506 OA
ATOM     28  H   UNL     1      27.935 -21.934 -17.882  0.00  0.00    +0.292 HD
ENDBRANCH  17  27
TORSDOF 2
ENDMDL
MODEL 8
REMARK VINA RESULT:     -10.1      4.202      7.037
REMARK  Name = 4369491
REMARK  2 active torsions:
REMARK  status: ('A' for Active; 'I' for Inactive)
REMARK    1  A    between atoms: C_10  and  C_21
REMARK    2  A    between atoms: C_17  and  O_27
REMARK                            x       y       z     vdW  Elec       q    Type
REMARK                         _______ _______ _______ _____ _____    ______ ____
ROOT
ATOM      1  O   UNL     1      30.997  -9.426 -19.876  0.00  0.00    -0.270 OA
ATOM      2  O   UNL     1      32.046 -13.782 -20.919  0.00  0.00    -0.270 OA
ATOM      3  N   UNL     1      34.101  -8.515 -24.034  0.00  0.00    -0.353 N 
ATOM      4  N   UNL     1      31.307 -11.723 -20.109  0.00  0.00    -0.248 N 
ATOM      5  C   UNL     1      32.868  -9.312 -22.348  0.00  0.00    +0.022 A 
ATOM      6  C   UNL     1      32.357 -10.376 -21.594  0.00  0.00    +0.060 C 
ATOM      7  C   UNL     1      33.701  -9.675 -23.418  0.00  0.00    +0.057 A 
ATOM      8  C   UNL     1      32.783  -7.879 -22.346  0.00  0.00    +0.020 A 
ATOM      9  C   UNL     1      32.671 -11.698 -21.906  0.00  0.00    +0.058 C 
ATOM     10  C   UNL     1      33.490 -12.043 -22.958  0.00  0.00    +0.006 C 
ATOM     11  C   UNL     1      33.563  -7.417 -23.409  0.00  0.00    +0.057 A 
ATOM     12  C   UNL     1      34.022 -11.013 -23.737  0.00  0.00    +0.017 C 
ATOM     13  C   UNL     1      31.474 -10.396 -20.429  0.00  0.00    +0.252 C 
ATOM     14  C   UNL     1      31.994 -12.568 -20.946  0.00  0.00    +0.252 C 
ATOM     15  C   UNL     1      32.124  -6.917 -21.549  0.00  0.00    +0.038 C 
ATOM     16  C   UNL     1      33.715  -6.057 -23.712  0.00  0.00    +0.020 C 
ATOM     17  C   UNL     1      32.266  -5.554 -21.839  0.00  0.00    +0.134 C 
ATOM     18  C   UNL     1      33.051  -5.132 -22.906  0.00  0.00    +0.038 C 
ATOM     19  H   UNL     1      34.693  -8.475 -24.819  0.00  0.00    +0.166 HD
ATOM     20  H   UNL     1      30.755 -12.035 -19.357  0.00  0.00    +0.158 HD
ENDROOT
BRANCH  10  21
ATOM     21  C   UNL     1      33.815 -13.415 -23.279  0.00  0.00    +0.000 C 
ATOM     22  C   UNL     1      34.737 -14.115 -22.500  0.00  0.00    +0.000 C 
ATOM     23  C   UNL     1      33.206 -14.040 -24.368  0.00  0.00    +0.000 C 
ATOM     24  C   UNL     1      35.050 -15.438 -22.810  0.00  0.00    +0.000 C 
ATOM     25  C   UNL     1      33.519 -15.364 -24.677  0.00  0.00    +0.000 C 
ATOM     26  C   UNL     1      34.443 -16.062 -23.899  0.00  0.00    +0.000 C 
ENDBRANCH  10  21
BRANCH  17  27
ATOM     27  O   UNL     1      31.626  -4.633 -21.065  0.00  0.00    -0.506 OA
ATOM     28  H   UNL     1      31.067  -4.913 -20.368  0.00  0.00    +0.292 HD
ENDBRANCH  17  27
TORSDOF 2
ENDMDL
MODEL 9
REMARK VINA RESULT:     -10.1      6.383     11.393
REMARK  Name = 4369491
REMARK  2 active torsions:
REMARK  status: ('A' for Active; 'I' for Inactive)
REMARK    1  A    between atoms: C_10  and  C_21
REMARK    2  A    between atoms: C_17  and  O_27
REMARK                            x       y       z     vdW  Elec       q    Type
REMARK                         _______ _______ _______ _____ _____    ______ ____
ROOT
ATOM      1  O   UNL     1      33.041 -24.571 -14.080  0.00  0.00    -0.270 OA
ATOM      2  O   UNL     1      32.052 -22.148 -17.864  0.00  0.00    -0.270 OA
ATOM      3  N   UNL     1      37.936 -23.136 -15.400  0.00  0.00    -0.353 N 
ATOM      4  N   UNL     1      32.179 -23.433 -15.922  0.00  0.00    -0.248 N 
ATOM      5  C   UNL     1      35.745 -23.526 -15.187  0.00  0.00    +0.022 A 
ATOM      6  C   UNL     1      34.422 -23.381 -15.624  0.00  0.00    +0.060 C 
ATOM      7  C   UNL     1      36.715 -22.888 -15.976  0.00  0.00    +0.057 A 
ATOM      8  C   UNL     1      36.436 -24.172 -14.108  0.00  0.00    +0.020 A 
ATOM      9  C   UNL     1      34.117 -22.648 -16.769  0.00  0.00    +0.058 C 
ATOM     10  C   UNL     1      35.076 -22.026 -17.537  0.00  0.00    +0.006 C 
ATOM     11  C   UNL     1      37.798 -23.909 -14.272  0.00  0.00    +0.057 A 
ATOM     12  C   UNL     1      36.409 -22.144 -17.137  0.00  0.00    +0.017 C 
ATOM     13  C   UNL     1      33.164 -23.889 -15.078  0.00  0.00    +0.252 C 
ATOM     14  C   UNL     1      32.668 -22.682 -16.962  0.00  0.00    +0.252 C 
ATOM     15  C   UNL     1      36.049 -24.960 -13.000  0.00  0.00    +0.038 C 
ATOM     16  C   UNL     1      38.781 -24.387 -13.396  0.00  0.00    +0.020 C 
ATOM     17  C   UNL     1      37.020 -25.446 -12.116  0.00  0.00    +0.134 C 
ATOM     18  C   UNL     1      38.367 -25.162 -12.312  0.00  0.00    +0.038 C 
ATOM     19  H   UNL     1      38.795 -22.806 -15.747  0.00  0.00    +0.166 HD
ATOM     20  H   UNL     1      31.223 -23.626 -15.794  0.00  0.00    +0.158 HD
ENDROOT
BRANCH  10  21
ATOM     21  C   UNL     1      34.757 -21.266 -18.725  0.00  0.00    +0.000 C 
ATOM     22  C   UNL     1      33.425 -21.046 -19.077  0.00  0.00    +0.000 C 
ATOM     23  C   UNL     1      35.781 -20.752 -19.521  0.00  0.00    +0.000 C 
ATOM     24  C   UNL     1      33.117 -20.314 -20.223  0.00  0.00    +0.000 C 
ATOM     25  C   UNL     1      35.473 -20.019 -20.667  0.00  0.00    +0.000 C 
ATOM     26  C   UNL     1      34.141 -19.801 -21.018  0.00  0.00    +0.000 C 
ENDBRANCH  10  21
BRANCH  17  27
ATOM     27  O   UNL     1      36.638 -26.204 -11.050  0.00  0.00    -0.506 OA
ATOM     28  H   UNL     1      37.107 -26.146 -10.241  0.00  0.00    +0.292 HD
ENDBRANCH  17  27
TORSDOF 2
ENDMDL
