MODEL 1
REMARK VINA RESULT:     -12.5      0.000      0.000
REMARK  Name = 23629645
REMARK  6 active torsions:
REMARK  status: ('A' for Active; 'I' for Inactive)
REMARK    1  A    between atoms: N_1  and  C_6
REMARK    2  A    between atoms: N_1  and  C_21
REMARK    3  A    between atoms: C_3  and  C_16
REMARK    4  A    between atoms: C_11  and  C_18
REMARK    5  A    between atoms: C_18  and  O_19
REMARK    6  A    between atoms: C_21  and  C_28
REMARK                            x       y       z     vdW  Elec       q    Type
REMARK                         _______ _______ _______ _____ _____    ______ ____
ROOT
ATOM      1  N   UNL     1      35.088 -18.818 -22.163  0.00  0.00    -0.300 N 
ATOM      2  C   UNL     1      34.557 -19.047 -23.491  0.00  0.00    +0.113 C 
ENDROOT
BRANCH   1   6
ATOM      3  C   UNL     1      34.013 -21.338 -18.985  0.00  0.00    +0.054 C 
ATOM      4  C   UNL     1      35.354 -21.193 -19.331  0.00  0.00    +0.006 C 
ATOM      5  C   UNL     1      33.027 -20.652 -19.688  0.00  0.00    +0.006 C 
ATOM      6  C   UNL     1      34.726 -19.666 -21.094  0.00  0.00    +0.048 C 
ATOM      7  C   UNL     1      35.712 -20.355 -20.387  0.00  0.00    +0.015 C 
ATOM      8  C   UNL     1      33.384 -19.814 -20.745  0.00  0.00    +0.015 C 
BRANCH   3  16
ATOM      9  O   UNL     1      32.443 -22.499 -17.781  0.00  0.00    -0.270 OA
ATOM     10  N   UNL     1      34.644 -22.663 -17.012  0.00  0.00    -0.276 N 
ATOM     11  C   UNL     1      36.220 -22.518 -14.580  0.00  0.00    +0.102 C 
ATOM     12  C   UNL     1      34.752 -22.960 -14.576  0.00  0.00    +0.033 C 
ATOM     13  C   UNL     1      36.575 -21.696 -15.826  0.00  0.00    +0.033 C 
ATOM     14  C   UNL     1      34.313 -23.562 -15.911  0.00  0.00    +0.094 C 
ATOM     15  C   UNL     1      36.070 -22.332 -17.120  0.00  0.00    +0.094 C 
ATOM     16  C   UNL     1      33.637 -22.221 -17.873  0.00  0.00    +0.249 C 
BRANCH  11  18
ATOM     17  O   UNL     1      38.307 -23.711 -14.741  0.00  0.00    -0.250 OA
ATOM     18  C   UNL     1      37.120 -23.711 -14.445  0.00  0.00    +0.317 C 
BRANCH  18  19
ATOM     19  O   UNL     1      36.409 -24.765 -13.951  0.00  0.00    -0.444 OA
ATOM     20  C   UNL     1      36.801 -26.053 -14.437  0.00  0.00    +0.256 C 
ENDBRANCH  18  19
ENDBRANCH  11  18
ENDBRANCH   3  16
ENDBRANCH   1   6
BRANCH   1  21
ATOM     21  C   UNL     1      35.984 -17.701 -21.942  0.00  0.00    +0.148 C 
BRANCH  21  28
ATOM     22  N   UNL     1      34.758 -15.738 -22.665  0.00  0.00    -0.392 NA
ATOM     23  N   UNL     1      34.397 -14.901 -20.052  0.00  0.00    -0.200 NA
ATOM     24  N   UNL     1      33.233 -13.041 -20.794  0.00  0.00    -0.271 NA
ATOM     25  N   UNL     1      32.873 -12.664 -23.134  0.00  0.00    -0.310 NA
ATOM     26  N   UNL     1      33.718 -14.209 -24.710  0.00  0.00    -0.329 N 
ATOM     27  N   UNL     1      32.051 -11.156 -21.542  0.00  0.00    -0.283 N 
ATOM     28  C   UNL     1      35.234 -16.432 -21.631  0.00  0.00    +0.133 C 
ATOM     29  C   UNL     1      35.066 -16.033 -20.344  0.00  0.00    +0.193 C 
ATOM     30  C   UNL     1      34.089 -14.606 -22.372  0.00  0.00    +0.248 C 
ATOM     31  C   UNL     1      33.900 -14.171 -21.059  0.00  0.00    +0.131 C 
ATOM     32  C   UNL     1      33.549 -13.805 -23.359  0.00  0.00    +0.231 C 
ATOM     33  C   UNL     1      32.753 -12.345 -21.840  0.00  0.00    +0.207 C 
ATOM     34  H   UNL     1      33.345 -13.660 -25.438  0.00  0.00    +0.145 HD
ATOM     35  H   UNL     1      34.206 -15.037 -24.918  0.00  0.00    +0.145 HD
ATOM     36  H   UNL     1      31.934 -10.877 -20.605  0.00  0.00    +0.156 HD
ATOM     37  H   UNL     1      31.680 -10.608 -22.270  0.00  0.00    +0.156 HD
ENDBRANCH  21  28
ENDBRANCH   1  21
TORSDOF 6
ENDMDL
MODEL 2
REMARK VINA RESULT:     -12.4      1.222      2.379
REMARK  Name = 23629645
REMARK  6 active torsions:
REMARK  status: ('A' for Active; 'I' for Inactive)
REMARK    1  A    between atoms: N_1  and  C_6
REMARK    2  A    between atoms: N_1  and  C_21
REMARK    3  A    between atoms: C_3  and  C_16
REMARK    4  A    between atoms: C_11  and  C_18
REMARK    5  A    between atoms: C_18  and  O_19
REMARK    6  A    between atoms: C_21  and  C_28
REMARK                            x       y       z     vdW  Elec       q    Type
REMARK                         _______ _______ _______ _____ _____    ______ ____
ROOT
ATOM      1  N   UNL     1      35.355 -18.924 -21.963  0.00  0.00    -0.300 N 
ATOM      2  C   UNL     1      36.501 -18.065 -21.745  0.00  0.00    +0.113 C 
ENDROOT
BRANCH   1   6
ATOM      3  C   UNL     1      33.932 -21.388 -18.880  0.00  0.00    +0.054 C 
ATOM      4  C   UNL     1      33.036 -20.634 -19.634  0.00  0.00    +0.006 C 
ATOM      5  C   UNL     1      35.297 -21.328 -19.143  0.00  0.00    +0.006 C 
ATOM      6  C   UNL     1      34.876 -19.753 -20.926  0.00  0.00    +0.048 C 
ATOM      7  C   UNL     1      33.509 -19.815 -20.659  0.00  0.00    +0.015 C 
ATOM      8  C   UNL     1      35.771 -20.509 -20.168  0.00  0.00    +0.015 C 
BRANCH   3  16
ATOM      9  O   UNL     1      32.218 -22.436 -17.771  0.00  0.00    -0.270 OA
ATOM     10  N   UNL     1      34.359 -22.775 -16.895  0.00  0.00    -0.276 N 
ATOM     11  C   UNL     1      35.814 -22.773 -14.386  0.00  0.00    +0.102 C 
ATOM     12  C   UNL     1      34.319 -23.101 -14.461  0.00  0.00    +0.033 C 
ATOM     13  C   UNL     1      36.294 -21.969 -15.601  0.00  0.00    +0.033 C 
ATOM     14  C   UNL     1      33.905 -23.656 -15.824  0.00  0.00    +0.094 C 
ATOM     15  C   UNL     1      35.809 -22.553 -16.927  0.00  0.00    +0.094 C 
ATOM     16  C   UNL     1      33.433 -22.250 -17.800  0.00  0.00    +0.249 C 
BRANCH  11  18
ATOM     17  O   UNL     1      36.121 -25.135 -14.024  0.00  0.00    -0.250 OA
ATOM     18  C   UNL     1      36.613 -24.033 -14.221  0.00  0.00    +0.317 C 
BRANCH  18  19
ATOM     19  O   UNL     1      37.942 -23.746 -14.323  0.00  0.00    -0.444 OA
ATOM     20  C   UNL     1      38.825 -24.863 -14.172  0.00  0.00    +0.256 C 
ENDBRANCH  18  19
ENDBRANCH  11  18
ENDBRANCH   3  16
ENDBRANCH   1   6
BRANCH   1  21
ATOM     21  C   UNL     1      34.715 -18.932 -23.263  0.00  0.00    +0.148 C 
BRANCH  21  28
ATOM     22  N   UNL     1      34.571 -16.543 -22.875  0.00  0.00    -0.392 NA
ATOM     23  N   UNL     1      33.709 -16.092 -25.467  0.00  0.00    -0.200 NA
ATOM     24  N   UNL     1      33.589 -13.818 -25.046  0.00  0.00    -0.271 NA
ATOM     25  N   UNL     1      34.165 -12.930 -22.895  0.00  0.00    -0.310 NA
ATOM     26  N   UNL     1      34.866 -14.392 -21.176  0.00  0.00    -0.329 N 
ATOM     27  N   UNL     1      33.466 -11.512 -24.623  0.00  0.00    -0.283 N 
ATOM     28  C   UNL     1      34.409 -17.539 -23.747  0.00  0.00    +0.133 C 
ATOM     29  C   UNL     1      33.986 -17.333 -25.021  0.00  0.00    +0.193 C 
ATOM     30  C   UNL     1      34.294 -15.302 -23.322  0.00  0.00    +0.248 C 
ATOM     31  C   UNL     1      33.858 -15.060 -24.626  0.00  0.00    +0.131 C 
ATOM     32  C   UNL     1      34.426 -14.192 -22.511  0.00  0.00    +0.231 C 
ATOM     33  C   UNL     1      33.754 -12.816 -24.163  0.00  0.00    +0.207 C 
ATOM     34  H   UNL     1      34.970 -13.621 -20.572  0.00  0.00    +0.145 HD
ATOM     35  H   UNL     1      35.068 -15.300 -20.856  0.00  0.00    +0.145 HD
ATOM     36  H   UNL     1      33.161 -11.374 -25.549  0.00  0.00    +0.156 HD
ATOM     37  H   UNL     1      33.570 -10.743 -24.019  0.00  0.00    +0.156 HD
ENDBRANCH  21  28
ENDBRANCH   1  21
TORSDOF 6
ENDMDL
MODEL 3
REMARK VINA RESULT:     -11.3      1.528      2.909
REMARK  Name = 23629645
REMARK  6 active torsions:
REMARK  status: ('A' for Active; 'I' for Inactive)
REMARK    1  A    between atoms: N_1  and  C_6
REMARK    2  A    between atoms: N_1  and  C_21
REMARK    3  A    between atoms: C_3  and  C_16
REMARK    4  A    between atoms: C_11  and  C_18
REMARK    5  A    between atoms: C_18  and  O_19
REMARK    6  A    between atoms: C_21  and  C_28
REMARK                            x       y       z     vdW  Elec       q    Type
REMARK                         _______ _______ _______ _____ _____    ______ ____
ROOT
ATOM      1  N   UNL     1      35.826 -20.057 -20.481  0.00  0.00    -0.300 N 
ATOM      2  C   UNL     1      37.081 -19.337 -20.408  0.00  0.00    +0.113 C 
ENDROOT
BRANCH   1   6
ATOM      3  C   UNL     1      34.555 -22.442 -17.272  0.00  0.00    +0.054 C 
ATOM      4  C   UNL     1      33.642 -22.048 -18.247  0.00  0.00    +0.006 C 
ATOM      5  C   UNL     1      35.887 -22.047 -17.356  0.00  0.00    +0.006 C 
ATOM      6  C   UNL     1      35.398 -20.859 -19.402  0.00  0.00    +0.048 C 
ATOM      7  C   UNL     1      34.064 -21.256 -19.314  0.00  0.00    +0.015 C 
ATOM      8  C   UNL     1      36.310 -21.254 -18.423  0.00  0.00    +0.015 C 
BRANCH   3  16
ATOM      9  O   UNL     1      32.908 -23.531 -16.105  0.00  0.00    -0.270 OA
ATOM     10  N   UNL     1      35.066 -23.699 -15.222  0.00  0.00    -0.276 N 
ATOM     11  C   UNL     1      36.522 -23.485 -12.722  0.00  0.00    +0.102 C 
ATOM     12  C   UNL     1      35.048 -23.904 -12.774  0.00  0.00    +0.033 C 
ATOM     13  C   UNL     1      36.952 -22.717 -13.978  0.00  0.00    +0.033 C 
ATOM     14  C   UNL     1      34.666 -24.551 -14.105  0.00  0.00    +0.094 C 
ATOM     15  C   UNL     1      36.500 -23.394 -15.271  0.00  0.00    +0.094 C 
ATOM     16  C   UNL     1      34.110 -23.275 -16.147  0.00  0.00    +0.249 C 
BRANCH  11  18
ATOM     17  O   UNL     1      36.975 -25.780 -12.147  0.00  0.00    -0.250 OA
ATOM     18  C   UNL     1      37.394 -24.685 -12.497  0.00  0.00    +0.317 C 
BRANCH  18  19
ATOM     19  O   UNL     1      38.694 -24.357 -12.741  0.00  0.00    -0.444 OA
ATOM     20  C   UNL     1      39.448 -25.330 -13.471  0.00  0.00    +0.256 C 
ENDBRANCH  18  19
ENDBRANCH  11  18
ENDBRANCH   3  16
ENDBRANCH   1   6
BRANCH   1  21
ATOM     21  C   UNL     1      35.020 -19.953 -21.682  0.00  0.00    +0.148 C 
BRANCH  21  28
ATOM     22  N   UNL     1      34.887 -17.572 -21.243  0.00  0.00    -0.392 NA
ATOM     23  N   UNL     1      34.769 -16.998 -23.949  0.00  0.00    -0.200 NA
ATOM     24  N   UNL     1      34.644 -14.734 -23.477  0.00  0.00    -0.271 NA
ATOM     25  N   UNL     1      34.665 -13.943 -21.214  0.00  0.00    -0.310 NA
ATOM     26  N   UNL     1      34.816 -15.492 -19.436  0.00  0.00    -0.329 N 
ATOM     27  N   UNL     1      34.518 -12.439 -23.003  0.00  0.00    -0.283 N 
ATOM     28  C   UNL     1      34.918 -18.532 -22.169  0.00  0.00    +0.133 C 
ATOM     29  C   UNL     1      34.860 -18.265 -23.500  0.00  0.00    +0.193 C 
ATOM     30  C   UNL     1      34.796 -16.306 -21.694  0.00  0.00    +0.248 C 
ATOM     31  C   UNL     1      34.735 -16.001 -23.055  0.00  0.00    +0.131 C 
ATOM     32  C   UNL     1      34.757 -15.228 -20.830  0.00  0.00    +0.231 C 
ATOM     33  C   UNL     1      34.614 -13.769 -22.539  0.00  0.00    +0.207 C 
ATOM     34  H   UNL     1      34.791 -14.746 -18.793  0.00  0.00    +0.145 HD
ATOM     35  H   UNL     1      34.884 -16.419 -19.113  0.00  0.00    +0.145 HD
ATOM     36  H   UNL     1      34.477 -12.257 -23.970  0.00  0.00    +0.156 HD
ATOM     37  H   UNL     1      34.491 -11.695 -22.360  0.00  0.00    +0.156 HD
ENDBRANCH  21  28
ENDBRANCH   1  21
TORSDOF 6
ENDMDL
MODEL 4
REMARK VINA RESULT:     -11.2      5.113     10.990
REMARK  Name = 23629645
REMARK  6 active torsions:
REMARK  status: ('A' for Active; 'I' for Inactive)
REMARK    1  A    between atoms: N_1  and  C_6
REMARK    2  A    between atoms: N_1  and  C_21
REMARK    3  A    between atoms: C_3  and  C_16
REMARK    4  A    between atoms: C_11  and  C_18
REMARK    5  A    between atoms: C_18  and  O_19
REMARK    6  A    between atoms: C_21  and  C_28
REMARK                            x       y       z     vdW  Elec       q    Type
REMARK                         _______ _______ _______ _____ _____    ______ ____
ROOT
ATOM      1  N   UNL     1      35.086 -18.897 -22.797  0.00  0.00    -0.300 N 
ATOM      2  C   UNL     1      34.908 -20.159 -23.486  0.00  0.00    +0.113 C 
ENDROOT
BRANCH   1   6
ATOM      3  C   UNL     1      34.159 -15.282 -24.713  0.00  0.00    +0.054 C 
ATOM      4  C   UNL     1      33.592 -16.471 -25.165  0.00  0.00    +0.006 C 
ATOM      5  C   UNL     1      35.033 -15.287 -23.629  0.00  0.00    +0.006 C 
ATOM      6  C   UNL     1      34.774 -17.681 -23.441  0.00  0.00    +0.048 C 
ATOM      7  C   UNL     1      33.900 -17.673 -24.528  0.00  0.00    +0.015 C 
ATOM      8  C   UNL     1      35.341 -16.489 -22.992  0.00  0.00    +0.015 C 
BRANCH   3  16
ATOM      9  O   UNL     1      33.989 -13.995 -26.605  0.00  0.00    -0.270 OA
ATOM     10  N   UNL     1      33.397 -12.947 -24.601  0.00  0.00    -0.276 N 
ATOM     11  C   UNL     1      33.801 -10.489 -23.115  0.00  0.00    +0.102 C 
ATOM     12  C   UNL     1      33.864 -10.536 -24.646  0.00  0.00    +0.033 C 
ATOM     13  C   UNL     1      34.034 -11.865 -22.481  0.00  0.00    +0.033 C 
ATOM     14  C   UNL     1      33.041 -11.681 -25.235  0.00  0.00    +0.094 C 
ATOM     15  C   UNL     1      33.214 -12.971 -23.145  0.00  0.00    +0.094 C 
ATOM     16  C   UNL     1      33.836 -14.016 -25.385  0.00  0.00    +0.249 C 
BRANCH  11  18
ATOM     17  O   UNL     1      31.803 -10.369 -21.773  0.00  0.00    -0.250 OA
ATOM     18  C   UNL     1      32.493  -9.902 -22.670  0.00  0.00    +0.317 C 
BRANCH  18  19
ATOM     19  O   UNL     1      32.213  -8.794 -23.413  0.00  0.00    -0.444 OA
ATOM     20  C   UNL     1      31.360  -7.831 -22.785  0.00  0.00    +0.256 C 
ENDBRANCH  18  19
ENDBRANCH  11  18
ENDBRANCH   3  16
ENDBRANCH   1   6
BRANCH   1  21
ATOM     21  C   UNL     1      35.602 -18.898 -21.442  0.00  0.00    +0.148 C 
BRANCH  21  28
ATOM     22  N   UNL     1      35.462 -20.473 -19.604  0.00  0.00    -0.392 NA
ATOM     23  N   UNL     1      32.714 -20.667 -19.874  0.00  0.00    -0.200 NA
ATOM     24  N   UNL     1      32.633 -22.169 -18.113  0.00  0.00    -0.271 NA
ATOM     25  N   UNL     1      34.631 -22.832 -16.965  0.00  0.00    -0.310 NA
ATOM     26  N   UNL     1      36.715 -21.942 -17.637  0.00  0.00    -0.329 N 
ATOM     27  N   UNL     1      32.548 -23.690 -16.327  0.00  0.00    -0.283 N 
ATOM     28  C   UNL     1      34.795 -19.789 -20.535  0.00  0.00    +0.133 C 
ATOM     29  C   UNL     1      33.448 -19.875 -20.679  0.00  0.00    +0.193 C 
ATOM     30  C   UNL     1      34.727 -21.265 -18.799  0.00  0.00    +0.248 C 
ATOM     31  C   UNL     1      33.341 -21.374 -18.924  0.00  0.00    +0.131 C 
ATOM     32  C   UNL     1      35.307 -22.021 -17.799  0.00  0.00    +0.231 C 
ATOM     33  C   UNL     1      33.310 -22.857 -17.175  0.00  0.00    +0.207 C 
ATOM     34  H   UNL     1      37.159 -22.469 -16.933  0.00  0.00    +0.145 HD
ATOM     35  H   UNL     1      37.246 -21.361 -18.227  0.00  0.00    +0.145 HD
ATOM     36  H   UNL     1      31.571 -23.745 -16.440  0.00  0.00    +0.156 HD
ATOM     37  H   UNL     1      32.993 -24.217 -15.625  0.00  0.00    +0.156 HD
ENDBRANCH  21  28
ENDBRANCH   1  21
TORSDOF 6
ENDMDL
MODEL 5
REMARK VINA RESULT:     -11.1      4.089     10.400
REMARK  Name = 23629645
REMARK  6 active torsions:
REMARK  status: ('A' for Active; 'I' for Inactive)
REMARK    1  A    between atoms: N_1  and  C_6
REMARK    2  A    between atoms: N_1  and  C_21
REMARK    3  A    between atoms: C_3  and  C_16
REMARK    4  A    between atoms: C_11  and  C_18
REMARK    5  A    between atoms: C_18  and  O_19
REMARK    6  A    between atoms: C_21  and  C_28
REMARK                            x       y       z     vdW  Elec       q    Type
REMARK                         _______ _______ _______ _____ _____    ______ ____
ROOT
ATOM      1  N   UNL     1      36.143 -20.597 -19.566  0.00  0.00    -0.300 N 
ATOM      2  C   UNL     1      36.988 -20.163 -18.472  0.00  0.00    +0.113 C 
ENDROOT
BRANCH   1   6
ATOM      3  C   UNL     1      34.983 -17.891 -22.555  0.00  0.00    +0.054 C 
ATOM      4  C   UNL     1      34.114 -18.907 -22.165  0.00  0.00    +0.006 C 
ATOM      5  C   UNL     1      36.235 -17.768 -21.958  0.00  0.00    +0.006 C 
ATOM      6  C   UNL     1      35.753 -19.686 -20.571  0.00  0.00    +0.048 C 
ATOM      7  C   UNL     1      34.500 -19.806 -21.171  0.00  0.00    +0.015 C 
ATOM      8  C   UNL     1      36.621 -18.668 -20.964  0.00  0.00    +0.015 C 
BRANCH   3  16
ATOM      9  O   UNL     1      34.705 -17.331 -24.762  0.00  0.00    -0.270 OA
ATOM     10  N   UNL     1      34.095 -15.694 -23.210  0.00  0.00    -0.276 N 
ATOM     11  C   UNL     1      34.391 -12.861 -22.658  0.00  0.00    +0.102 C 
ATOM     12  C   UNL     1      34.428 -13.422 -24.084  0.00  0.00    +0.033 C 
ATOM     13  C   UNL     1      34.712 -13.929 -21.605  0.00  0.00    +0.033 C 
ATOM     14  C   UNL     1      33.658 -14.736 -24.221  0.00  0.00    +0.094 C 
ATOM     15  C   UNL     1      33.942 -15.230 -21.826  0.00  0.00    +0.094 C 
ATOM     16  C   UNL     1      34.577 -16.944 -23.602  0.00  0.00    +0.249 C 
BRANCH  11  18
ATOM     17  O   UNL     1      32.148 -12.762 -21.783  0.00  0.00    -0.250 OA
ATOM     18  C   UNL     1      33.062 -12.218 -22.389  0.00  0.00    +0.317 C 
BRANCH  18  19
ATOM     19  O   UNL     1      33.047 -10.963 -22.920  0.00  0.00    -0.444 OA
ATOM     20  C   UNL     1      32.376  -9.971 -22.135  0.00  0.00    +0.256 C 
ENDBRANCH  18  19
ENDBRANCH  11  18
ENDBRANCH   3  16
ENDBRANCH   1   6
BRANCH   1  21
ATOM     21  C   UNL     1      35.692 -21.974 -19.609  0.00  0.00    +0.148 C 
BRANCH  21  28
ATOM     22  N   UNL     1      34.971 -22.765 -17.433  0.00  0.00    -0.392 NA
ATOM     23  N   UNL     1      32.327 -22.184 -18.009  0.00  0.00    -0.200 NA
ATOM     24  N   UNL     1      31.689 -22.951 -15.919  0.00  0.00    -0.271 NA
ATOM     25  N   UNL     1      33.310 -23.795 -14.367  0.00  0.00    -0.310 NA
ATOM     26  N   UNL     1      35.593 -23.846 -14.975  0.00  0.00    -0.329 N 
ATOM     27  N   UNL     1      31.039 -23.727 -13.801  0.00  0.00    -0.283 N 
ATOM     28  C   UNL     1      34.604 -22.240 -18.603  0.00  0.00    +0.133 C 
ATOM     29  C   UNL     1      33.310 -21.951 -18.899  0.00  0.00    +0.193 C 
ATOM     30  C   UNL     1      33.987 -22.997 -16.543  0.00  0.00    +0.248 C 
ATOM     31  C   UNL     1      32.649 -22.710 -16.820  0.00  0.00    +0.131 C 
ATOM     32  C   UNL     1      34.246 -23.537 -15.298  0.00  0.00    +0.231 C 
ATOM     33  C   UNL     1      32.064 -23.480 -14.740  0.00  0.00    +0.207 C 
ATOM     34  H   UNL     1      35.812 -24.232 -14.096  0.00  0.00    +0.145 HD
ATOM     35  H   UNL     1      36.308 -23.673 -15.628  0.00  0.00    +0.145 HD
ATOM     36  H   UNL     1      30.104 -23.513 -14.027  0.00  0.00    +0.156 HD
ATOM     37  H   UNL     1      31.258 -24.114 -12.923  0.00  0.00    +0.156 HD
ENDBRANCH  21  28
ENDBRANCH   1  21
TORSDOF 6
ENDMDL
MODEL 6
REMARK VINA RESULT:     -11.0      5.056      8.935
REMARK  Name = 23629645
REMARK  6 active torsions:
REMARK  status: ('A' for Active; 'I' for Inactive)
REMARK    1  A    between atoms: N_1  and  C_6
REMARK    2  A    between atoms: N_1  and  C_21
REMARK    3  A    between atoms: C_3  and  C_16
REMARK    4  A    between atoms: C_11  and  C_18
REMARK    5  A    between atoms: C_18  and  O_19
REMARK    6  A    between atoms: C_21  and  C_28
REMARK                            x       y       z     vdW  Elec       q    Type
REMARK                         _______ _______ _______ _____ _____    ______ ____
ROOT
ATOM      1  N   UNL     1      32.839 -10.038 -22.566  0.00  0.00    -0.300 N 
ATOM      2  C   UNL     1      31.618  -9.685 -21.872  0.00  0.00    +0.113 C 
ENDROOT
BRANCH   1   6
ATOM      3  C   UNL     1      33.581 -14.017 -23.672  0.00  0.00    +0.054 C 
ATOM      4  C   UNL     1      33.860 -12.986 -24.565  0.00  0.00    +0.006 C 
ATOM      5  C   UNL     1      33.056 -13.734 -22.414  0.00  0.00    +0.006 C 
ATOM      6  C   UNL     1      33.089 -11.376 -22.938  0.00  0.00    +0.048 C 
ATOM      7  C   UNL     1      33.614 -11.663 -24.198  0.00  0.00    +0.015 C 
ATOM      8  C   UNL     1      32.810 -12.411 -22.046  0.00  0.00    +0.015 C 
BRANCH   3  16
ATOM      9  O   UNL     1      33.289 -15.798 -25.088  0.00  0.00    -0.270 OA
ATOM     10  N   UNL     1      34.668 -16.179 -23.240  0.00  0.00    -0.276 N 
ATOM     11  C   UNL     1      35.152 -18.102 -21.123  0.00  0.00    +0.102 C 
ATOM     12  C   UNL     1      34.569 -18.513 -22.480  0.00  0.00    +0.033 C 
ATOM     13  C   UNL     1      34.949 -16.610 -20.831  0.00  0.00    +0.033 C 
ATOM     14  C   UNL     1      34.970 -17.560 -23.606  0.00  0.00    +0.094 C 
ATOM     15  C   UNL     1      35.326 -15.718 -22.012  0.00  0.00    +0.094 C 
ATOM     16  C   UNL     1      33.840 -15.410 -24.059  0.00  0.00    +0.249 C 
BRANCH  11  18
ATOM     17  O   UNL     1      37.402 -18.305 -21.961  0.00  0.00    -0.250 OA
ATOM     18  C   UNL     1      36.604 -18.475 -21.049  0.00  0.00    +0.317 C 
BRANCH  18  19
ATOM     19  O   UNL     1      36.874 -19.019 -19.828  0.00  0.00    -0.444 OA
ATOM     20  C   UNL     1      36.421 -20.364 -19.641  0.00  0.00    +0.256 C 
ENDBRANCH  18  19
ENDBRANCH  11  18
ENDBRANCH   3  16
ENDBRANCH   1   6
BRANCH   1  21
ATOM     21  C   UNL     1      33.809  -9.001 -22.862  0.00  0.00    +0.148 C 
BRANCH  21  28
ATOM     22  N   UNL     1      32.968  -6.776 -23.329  0.00  0.00    -0.392 NA
ATOM     23  N   UNL     1      32.909  -6.145 -20.635  0.00  0.00    -0.200 NA
ATOM     24  N   UNL     1      32.107  -4.030 -21.133  0.00  0.00    -0.271 NA
ATOM     25  N   UNL     1      31.720  -3.362 -23.402  0.00  0.00    -0.310 NA
ATOM     26  N   UNL     1      32.161  -4.879 -25.159  0.00  0.00    -0.329 N 
ATOM     27  N   UNL     1      31.293  -1.886 -21.634  0.00  0.00    -0.283 N 
ATOM     28  C   UNL     1      33.345  -7.648 -22.393  0.00  0.00    +0.133 C 
ATOM     29  C   UNL     1      33.322  -7.352 -21.068  0.00  0.00    +0.193 C 
ATOM     30  C   UNL     1      32.556  -5.569 -22.895  0.00  0.00    +0.248 C 
ATOM     31  C   UNL     1      32.521  -5.237 -21.539  0.00  0.00    +0.131 C 
ATOM     32  C   UNL     1      32.141  -4.584 -23.771  0.00  0.00    +0.231 C 
ATOM     33  C   UNL     1      31.727  -3.154 -22.081  0.00  0.00    +0.207 C 
ATOM     34  H   UNL     1      31.871  -4.199 -25.810  0.00  0.00    +0.145 HD
ATOM     35  H   UNL     1      32.462  -5.762 -25.471  0.00  0.00    +0.145 HD
ATOM     36  H   UNL     1      31.280  -1.683 -20.671  0.00  0.00    +0.156 HD
ATOM     37  H   UNL     1      31.006  -1.207 -22.285  0.00  0.00    +0.156 HD
ENDBRANCH  21  28
ENDBRANCH   1  21
TORSDOF 6
ENDMDL
MODEL 7
REMARK VINA RESULT:     -10.9      3.645     10.721
REMARK  Name = 23629645
REMARK  6 active torsions:
REMARK  status: ('A' for Active; 'I' for Inactive)
REMARK    1  A    between atoms: N_1  and  C_6
REMARK    2  A    between atoms: N_1  and  C_21
REMARK    3  A    between atoms: C_3  and  C_16
REMARK    4  A    between atoms: C_11  and  C_18
REMARK    5  A    between atoms: C_18  and  O_19
REMARK    6  A    between atoms: C_21  and  C_28
REMARK                            x       y       z     vdW  Elec       q    Type
REMARK                         _______ _______ _______ _____ _____    ______ ____
ROOT
ATOM      1  N   UNL     1      34.338 -22.588 -17.276  0.00  0.00    -0.300 N 
ATOM      2  C   UNL     1      33.736 -23.902 -17.365  0.00  0.00    +0.113 C 
ENDROOT
BRANCH   1   6
ATOM      3  C   UNL     1      34.701 -20.182 -20.694  0.00  0.00    +0.054 C 
ATOM      4  C   UNL     1      35.845 -20.633 -20.040  0.00  0.00    +0.006 C 
ATOM      5  C   UNL     1      33.438 -20.524 -20.219  0.00  0.00    +0.006 C 
ATOM      6  C   UNL     1      34.460 -21.779 -18.426  0.00  0.00    +0.048 C 
ATOM      7  C   UNL     1      35.724 -21.434 -18.904  0.00  0.00    +0.015 C 
ATOM      8  C   UNL     1      33.317 -21.324 -19.083  0.00  0.00    +0.015 C 
BRANCH   3  16
ATOM      9  O   UNL     1      35.208 -19.904 -22.914  0.00  0.00    -0.270 OA
ATOM     10  N   UNL     1      34.525 -17.980 -21.774  0.00  0.00    -0.276 N 
ATOM     11  C   UNL     1      35.233 -15.193 -21.392  0.00  0.00    +0.102 C 
ATOM     12  C   UNL     1      35.568 -15.950 -22.682  0.00  0.00    +0.033 C 
ATOM     13  C   UNL     1      34.999 -16.139 -20.208  0.00  0.00    +0.033 C 
ATOM     14  C   UNL     1      34.615 -17.115 -22.947  0.00  0.00    +0.094 C 
ATOM     15  C   UNL     1      34.073 -17.305 -20.553  0.00  0.00    +0.094 C 
ATOM     16  C   UNL     1      34.829 -19.339 -21.890  0.00  0.00    +0.249 C 
BRANCH  11  18
ATOM     17  O   UNL     1      33.526 -14.106 -22.701  0.00  0.00    -0.250 OA
ATOM     18  C   UNL     1      34.048 -14.297 -21.611  0.00  0.00    +0.317 C 
BRANCH  18  19
ATOM     19  O   UNL     1      33.665 -13.750 -20.423  0.00  0.00    -0.444 OA
ATOM     20  C   UNL     1      32.265 -13.483 -20.291  0.00  0.00    +0.256 C 
ENDBRANCH  18  19
ENDBRANCH  11  18
ENDBRANCH   3  16
ENDBRANCH   1   6
BRANCH   1  21
ATOM     21  C   UNL     1      34.826 -22.118 -15.994  0.00  0.00    +0.148 C 
BRANCH  21  28
ATOM     22  N   UNL     1      36.002 -24.090 -15.215  0.00  0.00    -0.392 NA
ATOM     23  N   UNL     1      38.427 -22.755 -15.249  0.00  0.00    -0.200 NA
ATOM     24  N   UNL     1      39.504 -24.665 -14.504  0.00  0.00    -0.271 NA
ATOM     25  N   UNL     1      38.282 -26.684 -14.077  0.00  0.00    -0.310 NA
ATOM     26  N   UNL     1      35.945 -26.729 -14.422  0.00  0.00    -0.329 N 
ATOM     27  N   UNL     1      40.600 -26.599 -13.749  0.00  0.00    -0.283 N 
ATOM     28  C   UNL     1      36.099 -22.813 -15.588  0.00  0.00    +0.133 C 
ATOM     29  C   UNL     1      37.281 -22.146 -15.609  0.00  0.00    +0.193 C 
ATOM     30  C   UNL     1      37.149 -24.699 -14.855  0.00  0.00    +0.248 C 
ATOM     31  C   UNL     1      38.379 -24.038 -14.867  0.00  0.00    +0.131 C 
ATOM     32  C   UNL     1      37.174 -26.019 -14.450  0.00  0.00    +0.231 C 
ATOM     33  C   UNL     1      39.402 -25.954 -14.128  0.00  0.00    +0.207 C 
ATOM     34  H   UNL     1      35.929 -27.672 -14.138  0.00  0.00    +0.145 HD
ATOM     35  H   UNL     1      35.111 -26.280 -14.687  0.00  0.00    +0.145 HD
ATOM     36  H   UNL     1      41.452 -26.106 -13.768  0.00  0.00    +0.156 HD
ATOM     37  H   UNL     1      40.582 -27.541 -13.464  0.00  0.00    +0.156 HD
ENDBRANCH  21  28
ENDBRANCH   1  21
TORSDOF 6
ENDMDL
MODEL 8
REMARK VINA RESULT:     -10.8      3.688     10.742
REMARK  Name = 23629645
REMARK  6 active torsions:
REMARK  status: ('A' for Active; 'I' for Inactive)
REMARK    1  A    between atoms: N_1  and  C_6
REMARK    2  A    between atoms: N_1  and  C_21
REMARK    3  A    between atoms: C_3  and  C_16
REMARK    4  A    between atoms: C_11  and  C_18
REMARK    5  A    between atoms: C_18  and  O_19
REMARK    6  A    between atoms: C_21  and  C_28
REMARK                            x       y       z     vdW  Elec       q    Type
REMARK                         _______ _______ _______ _____ _____    ______ ____
ROOT
ATOM      1  N   UNL     1      35.522 -21.955 -17.706  0.00  0.00    -0.300 N 
ATOM      2  C   UNL     1      36.683 -21.826 -16.849  0.00  0.00    +0.113 C 
ENDROOT
BRANCH   1   6
ATOM      3  C   UNL     1      35.133 -19.561 -21.130  0.00  0.00    +0.054 C 
ATOM      4  C   UNL     1      36.386 -19.742 -20.550  0.00  0.00    +0.006 C 
ATOM      5  C   UNL     1      34.008 -20.169 -20.579  0.00  0.00    +0.006 C 
ATOM      6  C   UNL     1      35.391 -21.150 -18.858  0.00  0.00    +0.048 C 
ATOM      7  C   UNL     1      36.516 -20.538 -19.412  0.00  0.00    +0.015 C 
ATOM      8  C   UNL     1      34.137 -20.965 -19.441  0.00  0.00    +0.015 C 
BRANCH   3  16
ATOM      9  O   UNL     1      35.289 -19.252 -23.398  0.00  0.00    -0.270 OA
ATOM     10  N   UNL     1      34.562 -17.405 -22.164  0.00  0.00    -0.276 N 
ATOM     11  C   UNL     1      35.000 -14.552 -21.872  0.00  0.00    +0.102 C 
ATOM     12  C   UNL     1      35.234 -15.281 -23.200  0.00  0.00    +0.033 C 
ATOM     13  C   UNL     1      35.042 -15.505 -20.671  0.00  0.00    +0.033 C 
ATOM     14  C   UNL     1      34.389 -16.548 -23.334  0.00  0.00    +0.094 C 
ATOM     15  C   UNL     1      34.213 -16.770 -20.888  0.00  0.00    +0.094 C 
ATOM     16  C   UNL     1      34.996 -18.722 -22.328  0.00  0.00    +0.249 C 
BRANCH  11  18
ATOM     17  O   UNL     1      33.068 -13.588 -22.942  0.00  0.00    -0.250 OA
ATOM     18  C   UNL     1      33.704 -13.796 -21.917  0.00  0.00    +0.317 C 
BRANCH  18  19
ATOM     19  O   UNL     1      33.368 -13.392 -20.660  0.00  0.00    -0.444 OA
ATOM     20  C   UNL     1      32.004 -12.993 -20.486  0.00  0.00    +0.256 C 
ENDBRANCH  18  19
ENDBRANCH  11  18
ENDBRANCH   3  16
ENDBRANCH   1   6
BRANCH   1  21
ATOM     21  C   UNL     1      34.490 -22.911 -17.359  0.00  0.00    +0.148 C 
BRANCH  21  28
ATOM     22  N   UNL     1      35.626 -23.766 -15.395  0.00  0.00    -0.392 NA
ATOM     23  N   UNL     1      33.404 -23.307 -13.810  0.00  0.00    -0.200 NA
ATOM     24  N   UNL     1      34.532 -24.133 -11.964  0.00  0.00    -0.271 NA
ATOM     25  N   UNL     1      36.790 -24.918 -12.149  0.00  0.00    -0.310 NA
ATOM     26  N   UNL     1      37.884 -24.850 -14.242  0.00  0.00    -0.329 N 
ATOM     27  N   UNL     1      35.674 -24.969 -10.091  0.00  0.00    -0.283 N 
ATOM     28  C   UNL     1      34.503 -23.244 -15.891  0.00  0.00    +0.133 C 
ATOM     29  C   UNL     1      33.405 -23.014 -15.125  0.00  0.00    +0.193 C 
ATOM     30  C   UNL     1      35.623 -24.059 -14.080  0.00  0.00    +0.248 C 
ATOM     31  C   UNL     1      34.510 -23.833 -13.268  0.00  0.00    +0.131 C 
ATOM     32  C   UNL     1      36.729 -24.603 -13.455  0.00  0.00    +0.231 C 
ATOM     33  C   UNL     1      35.668 -24.659 -11.469  0.00  0.00    +0.207 C 
ATOM     34  H   UNL     1      38.688 -25.237 -13.827  0.00  0.00    +0.145 HD
ATOM     35  H   UNL     1      37.880 -24.633 -15.202  0.00  0.00    +0.145 HD
ATOM     36  H   UNL     1      34.872 -24.797  -9.545  0.00  0.00    +0.156 HD
ATOM     37  H   UNL     1      36.478 -25.357  -9.677  0.00  0.00    +0.156 HD
ENDBRANCH  21  28
ENDBRANCH   1  21
TORSDOF 6
ENDMDL
MODEL 9
REMARK VINA RESULT:     -10.7      4.459     10.851
REMARK  Name = 23629645
REMARK  6 active torsions:
REMARK  status: ('A' for Active; 'I' for Inactive)
REMARK    1  A    between atoms: N_1  and  C_6
REMARK    2  A    between atoms: N_1  and  C_21
REMARK    3  A    between atoms: C_3  and  C_16
REMARK    4  A    between atoms: C_11  and  C_18
REMARK    5  A    between atoms: C_18  and  O_19
REMARK    6  A    between atoms: C_21  and  C_28
REMARK                            x       y       z     vdW  Elec       q    Type
REMARK                         _______ _______ _______ _____ _____    ______ ____
ROOT
ATOM      1  N   UNL     1      35.655 -19.465 -20.977  0.00  0.00    -0.300 N 
ATOM      2  C   UNL     1      36.894 -19.342 -20.235  0.00  0.00    +0.113 C 
ENDROOT
BRANCH   1   6
ATOM      3  C   UNL     1      34.465 -16.449 -23.641  0.00  0.00    +0.054 C 
ATOM      4  C   UNL     1      35.219 -16.123 -22.516  0.00  0.00    +0.006 C 
ATOM      5  C   UNL     1      34.104 -17.771 -23.885  0.00  0.00    +0.006 C 
ATOM      6  C   UNL     1      35.255 -18.450 -21.873  0.00  0.00    +0.048 C 
ATOM      7  C   UNL     1      35.615 -17.125 -21.631  0.00  0.00    +0.015 C 
ATOM      8  C   UNL     1      34.500 -18.774 -23.000  0.00  0.00    +0.015 C 
BRANCH   3  16
ATOM      9  O   UNL     1      34.100 -15.673 -25.768  0.00  0.00    -0.270 OA
ATOM     10  N   UNL     1      33.640 -14.168 -24.040  0.00  0.00    -0.276 N 
ATOM     11  C   UNL     1      34.085 -11.413 -23.246  0.00  0.00    +0.102 C 
ATOM     12  C   UNL     1      34.025 -11.839 -24.718  0.00  0.00    +0.033 C 
ATOM     13  C   UNL     1      34.413 -12.587 -22.316  0.00  0.00    +0.033 C 
ATOM     14  C   UNL     1      33.193 -13.103 -24.933  0.00  0.00    +0.094 C 
ATOM     15  C   UNL     1      33.577 -13.832 -22.613  0.00  0.00    +0.094 C 
ATOM     16  C   UNL     1      34.048 -15.393 -24.572  0.00  0.00    +0.249 C 
BRANCH  11  18
ATOM     17  O   UNL     1      32.024 -11.202 -22.016  0.00  0.00    -0.250 OA
ATOM     18  C   UNL     1      32.799 -10.749 -22.847  0.00  0.00    +0.317 C 
BRANCH  18  19
ATOM     19  O   UNL     1      32.648  -9.590 -23.548  0.00  0.00    -0.444 OA
ATOM     20  C   UNL     1      33.273  -8.438 -22.974  0.00  0.00    +0.256 C 
ENDBRANCH  18  19
ENDBRANCH  11  18
ENDBRANCH   3  16
ENDBRANCH   1   6
BRANCH   1  21
ATOM     21  C   UNL     1      34.825 -20.636 -20.778  0.00  0.00    +0.148 C 
BRANCH  21  28
ATOM     22  N   UNL     1      34.002 -21.729 -18.776  0.00  0.00    -0.392 NA
ATOM     23  N   UNL     1      36.562 -21.944 -17.744  0.00  0.00    -0.200 NA
ATOM     24  N   UNL     1      35.726 -22.983 -15.851  0.00  0.00    -0.271 NA
ATOM     25  N   UNL     1      33.375 -23.383 -15.599  0.00  0.00    -0.310 NA
ATOM     26  N   UNL     1      31.886 -22.708 -17.305  0.00  0.00    -0.329 N 
ATOM     27  N   UNL     1      34.883 -24.038 -13.931  0.00  0.00    -0.283 N 
ATOM     28  C   UNL     1      35.069 -21.276 -19.437  0.00  0.00    +0.133 C 
ATOM     29  C   UNL     1      36.330 -21.374 -18.943  0.00  0.00    +0.193 C 
ATOM     30  C   UNL     1      34.236 -22.298 -17.578  0.00  0.00    +0.248 C 
ATOM     31  C   UNL     1      35.521 -22.413 -17.044  0.00  0.00    +0.131 C 
ATOM     32  C   UNL     1      33.210 -22.804 -16.802  0.00  0.00    +0.231 C 
ATOM     33  C   UNL     1      34.647 -23.439 -15.188  0.00  0.00    +0.207 C 
ATOM     34  H   UNL     1      31.133 -23.059 -16.777  0.00  0.00    +0.145 HD
ATOM     35  H   UNL     1      31.722 -22.292 -18.182  0.00  0.00    +0.145 HD
ATOM     36  H   UNL     1      35.801 -24.104 -13.582  0.00  0.00    +0.156 HD
ATOM     37  H   UNL     1      34.129 -24.387 -13.403  0.00  0.00    +0.156 HD
ENDBRANCH  21  28
ENDBRANCH   1  21
TORSDOF 6
ENDMDL
