MODEL 1
REMARK VINA RESULT:     -11.4      0.000      0.000
REMARK  Name = 5287459
REMARK  5 active torsions:
REMARK  status: ('A' for Active; 'I' for Inactive)
REMARK    1  A    between atoms: C_1  and  C_7
REMARK    2  A    between atoms: C_4  and  C_21
REMARK    3  A    between atoms: C_5  and  C_25
REMARK    4  A    between atoms: C_8  and  C_13
REMARK    5  A    between atoms: C_25  and  O_26
REMARK                            x       y       z     vdW  Elec       q    Type
REMARK                         _______ _______ _______ _____ _____    ______ ____
ROOT
ATOM      1  C   UNL     1      37.246 -23.546 -14.688  0.00  0.00    +0.000 C 
ATOM      2  C   UNL     1      36.766 -23.364 -13.391  0.00  0.00    +0.005 C 
ATOM      3  C   UNL     1      38.362 -24.351 -14.912  0.00  0.00    +0.006 C 
ATOM      4  C   UNL     1      37.402 -23.990 -12.319  0.00  0.00    +0.053 C 
ATOM      5  C   UNL     1      38.999 -24.976 -13.840  0.00  0.00    +0.076 C 
ATOM      6  C   UNL     1      38.518 -24.795 -12.543  0.00  0.00    +0.011 C 
ENDROOT
BRANCH   1   7
ATOM      7  C   UNL     1      36.586 -22.897 -15.800  0.00  0.00    +0.000 C 
ATOM      8  C   UNL     1      35.313 -21.647 -17.945  0.00  0.00    +0.000 C 
ATOM      9  C   UNL     1      35.237 -23.148 -16.054  0.00  0.00    +0.000 C 
ATOM     10  C   UNL     1      37.298 -22.021 -16.619  0.00  0.00    +0.000 C 
ATOM     11  C   UNL     1      34.601 -22.524 -17.127  0.00  0.00    +0.000 C 
ATOM     12  C   UNL     1      36.662 -21.396 -17.692  0.00  0.00    +0.000 C 
BRANCH   8  13
ATOM     13  C   UNL     1      34.654 -20.999 -19.059  0.00  0.00    +0.000 C 
ATOM     14  C   UNL     1      35.409 -20.350 -20.035  0.00  0.00    +0.000 C 
ATOM     15  C   UNL     1      33.263 -21.025 -19.155  0.00  0.00    +0.000 C 
ATOM     16  C   UNL     1      34.773 -19.726 -21.109  0.00  0.00    +0.000 C 
ATOM     17  C   UNL     1      32.627 -20.401 -20.228  0.00  0.00    +0.000 C 
ATOM     18  C   UNL     1      33.381 -19.751 -21.205  0.00  0.00    +0.000 C 
ENDBRANCH   8  13
ENDBRANCH   1   7
BRANCH   4  21
ATOM     19  O   UNL     1      37.385 -22.936 -10.212  0.00  0.00    -0.270 OA
ATOM     20  N   UNL     1      35.851 -24.608 -10.544  0.00  0.00    -0.325 N 
ATOM     21  C   UNL     1      36.902 -23.800 -10.966  0.00  0.00    +0.243 C 
ATOM     22  H   UNL     1      35.487 -24.509  -9.635  0.00  0.00    +0.145 HD
ATOM     23  H   UNL     1      35.470 -25.279 -11.156  0.00  0.00    +0.145 HD
ENDBRANCH   4  21
BRANCH   5  25
ATOM     24  O   UNL     1      40.798 -26.419 -13.204  0.00  0.00    -0.245 OA
ATOM     25  C   UNL     1      40.163 -25.815 -14.075  0.00  0.00    +0.338 C 
BRANCH  25  26
ATOM     26  O   UNL     1      40.501 -25.879 -15.392  0.00  0.00    -0.477 OA
ATOM     27  H   UNL     1      41.229 -26.402 -15.665  0.00  0.00    +0.295 HD
ENDBRANCH  25  26
ENDBRANCH   5  25
TORSDOF 5
ENDMDL
MODEL 2
REMARK VINA RESULT:     -11.1      2.702      4.400
REMARK  Name = 5287459
REMARK  5 active torsions:
REMARK  status: ('A' for Active; 'I' for Inactive)
REMARK    1  A    between atoms: C_1  and  C_7
REMARK    2  A    between atoms: C_4  and  C_21
REMARK    3  A    between atoms: C_5  and  C_25
REMARK    4  A    between atoms: C_8  and  C_13
REMARK    5  A    between atoms: C_25  and  O_26
REMARK                            x       y       z     vdW  Elec       q    Type
REMARK                         _______ _______ _______ _____ _____    ______ ____
ROOT
ATOM      1  C   UNL     1      34.952 -23.062 -15.916  0.00  0.00    +0.000 C 
ATOM      2  C   UNL     1      36.079 -23.603 -15.298  0.00  0.00    +0.005 C 
ATOM      3  C   UNL     1      33.684 -23.304 -15.389  0.00  0.00    +0.006 C 
ATOM      4  C   UNL     1      35.938 -24.384 -14.152  0.00  0.00    +0.053 C 
ATOM      5  C   UNL     1      33.543 -24.087 -14.243  0.00  0.00    +0.076 C 
ATOM      6  C   UNL     1      34.671 -24.627 -13.624  0.00  0.00    +0.011 C 
ENDROOT
BRANCH   1   7
ATOM      7  C   UNL     1      35.098 -22.251 -17.106  0.00  0.00    +0.000 C 
ATOM      8  C   UNL     1      35.381 -20.687 -19.399  0.00  0.00    +0.000 C 
ATOM      9  C   UNL     1      36.327 -21.658 -17.399  0.00  0.00    +0.000 C 
ATOM     10  C   UNL     1      34.011 -22.062 -17.959  0.00  0.00    +0.000 C 
ATOM     11  C   UNL     1      36.468 -20.876 -18.545  0.00  0.00    +0.000 C 
ATOM     12  C   UNL     1      34.152 -21.279 -19.105  0.00  0.00    +0.000 C 
BRANCH   8  13
ATOM     13  C   UNL     1      35.526 -19.875 -20.587  0.00  0.00    +0.000 C 
ATOM     14  C   UNL     1      34.529 -19.880 -21.562  0.00  0.00    +0.000 C 
ATOM     15  C   UNL     1      36.663 -19.087 -20.757  0.00  0.00    +0.000 C 
ATOM     16  C   UNL     1      34.669 -19.096 -22.708  0.00  0.00    +0.000 C 
ATOM     17  C   UNL     1      36.804 -18.303 -21.903  0.00  0.00    +0.000 C 
ATOM     18  C   UNL     1      35.808 -18.308 -22.879  0.00  0.00    +0.000 C 
ENDBRANCH   8  13
ENDBRANCH   1   7
BRANCH   4  21
ATOM     19  O   UNL     1      38.184 -24.315 -13.443  0.00  0.00    -0.270 OA
ATOM     20  N   UNL     1      37.001 -26.217 -12.947  0.00  0.00    -0.325 N 
ATOM     21  C   UNL     1      37.114 -24.948 -13.507  0.00  0.00    +0.243 C 
ATOM     22  H   UNL     1      37.777 -26.631 -12.503  0.00  0.00    +0.145 HD
ATOM     23  H   UNL     1      36.145 -26.701 -12.995  0.00  0.00    +0.145 HD
ENDBRANCH   4  21
BRANCH   5  25
ATOM     24  O   UNL     1      31.170 -23.824 -14.088  0.00  0.00    -0.245 OA
ATOM     25  C   UNL     1      32.220 -24.339 -13.693  0.00  0.00    +0.338 C 
BRANCH  25  26
ATOM     26  O   UNL     1      32.247 -25.231 -12.664  0.00  0.00    -0.477 OA
ATOM     27  H   UNL     1      32.296 -24.925 -11.780  0.00  0.00    +0.295 HD
ENDBRANCH  25  26
ENDBRANCH   5  25
TORSDOF 5
ENDMDL
MODEL 3
REMARK VINA RESULT:     -11.0      1.570      3.359
REMARK  Name = 5287459
REMARK  5 active torsions:
REMARK  status: ('A' for Active; 'I' for Inactive)
REMARK    1  A    between atoms: C_1  and  C_7
REMARK    2  A    between atoms: C_4  and  C_21
REMARK    3  A    between atoms: C_5  and  C_25
REMARK    4  A    between atoms: C_8  and  C_13
REMARK    5  A    between atoms: C_25  and  O_26
REMARK                            x       y       z     vdW  Elec       q    Type
REMARK                         _______ _______ _______ _____ _____    ______ ____
ROOT
ATOM      1  C   UNL     1      36.777 -23.530 -14.691  0.00  0.00    +0.000 C 
ATOM      2  C   UNL     1      38.060 -24.075 -14.711  0.00  0.00    +0.005 C 
ATOM      3  C   UNL     1      35.993 -23.635 -13.543  0.00  0.00    +0.006 C 
ATOM      4  C   UNL     1      38.560 -24.723 -13.582  0.00  0.00    +0.053 C 
ATOM      5  C   UNL     1      36.492 -24.284 -12.413  0.00  0.00    +0.076 C 
ATOM      6  C   UNL     1      37.776 -24.828 -12.434  0.00  0.00    +0.011 C 
ENDROOT
BRANCH   1   7
ATOM      7  C   UNL     1      36.258 -22.858 -15.862  0.00  0.00    +0.000 C 
ATOM      8  C   UNL     1      35.258 -21.560 -18.121  0.00  0.00    +0.000 C 
ATOM      9  C   UNL     1      37.081 -22.006 -16.599  0.00  0.00    +0.000 C 
ATOM     10  C   UNL     1      34.935 -23.061 -16.255  0.00  0.00    +0.000 C 
ATOM     11  C   UNL     1      36.581 -21.357 -17.728  0.00  0.00    +0.000 C 
ATOM     12  C   UNL     1      34.435 -22.412 -17.384  0.00  0.00    +0.000 C 
BRANCH   8  13
ATOM     13  C   UNL     1      34.739 -20.887 -19.292  0.00  0.00    +0.000 C 
ATOM     14  C   UNL     1      33.362 -20.810 -19.499  0.00  0.00    +0.000 C 
ATOM     15  C   UNL     1      35.616 -20.315 -20.213  0.00  0.00    +0.000 C 
ATOM     16  C   UNL     1      32.862 -20.160 -20.628  0.00  0.00    +0.000 C 
ATOM     17  C   UNL     1      35.116 -19.666 -21.342  0.00  0.00    +0.000 C 
ATOM     18  C   UNL     1      33.739 -19.588 -21.550  0.00  0.00    +0.000 C 
ENDBRANCH   8  13
ENDBRANCH   1   7
BRANCH   4  21
ATOM     19  O   UNL     1      40.904 -24.588 -13.395  0.00  0.00    -0.270 OA
ATOM     20  N   UNL     1      40.021 -26.656 -13.846  0.00  0.00    -0.325 N 
ATOM     21  C   UNL     1      39.899 -25.291 -13.602  0.00  0.00    +0.243 C 
ATOM     22  H   UNL     1      40.911 -27.075 -13.868  0.00  0.00    +0.145 HD
ATOM     23  H   UNL     1      39.215 -27.203 -13.995  0.00  0.00    +0.145 HD
ENDBRANCH   4  21
BRANCH   5  25
ATOM     24  O   UNL     1      35.921 -25.112 -10.243  0.00  0.00    -0.245 OA
ATOM     25  C   UNL     1      35.674 -24.393 -11.216  0.00  0.00    +0.338 C 
BRANCH  25  26
ATOM     26  O   UNL     1      34.569 -23.598 -11.267  0.00  0.00    -0.477 OA
ATOM     27  H   UNL     1      34.026 -23.598 -12.030  0.00  0.00    +0.295 HD
ENDBRANCH  25  26
ENDBRANCH   5  25
TORSDOF 5
ENDMDL
MODEL 4
REMARK VINA RESULT:     -11.0      3.388      5.235
REMARK  Name = 5287459
REMARK  5 active torsions:
REMARK  status: ('A' for Active; 'I' for Inactive)
REMARK    1  A    between atoms: C_1  and  C_7
REMARK    2  A    between atoms: C_4  and  C_21
REMARK    3  A    between atoms: C_5  and  C_25
REMARK    4  A    between atoms: C_8  and  C_13
REMARK    5  A    between atoms: C_25  and  O_26
REMARK                            x       y       z     vdW  Elec       q    Type
REMARK                         _______ _______ _______ _____ _____    ______ ____
ROOT
ATOM      1  C   UNL     1      33.506 -22.444 -17.263  0.00  0.00    +0.000 C 
ATOM      2  C   UNL     1      32.196 -22.715 -16.868  0.00  0.00    +0.005 C 
ATOM      3  C   UNL     1      34.575 -22.994 -16.557  0.00  0.00    +0.006 C 
ATOM      4  C   UNL     1      31.956 -23.538 -15.768  0.00  0.00    +0.053 C 
ATOM      5  C   UNL     1      34.335 -23.817 -15.456  0.00  0.00    +0.076 C 
ATOM      6  C   UNL     1      33.025 -24.088 -15.062  0.00  0.00    +0.011 C 
ENDROOT
BRANCH   1   7
ATOM      7  C   UNL     1      33.755 -21.591 -18.405  0.00  0.00    +0.000 C 
ATOM      8  C   UNL     1      34.237 -19.945 -20.605  0.00  0.00    +0.000 C 
ATOM      9  C   UNL     1      35.062 -21.377 -18.843  0.00  0.00    +0.000 C 
ATOM     10  C   UNL     1      32.689 -20.982 -19.067  0.00  0.00    +0.000 C 
ATOM     11  C   UNL     1      35.303 -20.554 -19.943  0.00  0.00    +0.000 C 
ATOM     12  C   UNL     1      32.930 -20.158 -20.166  0.00  0.00    +0.000 C 
BRANCH   8  13
ATOM     13  C   UNL     1      34.486 -19.090 -21.746  0.00  0.00    +0.000 C 
ATOM     14  C   UNL     1      33.903 -19.382 -22.978  0.00  0.00    +0.000 C 
ATOM     15  C   UNL     1      35.310 -17.973 -21.612  0.00  0.00    +0.000 C 
ATOM     16  C   UNL     1      34.142 -18.558 -24.077  0.00  0.00    +0.000 C 
ATOM     17  C   UNL     1      35.551 -17.148 -22.711  0.00  0.00    +0.000 C 
ATOM     18  C   UNL     1      34.968 -17.440 -23.943  0.00  0.00    +0.000 C 
ENDBRANCH   8  13
ENDBRANCH   1   7
BRANCH   4  21
ATOM     19  O   UNL     1      30.322 -24.792 -14.625  0.00  0.00    -0.270 OA
ATOM     20  N   UNL     1      29.589 -22.958 -15.792  0.00  0.00    -0.325 N 
ATOM     21  C   UNL     1      30.590 -23.821 -15.356  0.00  0.00    +0.243 C 
ATOM     22  H   UNL     1      28.653 -23.119 -15.533  0.00  0.00    +0.145 HD
ATOM     23  H   UNL     1      29.818 -22.187 -16.359  0.00  0.00    +0.145 HD
ENDBRANCH   4  21
BRANCH   5  25
ATOM     24  O   UNL     1      36.640 -24.309 -15.043  0.00  0.00    -0.245 OA
ATOM     25  C   UNL     1      35.451 -24.390 -14.720  0.00  0.00    +0.338 C 
BRANCH  25  26
ATOM     26  O   UNL     1      35.049 -25.049 -13.598  0.00  0.00    -0.477 OA
ATOM     27  H   UNL     1      34.500 -25.805 -13.670  0.00  0.00    +0.295 HD
ENDBRANCH  25  26
ENDBRANCH   5  25
TORSDOF 5
ENDMDL
MODEL 5
REMARK VINA RESULT:     -10.9      2.716      3.534
REMARK  Name = 5287459
REMARK  5 active torsions:
REMARK  status: ('A' for Active; 'I' for Inactive)
REMARK    1  A    between atoms: C_1  and  C_7
REMARK    2  A    between atoms: C_4  and  C_21
REMARK    3  A    between atoms: C_5  and  C_25
REMARK    4  A    between atoms: C_8  and  C_13
REMARK    5  A    between atoms: C_25  and  O_26
REMARK                            x       y       z     vdW  Elec       q    Type
REMARK                         _______ _______ _______ _____ _____    ______ ____
ROOT
ATOM      1  C   UNL     1      34.806 -23.200 -15.889  0.00  0.00    +0.000 C 
ATOM      2  C   UNL     1      33.525 -23.406 -15.378  0.00  0.00    +0.005 C 
ATOM      3  C   UNL     1      35.907 -23.791 -15.270  0.00  0.00    +0.006 C 
ATOM      4  C   UNL     1      33.344 -24.206 -14.250  0.00  0.00    +0.053 C 
ATOM      5  C   UNL     1      35.727 -24.590 -14.141  0.00  0.00    +0.076 C 
ATOM      6  C   UNL     1      34.445 -24.797 -13.631  0.00  0.00    +0.011 C 
ENDROOT
BRANCH   1   7
ATOM      7  C   UNL     1      34.994 -22.370 -17.059  0.00  0.00    +0.000 C 
ATOM      8  C   UNL     1      35.354 -20.771 -19.317  0.00  0.00    +0.000 C 
ATOM      9  C   UNL     1      33.923 -22.127 -17.920  0.00  0.00    +0.000 C 
ATOM     10  C   UNL     1      36.244 -21.814 -17.327  0.00  0.00    +0.000 C 
ATOM     11  C   UNL     1      34.103 -21.328 -19.049  0.00  0.00    +0.000 C 
ATOM     12  C   UNL     1      36.425 -21.015 -18.456  0.00  0.00    +0.000 C 
BRANCH   8  13
ATOM     13  C   UNL     1      35.542 -19.943 -20.488  0.00  0.00    +0.000 C 
ATOM     14  C   UNL     1      36.689 -19.160 -20.613  0.00  0.00    +0.000 C 
ATOM     15  C   UNL     1      34.576 -19.928 -21.493  0.00  0.00    +0.000 C 
ATOM     16  C   UNL     1      36.871 -18.362 -21.742  0.00  0.00    +0.000 C 
ATOM     17  C   UNL     1      34.756 -19.130 -22.623  0.00  0.00    +0.000 C 
ATOM     18  C   UNL     1      35.903 -18.347 -22.748  0.00  0.00    +0.000 C 
ENDBRANCH   8  13
ENDBRANCH   1   7
BRANCH   4  21
ATOM     19  O   UNL     1      31.824 -25.072 -12.673  0.00  0.00    -0.270 OA
ATOM     20  N   UNL     1      30.937 -23.859 -14.406  0.00  0.00    -0.325 N 
ATOM     21  C   UNL     1      32.008 -24.421 -13.718  0.00  0.00    +0.243 C 
ATOM     22  H   UNL     1      30.018 -23.985 -14.076  0.00  0.00    +0.145 HD
ATOM     23  H   UNL     1      31.099 -23.336 -15.225  0.00  0.00    +0.145 HD
ENDBRANCH   4  21
BRANCH   5  25
ATOM     24  O   UNL     1      37.963 -24.659 -13.293  0.00  0.00    -0.245 OA
ATOM     25  C   UNL     1      36.875 -25.207 -13.496  0.00  0.00    +0.338 C 
BRANCH  25  26
ATOM     26  O   UNL     1      36.631 -26.493 -13.120  0.00  0.00    -0.477 OA
ATOM     27  H   UNL     1      37.122 -27.194 -13.500  0.00  0.00    +0.295 HD
ENDBRANCH  25  26
ENDBRANCH   5  25
TORSDOF 5
ENDMDL
MODEL 6
REMARK VINA RESULT:     -10.8      3.400      5.422
REMARK  Name = 5287459
REMARK  5 active torsions:
REMARK  status: ('A' for Active; 'I' for Inactive)
REMARK    1  A    between atoms: C_1  and  C_7
REMARK    2  A    between atoms: C_4  and  C_21
REMARK    3  A    between atoms: C_5  and  C_25
REMARK    4  A    between atoms: C_8  and  C_13
REMARK    5  A    between atoms: C_25  and  O_26
REMARK                            x       y       z     vdW  Elec       q    Type
REMARK                         _______ _______ _______ _____ _____    ______ ____
ROOT
ATOM      1  C   UNL     1      33.507 -22.758 -16.891  0.00  0.00    +0.000 C 
ATOM      2  C   UNL     1      34.536 -23.359 -16.167  0.00  0.00    +0.005 C 
ATOM      3  C   UNL     1      32.179 -22.974 -16.526  0.00  0.00    +0.006 C 
ATOM      4  C   UNL     1      34.237 -24.176 -15.077  0.00  0.00    +0.053 C 
ATOM      5  C   UNL     1      31.879 -23.792 -15.436  0.00  0.00    +0.076 C 
ATOM      6  C   UNL     1      32.909 -24.393 -14.712  0.00  0.00    +0.011 C 
ENDROOT
BRANCH   1   7
ATOM      7  C   UNL     1      33.817 -21.910 -18.022  0.00  0.00    +0.000 C 
ATOM      8  C   UNL     1      34.414 -20.276 -20.203  0.00  0.00    +0.000 C 
ATOM      9  C   UNL     1      32.789 -21.281 -18.724  0.00  0.00    +0.000 C 
ATOM     10  C   UNL     1      35.144 -21.721 -18.409  0.00  0.00    +0.000 C 
ATOM     11  C   UNL     1      33.087 -20.465 -19.815  0.00  0.00    +0.000 C 
ATOM     12  C   UNL     1      35.442 -20.905 -19.500  0.00  0.00    +0.000 C 
BRANCH   8  13
ATOM     13  C   UNL     1      34.724 -19.429 -21.335  0.00  0.00    +0.000 C 
ATOM     14  C   UNL     1      35.841 -18.596 -21.297  0.00  0.00    +0.000 C 
ATOM     15  C   UNL     1      33.905 -19.448 -22.463  0.00  0.00    +0.000 C 
ATOM     16  C   UNL     1      36.140 -17.780 -22.389  0.00  0.00    +0.000 C 
ATOM     17  C   UNL     1      34.204 -18.633 -23.555  0.00  0.00    +0.000 C 
ATOM     18  C   UNL     1      35.321 -17.799 -23.519  0.00  0.00    +0.000 C 
ENDBRANCH   8  13
ENDBRANCH   1   7
BRANCH   4  21
ATOM     19  O   UNL     1      36.282 -25.331 -14.894  0.00  0.00    -0.270 OA
ATOM     20  N   UNL     1      35.227 -24.782 -12.934  0.00  0.00    -0.325 N 
ATOM     21  C   UNL     1      35.311 -24.804 -14.323  0.00  0.00    +0.243 C 
ATOM     22  H   UNL     1      35.935 -25.197 -12.390  0.00  0.00    +0.145 HD
ATOM     23  H   UNL     1      34.458 -24.350 -12.494  0.00  0.00    +0.145 HD
ENDBRANCH   4  21
BRANCH   5  25
ATOM     24  O   UNL     1      29.517 -23.418 -15.515  0.00  0.00    -0.245 OA
ATOM     25  C   UNL     1      30.494 -24.018 -15.055  0.00  0.00    +0.338 C 
BRANCH  25  26
ATOM     26  O   UNL     1      30.367 -24.989 -14.109  0.00  0.00    -0.477 OA
ATOM     27  H   UNL     1      29.923 -24.806 -13.305  0.00  0.00    +0.295 HD
ENDBRANCH  25  26
ENDBRANCH   5  25
TORSDOF 5
ENDMDL
MODEL 7
REMARK VINA RESULT:     -10.7      3.870      5.505
REMARK  Name = 5287459
REMARK  5 active torsions:
REMARK  status: ('A' for Active; 'I' for Inactive)
REMARK    1  A    between atoms: C_1  and  C_7
REMARK    2  A    between atoms: C_4  and  C_21
REMARK    3  A    between atoms: C_5  and  C_25
REMARK    4  A    between atoms: C_8  and  C_13
REMARK    5  A    between atoms: C_25  and  O_26
REMARK                            x       y       z     vdW  Elec       q    Type
REMARK                         _______ _______ _______ _____ _____    ______ ____
ROOT
ATOM      1  C   UNL     1      32.805 -22.819 -16.531  0.00  0.00    +0.000 C 
ATOM      2  C   UNL     1      31.437 -23.084 -16.484  0.00  0.00    +0.005 C 
ATOM      3  C   UNL     1      33.643 -23.294 -15.522  0.00  0.00    +0.006 C 
ATOM      4  C   UNL     1      30.906 -23.825 -15.428  0.00  0.00    +0.053 C 
ATOM      5  C   UNL     1      33.112 -24.035 -14.466  0.00  0.00    +0.076 C 
ATOM      6  C   UNL     1      31.743 -24.300 -14.419  0.00  0.00    +0.011 C 
ENDROOT
BRANCH   1   7
ATOM      7  C   UNL     1      33.356 -22.051 -17.626  0.00  0.00    +0.000 C 
ATOM      8  C   UNL     1      34.417 -20.568 -19.738  0.00  0.00    +0.000 C 
ATOM      9  C   UNL     1      32.507 -21.353 -18.485  0.00  0.00    +0.000 C 
ATOM     10  C   UNL     1      34.736 -22.006 -17.823  0.00  0.00    +0.000 C 
ATOM     11  C   UNL     1      33.037 -20.612 -19.541  0.00  0.00    +0.000 C 
ATOM     12  C   UNL     1      35.267 -21.266 -18.879  0.00  0.00    +0.000 C 
BRANCH   8  13
ATOM     13  C   UNL     1      34.968 -19.801 -20.834  0.00  0.00    +0.000 C 
ATOM     14  C   UNL     1      34.241 -19.647 -22.013  0.00  0.00    +0.000 C 
ATOM     15  C   UNL     1      36.228 -19.214 -20.709  0.00  0.00    +0.000 C 
ATOM     16  C   UNL     1      34.773 -18.906 -23.069  0.00  0.00    +0.000 C 
ATOM     17  C   UNL     1      36.760 -18.474 -21.765  0.00  0.00    +0.000 C 
ATOM     18  C   UNL     1      36.033 -18.319 -22.945  0.00  0.00    +0.000 C 
ENDBRANCH   8  13
ENDBRANCH   1   7
BRANCH   4  21
ATOM     19  O   UNL     1      28.994 -24.856 -14.516  0.00  0.00    -0.270 OA
ATOM     20  N   UNL     1      28.665 -23.478 -16.320  0.00  0.00    -0.325 N 
ATOM     21  C   UNL     1      29.479 -24.101 -15.379  0.00  0.00    +0.243 C 
ATOM     22  H   UNL     1      27.694 -23.642 -16.317  0.00  0.00    +0.145 HD
ATOM     23  H   UNL     1      29.061 -22.873 -16.989  0.00  0.00    +0.145 HD
ENDBRANCH   4  21
BRANCH   5  25
ATOM     24  O   UNL     1      33.817 -24.357 -12.202  0.00  0.00    -0.245 OA
ATOM     25  C   UNL     1      33.985 -24.530 -13.413  0.00  0.00    +0.338 C 
BRANCH  25  26
ATOM     26  O   UNL     1      35.046 -25.229 -13.904  0.00  0.00    -0.477 OA
ATOM     27  H   UNL     1      34.947 -25.750 -14.676  0.00  0.00    +0.295 HD
ENDBRANCH  25  26
ENDBRANCH   5  25
TORSDOF 5
ENDMDL
MODEL 8
REMARK VINA RESULT:     -10.7      4.621      6.542
REMARK  Name = 5287459
REMARK  5 active torsions:
REMARK  status: ('A' for Active; 'I' for Inactive)
REMARK    1  A    between atoms: C_1  and  C_7
REMARK    2  A    between atoms: C_4  and  C_21
REMARK    3  A    between atoms: C_5  and  C_25
REMARK    4  A    between atoms: C_8  and  C_13
REMARK    5  A    between atoms: C_25  and  O_26
REMARK                            x       y       z     vdW  Elec       q    Type
REMARK                         _______ _______ _______ _____ _____    ______ ____
ROOT
ATOM      1  C   UNL     1      32.003 -22.805 -16.647  0.00  0.00    +0.000 C 
ATOM      2  C   UNL     1      32.626 -23.412 -15.558  0.00  0.00    +0.005 C 
ATOM      3  C   UNL     1      30.619 -22.894 -16.797  0.00  0.00    +0.006 C 
ATOM      4  C   UNL     1      31.866 -24.108 -14.618  0.00  0.00    +0.053 C 
ATOM      5  C   UNL     1      29.859 -23.591 -15.858  0.00  0.00    +0.076 C 
ATOM      6  C   UNL     1      30.483 -24.197 -14.768  0.00  0.00    +0.011 C 
ENDROOT
BRANCH   1   7
ATOM      7  C   UNL     1      32.791 -22.083 -17.622  0.00  0.00    +0.000 C 
ATOM      8  C   UNL     1      34.312 -20.691 -19.502  0.00  0.00    +0.000 C 
ATOM      9  C   UNL     1      34.176 -22.247 -17.658  0.00  0.00    +0.000 C 
ATOM     10  C   UNL     1      32.167 -21.224 -18.526  0.00  0.00    +0.000 C 
ATOM     11  C   UNL     1      34.937 -21.551 -18.598  0.00  0.00    +0.000 C 
ATOM     12  C   UNL     1      32.927 -20.527 -19.466  0.00  0.00    +0.000 C 
BRANCH   8  13
ATOM     13  C   UNL     1      35.101 -19.968 -20.476  0.00  0.00    +0.000 C 
ATOM     14  C   UNL     1      36.411 -19.598 -20.178  0.00  0.00    +0.000 C 
ATOM     15  C   UNL     1      34.548 -19.643 -21.715  0.00  0.00    +0.000 C 
ATOM     16  C   UNL     1      37.171 -18.902 -21.118  0.00  0.00    +0.000 C 
ATOM     17  C   UNL     1      35.308 -18.946 -22.655  0.00  0.00    +0.000 C 
ATOM     18  C   UNL     1      36.619 -18.575 -22.357  0.00  0.00    +0.000 C 
ENDBRANCH   8  13
ENDBRANCH   1   7
BRANCH   4  21
ATOM     19  O   UNL     1      31.866 -25.124 -12.493  0.00  0.00    -0.270 OA
ATOM     20  N   UNL     1      33.895 -24.924 -13.542  0.00  0.00    -0.325 N 
ATOM     21  C   UNL     1      32.517 -24.742 -13.482  0.00  0.00    +0.243 C 
ATOM     22  H   UNL     1      34.370 -25.349 -12.791  0.00  0.00    +0.145 HD
ATOM     23  H   UNL     1      34.396 -24.628 -14.337  0.00  0.00    +0.145 HD
ENDBRANCH   4  21
BRANCH   5  25
ATOM     24  O   UNL     1      27.831 -24.306 -16.907  0.00  0.00    -0.245 OA
ATOM     25  C   UNL     1      28.416 -23.684 -16.015  0.00  0.00    +0.338 C 
BRANCH  25  26
ATOM     26  O   UNL     1      27.743 -22.997 -15.051  0.00  0.00    -0.477 OA
ATOM     27  H   UNL     1      28.092 -22.943 -14.184  0.00  0.00    +0.295 HD
ENDBRANCH  25  26
ENDBRANCH   5  25
TORSDOF 5
ENDMDL
MODEL 9
REMARK VINA RESULT:     -10.3      4.010      4.963
REMARK  Name = 5287459
REMARK  5 active torsions:
REMARK  status: ('A' for Active; 'I' for Inactive)
REMARK    1  A    between atoms: C_1  and  C_7
REMARK    2  A    between atoms: C_4  and  C_21
REMARK    3  A    between atoms: C_5  and  C_25
REMARK    4  A    between atoms: C_8  and  C_13
REMARK    5  A    between atoms: C_25  and  O_26
REMARK                            x       y       z     vdW  Elec       q    Type
REMARK                         _______ _______ _______ _____ _____    ______ ____
ROOT
ATOM      1  C   UNL     1      34.792 -24.280 -13.695  0.00  0.00    +0.000 C 
ATOM      2  C   UNL     1      35.400 -23.569 -12.661  0.00  0.00    +0.005 C 
ATOM      3  C   UNL     1      35.485 -25.303 -14.340  0.00  0.00    +0.006 C 
ATOM      4  C   UNL     1      36.702 -23.883 -12.271  0.00  0.00    +0.053 C 
ATOM      5  C   UNL     1      36.788 -25.617 -13.951  0.00  0.00    +0.076 C 
ATOM      6  C   UNL     1      37.396 -24.906 -12.916  0.00  0.00    +0.011 C 
ENDROOT
BRANCH   1   7
ATOM      7  C   UNL     1      33.441 -23.955 -14.100  0.00  0.00    +0.000 C 
ATOM      8  C   UNL     1      30.838 -23.328 -14.882  0.00  0.00    +0.000 C 
ATOM      9  C   UNL     1      33.196 -23.471 -15.385  0.00  0.00    +0.000 C 
ATOM     10  C   UNL     1      32.384 -24.126 -13.206  0.00  0.00    +0.000 C 
ATOM     11  C   UNL     1      31.894 -23.156 -15.776  0.00  0.00    +0.000 C 
ATOM     12  C   UNL     1      31.082 -23.812 -13.597  0.00  0.00    +0.000 C 
BRANCH   8  13
ATOM     13  C   UNL     1      29.487 -23.001 -15.287  0.00  0.00    +0.000 C 
ATOM     14  C   UNL     1      28.627 -22.361 -14.395  0.00  0.00    +0.000 C 
ATOM     15  C   UNL     1      29.046 -23.327 -16.569  0.00  0.00    +0.000 C 
ATOM     16  C   UNL     1      27.325 -22.046 -14.785  0.00  0.00    +0.000 C 
ATOM     17  C   UNL     1      27.745 -23.013 -16.960  0.00  0.00    +0.000 C 
ATOM     18  C   UNL     1      26.884 -22.373 -16.069  0.00  0.00    +0.000 C 
ENDBRANCH   8  13
ENDBRANCH   1   7
BRANCH   4  21
ATOM     19  O   UNL     1      38.324 -22.414 -11.400  0.00  0.00    -0.270 OA
ATOM     20  N   UNL     1      36.791 -23.256  -9.917  0.00  0.00    -0.325 N 
ATOM     21  C   UNL     1      37.336 -23.141 -11.193  0.00  0.00    +0.243 C 
ATOM     22  H   UNL     1      37.194 -22.769  -9.163  0.00  0.00    +0.145 HD
ATOM     23  H   UNL     1      36.001 -23.825  -9.770  0.00  0.00    +0.145 HD
ENDBRANCH   4  21
BRANCH   5  25
ATOM     24  O   UNL     1      38.600 -27.146 -14.268  0.00  0.00    -0.245 OA
ATOM     25  C   UNL     1      37.511 -26.684 -14.624  0.00  0.00    +0.338 C 
BRANCH  25  26
ATOM     26  O   UNL     1      36.853 -27.146 -15.722  0.00  0.00    -0.477 OA
ATOM     27  H   UNL     1      36.283 -27.886 -15.651  0.00  0.00    +0.295 HD
ENDBRANCH  25  26
ENDBRANCH   5  25
TORSDOF 5
ENDMDL
