MODEL 1
REMARK VINA RESULT:     -12.7      0.000      0.000
REMARK  Name = 25174099
REMARK  5 active torsions:
REMARK  status: ('A' for Active; 'I' for Inactive)
REMARK    1  A    between atoms: C_5  and  C_33
REMARK    2  A    between atoms: C_14  and  C_18
REMARK    3  A    between atoms: N_17  and  C_20
REMARK    4  A    between atoms: C_20  and  C_24
REMARK    5  A    between atoms: C_33  and  C_36
REMARK                            x       y       z     vdW  Elec       q    Type
REMARK                         _______ _______ _______ _____ _____    ______ ____
ROOT
ATOM      1  S   UNL     1      34.711 -16.647 -24.730  0.00  0.00    -0.064 S 
ATOM      2  O   UNL     1      34.775 -14.559 -20.252  0.00  0.00    -0.274 OA
ATOM      3  N   UNL     1      35.616 -17.897 -22.543  0.00  0.00    -0.379 NA
ATOM      4  N   UNL     1      35.562 -16.722 -20.460  0.00  0.00    -0.255 N 
ATOM      5  C   UNL     1      33.659 -13.236 -22.868  0.00  0.00    +0.028 C 
ATOM      6  C   UNL     1      33.580 -12.318 -24.113  0.00  0.00    +0.005 C 
ATOM      7  C   UNL     1      34.166 -14.607 -23.248  0.00  0.00    -0.027 C 
ATOM      8  C   UNL     1      32.904 -13.007 -25.307  0.00  0.00    +0.006 C 
ATOM      9  C   UNL     1      33.661 -14.269 -25.741  0.00  0.00    +0.032 C 
ATOM     10  C   UNL     1      34.121 -15.061 -24.555  0.00  0.00    +0.002 C 
ATOM     11  C   UNL     1      34.739 -15.598 -22.384  0.00  0.00    +0.154 C 
ATOM     12  C   UNL     1      35.067 -16.763 -23.066  0.00  0.00    +0.152 C 
ATOM     13  C   UNL     1      35.006 -15.541 -20.950  0.00  0.00    +0.239 C 
ATOM     14  C   UNL     1      35.832 -17.818 -21.266  0.00  0.00    +0.240 C 
ATOM     15  H   UNL     1      35.771 -16.781 -19.500  0.00  0.00    +0.157 HD
ENDROOT
BRANCH  14  18
ATOM     16  O   UNL     1      37.625 -18.952 -20.323  0.00  0.00    -0.266 OA
ATOM     17  N   UNL     1      35.511 -19.968 -20.271  0.00  0.00    -0.294 N 
ATOM     18  C   UNL     1      36.425 -18.980 -20.565  0.00  0.00    +0.290 C 
ATOM     19  H   UNL     1      34.573 -19.832 -20.537  0.00  0.00    +0.150 HD
BRANCH  17  20
ATOM     20  C   UNL     1      35.864 -21.192 -19.589  0.00  0.00    +0.117 C 
BRANCH  20  24
ATOM     21  O   UNL     1      31.657 -23.016 -16.276  0.00  0.00    -0.464 OA
ATOM     22  O   UNL     1      33.565 -24.562 -13.625  0.00  0.00    -0.271 OA
ATOM     23  N   UNL     1      34.338 -23.500 -15.514  0.00  0.00    -0.279 N 
ATOM     24  C   UNL     1      34.760 -21.672 -18.692  0.00  0.00    -0.001 C 
ATOM     25  C   UNL     1      34.036 -22.788 -16.678  0.00  0.00    +0.085 C 
ATOM     26  C   UNL     1      35.066 -22.351 -17.512  0.00  0.00    +0.015 C 
ATOM     27  C   UNL     1      32.705 -22.558 -17.025  0.00  0.00    +0.153 C 
ATOM     28  C   UNL     1      33.429 -21.444 -19.042  0.00  0.00    +0.001 C 
ATOM     29  C   UNL     1      32.400 -21.893 -18.213  0.00  0.00    +0.038 C 
ATOM     30  C   UNL     1      31.987 -23.297 -14.930  0.00  0.00    +0.290 C 
ATOM     31  C   UNL     1      33.358 -23.878 -14.625  0.00  0.00    +0.271 C 
ATOM     32  H   UNL     1      35.274 -23.736 -15.324  0.00  0.00    +0.155 HD
ENDBRANCH  20  24
ENDBRANCH  17  20
ENDBRANCH  14  18
BRANCH   5  33
ATOM     33  C   UNL     1      32.296 -13.323 -22.173  0.00  0.00    +0.089 C 
BRANCH  33  36
ATOM     34  O   UNL     1      31.821 -11.092 -21.348  0.00  0.00    -0.275 OA
ATOM     35  N   UNL     1      32.371 -12.750 -19.851  0.00  0.00    -0.329 N 
ATOM     36  C   UNL     1      32.131 -12.258 -21.116  0.00  0.00    +0.220 C 
ATOM     37  H   UNL     1      32.297 -12.156 -19.070  0.00  0.00    +0.145 HD
ATOM     38  H   UNL     1      32.616 -13.695 -19.729  0.00  0.00    +0.145 HD
ENDBRANCH  33  36
ENDBRANCH   5  33
TORSDOF 5
ENDMDL
MODEL 2
REMARK VINA RESULT:     -12.6      3.147      5.330
REMARK  Name = 25174099
REMARK  5 active torsions:
REMARK  status: ('A' for Active; 'I' for Inactive)
REMARK    1  A    between atoms: C_5  and  C_33
REMARK    2  A    between atoms: C_14  and  C_18
REMARK    3  A    between atoms: N_17  and  C_20
REMARK    4  A    between atoms: C_20  and  C_24
REMARK    5  A    between atoms: C_33  and  C_36
REMARK                            x       y       z     vdW  Elec       q    Type
REMARK                         _______ _______ _______ _____ _____    ______ ____
ROOT
ATOM      1  S   UNL     1      32.383 -12.737 -20.428  0.00  0.00    -0.064 S 
ATOM      2  O   UNL     1      33.515 -11.003 -24.915  0.00  0.00    -0.274 OA
ATOM      3  N   UNL     1      33.462 -14.250 -22.356  0.00  0.00    -0.379 NA
ATOM      4  N   UNL     1      33.945 -13.228 -24.464  0.00  0.00    -0.255 N 
ATOM      5  C   UNL     1      32.336  -9.315 -22.549  0.00  0.00    +0.028 C 
ATOM      6  C   UNL     1      31.310  -8.535 -21.690  0.00  0.00    +0.005 C 
ATOM      7  C   UNL     1      32.479 -10.734 -22.051  0.00  0.00    -0.027 C 
ATOM      8  C   UNL     1      31.540  -8.728 -20.184  0.00  0.00    +0.006 C 
ATOM      9  C   UNL     1      31.425 -10.201 -19.774  0.00  0.00    +0.032 C 
ATOM     10  C   UNL     1      32.088 -11.097 -20.774  0.00  0.00    +0.002 C 
ATOM     11  C   UNL     1      33.003 -11.863 -22.764  0.00  0.00    +0.154 C 
ATOM     12  C   UNL     1      33.018 -13.014 -21.988  0.00  0.00    +0.152 C 
ATOM     13  C   UNL     1      33.499 -11.950 -24.135  0.00  0.00    +0.239 C 
ATOM     14  C   UNL     1      33.905 -14.292 -23.575  0.00  0.00    +0.240 C 
ATOM     15  H   UNL     1      34.305 -13.384 -25.367  0.00  0.00    +0.157 HD
ENDROOT
BRANCH  14  18
ATOM     16  O   UNL     1      34.554 -15.678 -25.319  0.00  0.00    -0.266 OA
ATOM     17  N   UNL     1      34.686 -16.507 -23.129  0.00  0.00    -0.294 N 
ATOM     18  C   UNL     1      34.419 -15.574 -24.107  0.00  0.00    +0.290 C 
ATOM     19  H   UNL     1      34.521 -16.261 -22.190  0.00  0.00    +0.150 HD
BRANCH  17  20
ATOM     20  C   UNL     1      35.197 -17.828 -23.416  0.00  0.00    +0.117 C 
BRANCH  20  24
ATOM     21  O   UNL     1      36.019 -20.803 -18.676  0.00  0.00    -0.464 OA
ATOM     22  O   UNL     1      32.740 -22.267 -18.272  0.00  0.00    -0.271 OA
ATOM     23  N   UNL     1      33.482 -20.852 -19.926  0.00  0.00    -0.279 N 
ATOM     24  C   UNL     1      35.402 -18.633 -22.165  0.00  0.00    -0.001 C 
ATOM     25  C   UNL     1      34.546 -20.132 -20.478  0.00  0.00    +0.085 C 
ATOM     26  C   UNL     1      34.347 -19.379 -21.637  0.00  0.00    +0.015 C 
ATOM     27  C   UNL     1      35.787 -20.132 -19.843  0.00  0.00    +0.153 C 
ATOM     28  C   UNL     1      36.644 -18.630 -21.530  0.00  0.00    +0.001 C 
ATOM     29  C   UNL     1      36.835 -19.373 -20.365  0.00  0.00    +0.038 C 
ATOM     30  C   UNL     1      35.106 -21.853 -18.420  0.00  0.00    +0.290 C 
ATOM     31  C   UNL     1      33.655 -21.669 -18.833  0.00  0.00    +0.271 C 
ATOM     32  H   UNL     1      32.588 -20.773 -20.329  0.00  0.00    +0.155 HD
ENDBRANCH  20  24
ENDBRANCH  17  20
ENDBRANCH  14  18
BRANCH   5  33
ATOM     33  C   UNL     1      33.689  -8.594 -22.564  0.00  0.00    +0.089 C 
BRANCH  33  36
ATOM     34  O   UNL     1      33.225  -6.645 -23.930  0.00  0.00    -0.275 OA
ATOM     35  N   UNL     1      33.800  -6.358 -21.722  0.00  0.00    -0.329 N 
ATOM     36  C   UNL     1      33.540  -7.119 -22.841  0.00  0.00    +0.220 C 
ATOM     37  H   UNL     1      33.738  -5.377 -21.768  0.00  0.00    +0.145 HD
ATOM     38  H   UNL     1      34.048  -6.796 -20.876  0.00  0.00    +0.145 HD
ENDBRANCH  33  36
ENDBRANCH   5  33
TORSDOF 5
ENDMDL
MODEL 3
REMARK VINA RESULT:     -12.5      3.273     10.447
REMARK  Name = 25174099
REMARK  5 active torsions:
REMARK  status: ('A' for Active; 'I' for Inactive)
REMARK    1  A    between atoms: C_5  and  C_33
REMARK    2  A    between atoms: C_14  and  C_18
REMARK    3  A    between atoms: N_17  and  C_20
REMARK    4  A    between atoms: C_20  and  C_24
REMARK    5  A    between atoms: C_33  and  C_36
REMARK                            x       y       z     vdW  Elec       q    Type
REMARK                         _______ _______ _______ _____ _____    ______ ____
ROOT
ATOM      1  S   UNL     1      34.371 -23.978 -14.019  0.00  0.00    -0.064 S 
ATOM      2  O   UNL     1      31.573 -22.465 -17.801  0.00  0.00    -0.274 OA
ATOM      3  N   UNL     1      35.357 -22.687 -16.148  0.00  0.00    -0.379 NA
ATOM      4  N   UNL     1      33.842 -22.029 -17.878  0.00  0.00    -0.255 N 
ATOM      5  C   UNL     1      30.528 -23.900 -15.216  0.00  0.00    +0.028 C 
ATOM      6  C   UNL     1      29.985 -25.021 -14.294  0.00  0.00    +0.005 C 
ATOM      7  C   UNL     1      32.026 -23.773 -15.075  0.00  0.00    -0.027 C 
ATOM      8  C   UNL     1      30.548 -24.930 -12.868  0.00  0.00    +0.006 C 
ATOM      9  C   UNL     1      32.078 -25.051 -12.851  0.00  0.00    +0.032 C 
ATOM     10  C   UNL     1      32.696 -24.275 -13.973  0.00  0.00    +0.002 C 
ATOM     11  C   UNL     1      32.942 -23.159 -15.992  0.00  0.00    +0.154 C 
ATOM     12  C   UNL     1      34.251 -23.192 -15.529  0.00  0.00    +0.152 C 
ATOM     13  C   UNL     1      32.685 -22.533 -17.286  0.00  0.00    +0.239 C 
ATOM     14  C   UNL     1      35.094 -22.130 -17.290  0.00  0.00    +0.240 C 
ATOM     15  H   UNL     1      33.767 -21.582 -18.752  0.00  0.00    +0.157 HD
ENDROOT
BRANCH  14  18
ATOM     16  O   UNL     1      37.343 -21.907 -17.819  0.00  0.00    -0.266 OA
ATOM     17  N   UNL     1      35.784 -20.622 -19.012  0.00  0.00    -0.294 N 
ATOM     18  C   UNL     1      36.203 -21.539 -18.072  0.00  0.00    +0.290 C 
ATOM     19  H   UNL     1      34.820 -20.438 -19.089  0.00  0.00    +0.150 HD
BRANCH  17  20
ATOM     20  C   UNL     1      36.692 -19.921 -19.890  0.00  0.00    +0.117 C 
BRANCH  20  24
ATOM     21  O   UNL     1      33.884 -17.150 -23.944  0.00  0.00    -0.464 OA
ATOM     22  O   UNL     1      34.586 -13.739 -22.981  0.00  0.00    -0.271 OA
ATOM     23  N   UNL     1      35.275 -15.684 -21.965  0.00  0.00    -0.279 N 
ATOM     24  C   UNL     1      35.962 -19.170 -20.966  0.00  0.00    -0.001 C 
ATOM     25  C   UNL     1      35.297 -17.082 -21.978  0.00  0.00    +0.085 C 
ATOM     26  C   UNL     1      35.972 -17.774 -20.971  0.00  0.00    +0.015 C 
ATOM     27  C   UNL     1      34.609 -17.777 -22.970  0.00  0.00    +0.153 C 
ATOM     28  C   UNL     1      35.271 -19.868 -21.957  0.00  0.00    +0.001 C 
ATOM     29  C   UNL     1      34.587 -19.173 -22.955  0.00  0.00    +0.038 C 
ATOM     30  C   UNL     1      34.261 -15.805 -24.170  0.00  0.00    +0.290 C 
ATOM     31  C   UNL     1      34.691 -14.963 -22.981  0.00  0.00    +0.271 C 
ATOM     32  H   UNL     1      35.687 -15.203 -21.212  0.00  0.00    +0.155 HD
ENDBRANCH  20  24
ENDBRANCH  17  20
ENDBRANCH  14  18
BRANCH   5  33
ATOM     33  C   UNL     1      29.829 -22.569 -14.919  0.00  0.00    +0.089 C 
BRANCH  33  36
ATOM     34  O   UNL     1      27.467 -22.036 -15.056  0.00  0.00    -0.275 OA
ATOM     35  N   UNL     1      28.523 -22.942 -16.888  0.00  0.00    -0.329 N 
ATOM     36  C   UNL     1      28.482 -22.475 -15.592  0.00  0.00    +0.220 C 
ATOM     37  H   UNL     1      27.708 -22.936 -17.439  0.00  0.00    +0.145 HD
ATOM     38  H   UNL     1      29.368 -23.281 -17.262  0.00  0.00    +0.145 HD
ENDBRANCH  33  36
ENDBRANCH   5  33
TORSDOF 5
ENDMDL
MODEL 4
REMARK VINA RESULT:     -12.3      2.667     10.605
REMARK  Name = 25174099
REMARK  5 active torsions:
REMARK  status: ('A' for Active; 'I' for Inactive)
REMARK    1  A    between atoms: C_5  and  C_33
REMARK    2  A    between atoms: C_14  and  C_18
REMARK    3  A    between atoms: N_17  and  C_20
REMARK    4  A    between atoms: C_20  and  C_24
REMARK    5  A    between atoms: C_33  and  C_36
REMARK                            x       y       z     vdW  Elec       q    Type
REMARK                         _______ _______ _______ _____ _____    ______ ____
ROOT
ATOM      1  S   UNL     1      37.215 -21.769 -16.586  0.00  0.00    -0.064 S 
ATOM      2  O   UNL     1      32.561 -23.104 -17.574  0.00  0.00    -0.274 OA
ATOM      3  N   UNL     1      35.843 -20.852 -18.694  0.00  0.00    -0.379 NA
ATOM      4  N   UNL     1      33.596 -21.611 -19.003  0.00  0.00    -0.255 N 
ATOM      5  C   UNL     1      34.240 -24.033 -15.093  0.00  0.00    +0.028 C 
ATOM      6  C   UNL     1      35.092 -24.943 -14.173  0.00  0.00    +0.005 C 
ATOM      7  C   UNL     1      35.125 -23.120 -15.908  0.00  0.00    -0.027 C 
ATOM      8  C   UNL     1      36.174 -24.159 -13.416  0.00  0.00    +0.006 C 
ATOM      9  C   UNL     1      37.151 -23.466 -14.374  0.00  0.00    +0.032 C 
ATOM     10  C   UNL     1      36.431 -22.855 -15.536  0.00  0.00    +0.002 C 
ATOM     11  C   UNL     1      34.788 -22.426 -17.117  0.00  0.00    +0.154 C 
ATOM     12  C   UNL     1      35.836 -21.643 -17.583  0.00  0.00    +0.152 C 
ATOM     13  C   UNL     1      33.543 -22.436 -17.881  0.00  0.00    +0.239 C 
ATOM     14  C   UNL     1      34.721 -20.875 -19.345  0.00  0.00    +0.240 C 
ATOM     15  H   UNL     1      32.799 -21.546 -19.578  0.00  0.00    +0.157 HD
ENDROOT
BRANCH  14  18
ATOM     16  O   UNL     1      33.483 -19.989 -21.097  0.00  0.00    -0.266 OA
ATOM     17  N   UNL     1      35.768 -19.472 -20.973  0.00  0.00    -0.294 N 
ATOM     18  C   UNL     1      34.587 -20.060 -20.574  0.00  0.00    +0.290 C 
ATOM     19  H   UNL     1      36.576 -19.631 -20.434  0.00  0.00    +0.150 HD
BRANCH  17  20
ATOM     20  C   UNL     1      35.875 -18.631 -22.144  0.00  0.00    +0.117 C 
BRANCH  20  24
ATOM     21  O   UNL     1      34.064 -13.377 -21.089  0.00  0.00    -0.464 OA
ATOM     22  O   UNL     1      33.451 -12.231 -24.461  0.00  0.00    -0.271 OA
ATOM     23  N   UNL     1      34.228 -14.281 -23.764  0.00  0.00    -0.279 N 
ATOM     24  C   UNL     1      35.380 -17.238 -21.881  0.00  0.00    -0.001 C 
ATOM     25  C   UNL     1      34.555 -15.122 -22.697  0.00  0.00    +0.085 C 
ATOM     26  C   UNL     1      35.021 -16.414 -22.948  0.00  0.00    +0.015 C 
ATOM     27  C   UNL     1      34.457 -14.652 -21.388  0.00  0.00    +0.153 C 
ATOM     28  C   UNL     1      35.286 -16.768 -20.571  0.00  0.00    +0.001 C 
ATOM     29  C   UNL     1      34.831 -15.472 -20.324  0.00  0.00    +0.038 C 
ATOM     30  C   UNL     1      33.320 -12.746 -22.114  0.00  0.00    +0.290 C 
ATOM     31  C   UNL     1      33.690 -13.031 -23.559  0.00  0.00    +0.271 C 
ATOM     32  H   UNL     1      34.386 -14.590 -24.685  0.00  0.00    +0.155 HD
ENDBRANCH  20  24
ENDBRANCH  17  20
ENDBRANCH  14  18
BRANCH   5  33
ATOM     33  C   UNL     1      33.224 -23.232 -14.272  0.00  0.00    +0.089 C 
BRANCH  33  36
ATOM     34  O   UNL     1      31.786 -24.617 -12.894  0.00  0.00    -0.275 OA
ATOM     35  N   UNL     1      31.103 -24.051 -15.016  0.00  0.00    -0.329 N 
ATOM     36  C   UNL     1      31.987 -24.039 -13.959  0.00  0.00    +0.220 C 
ATOM     37  H   UNL     1      30.254 -24.544 -14.941  0.00  0.00    +0.145 HD
ATOM     38  H   UNL     1      31.320 -23.568 -15.845  0.00  0.00    +0.145 HD
ENDBRANCH  33  36
ENDBRANCH   5  33
TORSDOF 5
ENDMDL
MODEL 5
REMARK VINA RESULT:     -11.7      3.997      6.314
REMARK  Name = 25174099
REMARK  5 active torsions:
REMARK  status: ('A' for Active; 'I' for Inactive)
REMARK    1  A    between atoms: C_5  and  C_33
REMARK    2  A    between atoms: C_14  and  C_18
REMARK    3  A    between atoms: N_17  and  C_20
REMARK    4  A    between atoms: C_20  and  C_24
REMARK    5  A    between atoms: C_33  and  C_36
REMARK                            x       y       z     vdW  Elec       q    Type
REMARK                         _______ _______ _______ _____ _____    ______ ____
ROOT
ATOM      1  S   UNL     1      36.944 -20.464 -19.412  0.00  0.00    -0.064 S 
ATOM      2  O   UNL     1      32.136 -20.298 -20.543  0.00  0.00    -0.274 OA
ATOM      3  N   UNL     1      35.106 -22.014 -18.234  0.00  0.00    -0.379 NA
ATOM      4  N   UNL     1      32.825 -21.793 -18.920  0.00  0.00    -0.255 N 
ATOM      5  C   UNL     1      34.394 -18.604 -21.911  0.00  0.00    +0.028 C 
ATOM      6  C   UNL     1      35.282 -17.387 -22.271  0.00  0.00    +0.005 C 
ATOM      7  C   UNL     1      35.059 -19.457 -20.857  0.00  0.00    -0.027 C 
ATOM      8  C   UNL     1      36.745 -17.783 -22.513  0.00  0.00    +0.006 C 
ATOM      9  C   UNL     1      37.373 -18.432 -21.273  0.00  0.00    +0.032 C 
ATOM     10  C   UNL     1      36.419 -19.381 -20.615  0.00  0.00    +0.002 C 
ATOM     11  C   UNL     1      34.440 -20.418 -19.990  0.00  0.00    +0.154 C 
ATOM     12  C   UNL     1      35.360 -21.047 -19.162  0.00  0.00    +0.152 C 
ATOM     13  C   UNL     1      33.035 -20.800 -19.876  0.00  0.00    +0.239 C 
ATOM     14  C   UNL     1      33.852 -22.338 -18.163  0.00  0.00    +0.240 C 
ATOM     15  H   UNL     1      31.909 -22.121 -18.776  0.00  0.00    +0.157 HD
ENDROOT
BRANCH  14  18
ATOM     16  O   UNL     1      33.184 -24.496 -17.628  0.00  0.00    -0.266 OA
ATOM     17  N   UNL     1      33.379 -22.928 -15.895  0.00  0.00    -0.294 N 
ATOM     18  C   UNL     1      33.432 -23.378 -17.196  0.00  0.00    +0.290 C 
ATOM     19  H   UNL     1      33.613 -21.989 -15.714  0.00  0.00    +0.150 HD
BRANCH  17  20
ATOM     20  C   UNL     1      32.996 -23.768 -14.783  0.00  0.00    +0.117 C 
BRANCH  20  24
ATOM     21  O   UNL     1      37.422 -25.445 -11.686  0.00  0.00    -0.464 OA
ATOM     22  O   UNL     1      39.617 -26.622 -14.305  0.00  0.00    -0.271 OA
ATOM     23  N   UNL     1      37.509 -25.721 -14.499  0.00  0.00    -0.279 N 
ATOM     24  C   UNL     1      34.185 -24.206 -13.977  0.00  0.00    -0.001 C 
ATOM     25  C   UNL     1      36.404 -25.146 -13.864  0.00  0.00    +0.085 C 
ATOM     26  C   UNL     1      35.300 -24.747 -14.618  0.00  0.00    +0.015 C 
ATOM     27  C   UNL     1      36.393 -25.016 -12.476  0.00  0.00    +0.153 C 
ATOM     28  C   UNL     1      34.170 -24.078 -12.588  0.00  0.00    +0.001 C 
ATOM     29  C   UNL     1      35.270 -24.490 -11.836  0.00  0.00    +0.038 C 
ATOM     30  C   UNL     1      38.658 -25.572 -12.363  0.00  0.00    +0.290 C 
ATOM     31  C   UNL     1      38.649 -26.054 -13.804  0.00  0.00    +0.271 C 
ATOM     32  H   UNL     1      37.472 -25.892 -15.468  0.00  0.00    +0.155 HD
ENDBRANCH  20  24
ENDBRANCH  17  20
ENDBRANCH  14  18
BRANCH   5  33
ATOM     33  C   UNL     1      34.068 -19.426 -23.164  0.00  0.00    +0.089 C 
BRANCH  33  36
ATOM     34  O   UNL     1      34.313 -17.656 -24.804  0.00  0.00    -0.275 OA
ATOM     35  N   UNL     1      32.368 -18.883 -24.758  0.00  0.00    -0.329 N 
ATOM     36  C   UNL     1      33.631 -18.553 -24.315  0.00  0.00    +0.220 C 
ATOM     37  H   UNL     1      31.964 -18.389 -25.507  0.00  0.00    +0.145 HD
ATOM     38  H   UNL     1      31.871 -19.614 -24.325  0.00  0.00    +0.145 HD
ENDBRANCH  33  36
ENDBRANCH   5  33
TORSDOF 5
ENDMDL
MODEL 6
REMARK VINA RESULT:     -11.5      2.779     10.788
REMARK  Name = 25174099
REMARK  5 active torsions:
REMARK  status: ('A' for Active; 'I' for Inactive)
REMARK    1  A    between atoms: C_5  and  C_33
REMARK    2  A    between atoms: C_14  and  C_18
REMARK    3  A    between atoms: N_17  and  C_20
REMARK    4  A    between atoms: C_20  and  C_24
REMARK    5  A    between atoms: C_33  and  C_36
REMARK                            x       y       z     vdW  Elec       q    Type
REMARK                         _______ _______ _______ _____ _____    ______ ____
ROOT
ATOM      1  S   UNL     1      32.696 -22.618 -17.382  0.00  0.00    -0.064 S 
ATOM      2  O   UNL     1      37.376 -22.136 -15.870  0.00  0.00    -0.274 OA
ATOM      3  N   UNL     1      34.573 -21.345 -18.804  0.00  0.00    -0.379 NA
ATOM      4  N   UNL     1      36.787 -21.220 -17.908  0.00  0.00    -0.255 N 
ATOM      5  C   UNL     1      35.112 -23.679 -14.342  0.00  0.00    +0.028 C 
ATOM      6  C   UNL     1      34.021 -23.987 -13.287  0.00  0.00    +0.005 C 
ATOM      7  C   UNL     1      34.494 -23.121 -15.601  0.00  0.00    -0.027 C 
ATOM      8  C   UNL     1      32.833 -24.757 -13.882  0.00  0.00    +0.006 C 
ATOM      9  C   UNL     1      32.147 -23.968 -15.004  0.00  0.00    +0.032 C 
ATOM     10  C   UNL     1      33.152 -23.300 -15.891  0.00  0.00    +0.002 C 
ATOM     11  C   UNL     1      35.142 -22.367 -16.635  0.00  0.00    +0.154 C 
ATOM     12  C   UNL     1      34.276 -22.042 -17.670  0.00  0.00    +0.152 C 
ATOM     13  C   UNL     1      36.530 -21.922 -16.732  0.00  0.00    +0.239 C 
ATOM     14  C   UNL     1      35.814 -20.972 -18.865  0.00  0.00    +0.240 C 
ATOM     15  H   UNL     1      37.699 -20.885 -18.067  0.00  0.00    +0.157 HD
ENDROOT
BRANCH  14  18
ATOM     16  O   UNL     1      37.472 -19.958 -20.135  0.00  0.00    -0.266 OA
ATOM     17  N   UNL     1      35.261 -19.867 -20.912  0.00  0.00    -0.294 N 
ATOM     18  C   UNL     1      36.277 -20.206 -20.045  0.00  0.00    +0.290 C 
ATOM     19  H   UNL     1      34.344 -20.148 -20.691  0.00  0.00    +0.150 HD
BRANCH  17  20
ATOM     20  C   UNL     1      35.478 -19.121 -22.130  0.00  0.00    +0.117 C 
BRANCH  20  24
ATOM     21  O   UNL     1      34.407 -13.614 -21.409  0.00  0.00    -0.464 OA
ATOM     22  O   UNL     1      33.618 -12.674 -24.808  0.00  0.00    -0.271 OA
ATOM     23  N   UNL     1      34.210 -14.743 -23.996  0.00  0.00    -0.279 N 
ATOM     24  C   UNL     1      35.178 -17.661 -21.955  0.00  0.00    -0.001 C 
ATOM     25  C   UNL     1      34.535 -15.530 -22.887  0.00  0.00    +0.085 C 
ATOM     26  C   UNL     1      34.820 -16.886 -23.058  0.00  0.00    +0.015 C 
ATOM     27  C   UNL     1      34.617 -14.948 -21.623  0.00  0.00    +0.153 C 
ATOM     28  C   UNL     1      35.264 -17.079 -20.689  0.00  0.00    +0.001 C 
ATOM     29  C   UNL     1      34.991 -15.721 -20.524  0.00  0.00    +0.038 C 
ATOM     30  C   UNL     1      33.650 -12.978 -22.421  0.00  0.00    +0.290 C 
ATOM     31  C   UNL     1      33.845 -13.423 -23.861  0.00  0.00    +0.271 C 
ATOM     32  H   UNL     1      34.243 -15.141 -24.895  0.00  0.00    +0.155 HD
ENDBRANCH  20  24
ENDBRANCH  17  20
ENDBRANCH  14  18
BRANCH   5  33
ATOM     33  C   UNL     1      35.946 -24.930 -14.640  0.00  0.00    +0.089 C 
BRANCH  33  36
ATOM     34  O   UNL     1      37.312 -25.183 -12.652  0.00  0.00    -0.275 OA
ATOM     35  N   UNL     1      38.325 -24.679 -14.655  0.00  0.00    -0.329 N 
ATOM     36  C   UNL     1      37.235 -24.951 -13.856  0.00  0.00    +0.220 C 
ATOM     37  H   UNL     1      39.229 -24.662 -14.265  0.00  0.00    +0.145 HD
ATOM     38  H   UNL     1      38.199 -24.501 -15.614  0.00  0.00    +0.145 HD
ENDBRANCH  33  36
ENDBRANCH   5  33
TORSDOF 5
ENDMDL
MODEL 7
REMARK VINA RESULT:     -11.5      3.137      4.782
REMARK  Name = 25174099
REMARK  5 active torsions:
REMARK  status: ('A' for Active; 'I' for Inactive)
REMARK    1  A    between atoms: C_5  and  C_33
REMARK    2  A    between atoms: C_14  and  C_18
REMARK    3  A    between atoms: N_17  and  C_20
REMARK    4  A    between atoms: C_20  and  C_24
REMARK    5  A    between atoms: C_33  and  C_36
REMARK                            x       y       z     vdW  Elec       q    Type
REMARK                         _______ _______ _______ _____ _____    ______ ____
ROOT
ATOM      1  S   UNL     1      32.405 -12.898 -20.218  0.00  0.00    -0.064 S 
ATOM      2  O   UNL     1      33.930 -11.472 -24.697  0.00  0.00    -0.274 OA
ATOM      3  N   UNL     1      33.777 -14.491 -21.876  0.00  0.00    -0.379 NA
ATOM      4  N   UNL     1      34.433 -13.619 -24.004  0.00  0.00    -0.255 N 
ATOM      5  C   UNL     1      32.399  -9.675 -22.632  0.00  0.00    +0.028 C 
ATOM      6  C   UNL     1      31.240  -8.897 -21.961  0.00  0.00    +0.005 C 
ATOM      7  C   UNL     1      32.566 -11.035 -21.996  0.00  0.00    -0.027 C 
ATOM      8  C   UNL     1      31.312  -8.947 -20.428  0.00  0.00    +0.006 C 
ATOM      9  C   UNL     1      31.235 -10.386 -19.901  0.00  0.00    +0.032 C 
ATOM     10  C   UNL     1      32.057 -11.316 -20.740  0.00  0.00    +0.002 C 
ATOM     11  C   UNL     1      33.230 -12.182 -22.545  0.00  0.00    +0.154 C 
ATOM     12  C   UNL     1      33.225 -13.260 -21.670  0.00  0.00    +0.152 C 
ATOM     13  C   UNL     1      33.881 -12.350 -23.841  0.00  0.00    +0.239 C 
ATOM     14  C   UNL     1      34.355 -14.605 -23.032  0.00  0.00    +0.240 C 
ATOM     15  H   UNL     1      34.901 -13.825 -24.846  0.00  0.00    +0.157 HD
ENDROOT
BRANCH  14  18
ATOM     16  O   UNL     1      35.018 -16.212 -24.569  0.00  0.00    -0.266 OA
ATOM     17  N   UNL     1      35.505 -16.570 -22.303  0.00  0.00    -0.294 N 
ATOM     18  C   UNL     1      34.998 -15.890 -23.389  0.00  0.00    +0.290 C 
ATOM     19  H   UNL     1      35.405 -16.167 -21.410  0.00  0.00    +0.150 HD
BRANCH  17  20
ATOM     20  C   UNL     1      36.177 -17.844 -22.413  0.00  0.00    +0.117 C 
BRANCH  20  24
ATOM     21  O   UNL     1      33.980 -21.709 -18.915  0.00  0.00    -0.464 OA
ATOM     22  O   UNL     1      36.873 -22.432 -16.874  0.00  0.00    -0.271 OA
ATOM     23  N   UNL     1      36.694 -20.963 -18.635  0.00  0.00    -0.279 N 
ATOM     24  C   UNL     1      35.606 -18.862 -21.468  0.00  0.00    -0.001 C 
ATOM     25  C   UNL     1      35.878 -20.368 -19.601  0.00  0.00    +0.085 C 
ATOM     26  C   UNL     1      36.415 -19.428 -20.481  0.00  0.00    +0.015 C 
ATOM     27  C   UNL     1      34.541 -20.750 -19.711  0.00  0.00    +0.153 C 
ATOM     28  C   UNL     1      34.270 -19.246 -21.581  0.00  0.00    +0.001 C 
ATOM     29  C   UNL     1      33.738 -20.195 -20.708  0.00  0.00    +0.038 C 
ATOM     30  C   UNL     1      34.669 -21.928 -17.699  0.00  0.00    +0.290 C 
ATOM     31  C   UNL     1      36.186 -21.833 -17.698  0.00  0.00    +0.271 C 
ATOM     32  H   UNL     1      37.656 -20.754 -18.624  0.00  0.00    +0.155 HD
ENDBRANCH  20  24
ENDBRANCH  17  20
ENDBRANCH  14  18
BRANCH   5  33
ATOM     33  C   UNL     1      33.702  -8.870 -22.568  0.00  0.00    +0.089 C 
BRANCH  33  36
ATOM     34  O   UNL     1      32.995  -6.922 -23.829  0.00  0.00    -0.275 OA
ATOM     35  N   UNL     1      33.848  -6.641 -21.711  0.00  0.00    -0.329 N 
ATOM     36  C   UNL     1      33.467  -7.397 -22.799  0.00  0.00    +0.220 C 
ATOM     37  H   UNL     1      33.747  -5.662 -21.733  0.00  0.00    +0.145 HD
ATOM     38  H   UNL     1      34.220  -7.079 -20.913  0.00  0.00    +0.145 HD
ENDBRANCH  33  36
ENDBRANCH   5  33
TORSDOF 5
ENDMDL
MODEL 8
REMARK VINA RESULT:     -11.4      2.921      5.160
REMARK  Name = 25174099
REMARK  5 active torsions:
REMARK  status: ('A' for Active; 'I' for Inactive)
REMARK    1  A    between atoms: C_5  and  C_33
REMARK    2  A    between atoms: C_14  and  C_18
REMARK    3  A    between atoms: N_17  and  C_20
REMARK    4  A    between atoms: C_20  and  C_24
REMARK    5  A    between atoms: C_33  and  C_36
REMARK                            x       y       z     vdW  Elec       q    Type
REMARK                         _______ _______ _______ _____ _____    ______ ____
ROOT
ATOM      1  S   UNL     1      34.487 -10.388 -25.016  0.00  0.00    -0.064 S 
ATOM      2  O   UNL     1      32.532 -12.474 -20.985  0.00  0.00    -0.274 OA
ATOM      3  N   UNL     1      34.167 -13.032 -24.742  0.00  0.00    -0.379 NA
ATOM      4  N   UNL     1      33.196 -13.854 -22.717  0.00  0.00    -0.255 N 
ATOM      5  C   UNL     1      32.875  -9.393 -21.464  0.00  0.00    +0.028 C 
ATOM      6  C   UNL     1      33.451  -7.960 -21.351  0.00  0.00    +0.005 C 
ATOM      7  C   UNL     1      33.421 -10.093 -22.685  0.00  0.00    -0.027 C 
ATOM      8  C   UNL     1      33.387  -7.197 -22.681  0.00  0.00    +0.006 C 
ATOM      9  C   UNL     1      34.185  -7.904 -23.784  0.00  0.00    +0.032 C 
ATOM     10  C   UNL     1      33.978  -9.387 -23.738  0.00  0.00    +0.002 C 
ATOM     11  C   UNL     1      33.456 -11.504 -22.943  0.00  0.00    +0.154 C 
ATOM     12  C   UNL     1      34.000 -11.797 -24.186  0.00  0.00    +0.152 C 
ATOM     13  C   UNL     1      33.010 -12.615 -22.106  0.00  0.00    +0.239 C 
ATOM     14  C   UNL     1      33.754 -13.996 -23.979  0.00  0.00    +0.240 C 
ATOM     15  H   UNL     1      32.919 -14.664 -22.231  0.00  0.00    +0.157 HD
ENDROOT
BRANCH  14  18
ATOM     16  O   UNL     1      33.348 -15.679 -25.525  0.00  0.00    -0.266 OA
ATOM     17  N   UNL     1      34.586 -16.206 -23.604  0.00  0.00    -0.294 N 
ATOM     18  C   UNL     1      33.873 -15.392 -24.457  0.00  0.00    +0.290 C 
ATOM     19  H   UNL     1      34.947 -15.814 -22.776  0.00  0.00    +0.150 HD
BRANCH  17  20
ATOM     20  C   UNL     1      34.831 -17.605 -23.867  0.00  0.00    +0.117 C 
BRANCH  20  24
ATOM     21  O   UNL     1      35.934 -20.434 -19.095  0.00  0.00    -0.464 OA
ATOM     22  O   UNL     1      32.699 -21.923 -18.480  0.00  0.00    -0.271 OA
ATOM     23  N   UNL     1      33.337 -20.548 -20.210  0.00  0.00    -0.279 N 
ATOM     24  C   UNL     1      35.110 -18.372 -22.607  0.00  0.00    -0.001 C 
ATOM     25  C   UNL     1      34.361 -19.831 -20.837  0.00  0.00    +0.085 C 
ATOM     26  C   UNL     1      34.094 -19.115 -22.004  0.00  0.00    +0.015 C 
ATOM     27  C   UNL     1      35.634 -19.800 -20.267  0.00  0.00    +0.153 C 
ATOM     28  C   UNL     1      36.383 -18.336 -22.037  0.00  0.00    +0.001 C 
ATOM     29  C   UNL     1      36.644 -19.044 -20.863  0.00  0.00    +0.038 C 
ATOM     30  C   UNL     1      35.049 -21.487 -18.763  0.00  0.00    +0.290 C 
ATOM     31  C   UNL     1      33.577 -21.331 -19.105  0.00  0.00    +0.271 C 
ATOM     32  H   UNL     1      32.422 -20.491 -20.568  0.00  0.00    +0.155 HD
ENDBRANCH  20  24
ENDBRANCH  17  20
ENDBRANCH  14  18
BRANCH   5  33
ATOM     33  C   UNL     1      31.342  -9.360 -21.483  0.00  0.00    +0.089 C 
BRANCH  33  36
ATOM     34  O   UNL     1      30.871  -9.803 -19.146  0.00  0.00    -0.275 OA
ATOM     35  N   UNL     1      30.037 -11.226 -20.749  0.00  0.00    -0.329 N 
ATOM     36  C   UNL     1      30.745 -10.122 -20.325  0.00  0.00    +0.220 C 
ATOM     37  H   UNL     1      29.596 -11.810 -20.091  0.00  0.00    +0.145 HD
ATOM     38  H   UNL     1      29.972 -11.430 -21.710  0.00  0.00    +0.145 HD
ENDBRANCH  33  36
ENDBRANCH   5  33
TORSDOF 5
ENDMDL
MODEL 9
REMARK VINA RESULT:     -10.9      2.922     10.402
REMARK  Name = 25174099
REMARK  5 active torsions:
REMARK  status: ('A' for Active; 'I' for Inactive)
REMARK    1  A    between atoms: C_5  and  C_33
REMARK    2  A    between atoms: C_14  and  C_18
REMARK    3  A    between atoms: N_17  and  C_20
REMARK    4  A    between atoms: C_20  and  C_24
REMARK    5  A    between atoms: C_33  and  C_36
REMARK                            x       y       z     vdW  Elec       q    Type
REMARK                         _______ _______ _______ _____ _____    ______ ____
ROOT
ATOM      1  S   UNL     1      35.853 -22.881 -14.784  0.00  0.00    -0.064 S 
ATOM      2  O   UNL     1      32.254 -22.656 -18.162  0.00  0.00    -0.274 OA
ATOM      3  N   UNL     1      36.196 -21.833 -17.223  0.00  0.00    -0.379 NA
ATOM      4  N   UNL     1      34.331 -21.808 -18.721  0.00  0.00    -0.255 N 
ATOM      5  C   UNL     1      31.955 -23.773 -15.247  0.00  0.00    +0.028 C 
ATOM      6  C   UNL     1      31.820 -24.791 -14.088  0.00  0.00    +0.005 C 
ATOM      7  C   UNL     1      33.391 -23.334 -15.406  0.00  0.00    -0.027 C 
ATOM      8  C   UNL     1      32.556 -24.335 -12.820  0.00  0.00    +0.006 C 
ATOM      9  C   UNL     1      34.058 -24.150 -13.067  0.00  0.00    +0.032 C 
ATOM     10  C   UNL     1      34.313 -23.486 -14.386  0.00  0.00    +0.002 C 
ATOM     11  C   UNL     1      33.999 -22.730 -16.557  0.00  0.00    +0.154 C 
ATOM     12  C   UNL     1      35.336 -22.422 -16.344  0.00  0.00    +0.152 C 
ATOM     13  C   UNL     1      33.417 -22.412 -17.858  0.00  0.00    +0.239 C 
ATOM     14  C   UNL     1      35.647 -21.554 -18.366  0.00  0.00    +0.240 C 
ATOM     15  H   UNL     1      34.028 -21.550 -19.621  0.00  0.00    +0.157 HD
ENDROOT
BRANCH  14  18
ATOM     16  O   UNL     1      37.508 -21.460 -19.750  0.00  0.00    -0.266 OA
ATOM     17  N   UNL     1      35.924 -19.737 -19.895  0.00  0.00    -0.294 N 
ATOM     18  C   UNL     1      36.467 -20.910 -19.418  0.00  0.00    +0.290 C 
ATOM     19  H   UNL     1      35.068 -19.430 -19.516  0.00  0.00    +0.150 HD
BRANCH  17  20
ATOM     20  C   UNL     1      36.548 -18.939 -20.924  0.00  0.00    +0.117 C 
BRANCH  20  24
ATOM     21  O   UNL     1      33.829 -14.045 -21.732  0.00  0.00    -0.464 OA
ATOM     22  O   UNL     1      33.545 -14.068 -25.335  0.00  0.00    -0.271 OA
ATOM     23  N   UNL     1      34.515 -15.641 -23.965  0.00  0.00    -0.279 N 
ATOM     24  C   UNL     1      35.816 -17.649 -21.156  0.00  0.00    -0.001 C 
ATOM     25  C   UNL     1      34.807 -16.057 -22.663  0.00  0.00    +0.085 C 
ATOM     26  C   UNL     1      35.494 -17.254 -22.455  0.00  0.00    +0.015 C 
ATOM     27  C   UNL     1      34.450 -15.253 -21.581  0.00  0.00    +0.153 C 
ATOM     28  C   UNL     1      35.462 -16.844 -20.072  0.00  0.00    +0.001 C 
ATOM     29  C   UNL     1      34.786 -15.643 -20.284  0.00  0.00    +0.038 C 
ATOM     30  C   UNL     1      33.155 -13.891 -22.967  0.00  0.00    +0.290 C 
ATOM     31  C   UNL     1      33.770 -14.510 -24.210  0.00  0.00    +0.271 C 
ATOM     32  H   UNL     1      34.849 -16.169 -24.725  0.00  0.00    +0.155 HD
ENDBRANCH  20  24
ENDBRANCH  17  20
ENDBRANCH  14  18
BRANCH   5  33
ATOM     33  C   UNL     1      31.029 -22.572 -15.024  0.00  0.00    +0.089 C 
BRANCH  33  36
ATOM     34  O   UNL     1      29.328 -22.318 -16.733  0.00  0.00    -0.275 OA
ATOM     35  N   UNL     1      28.856 -23.559 -14.855  0.00  0.00    -0.329 N 
ATOM     36  C   UNL     1      29.672 -22.781 -15.649  0.00  0.00    +0.220 C 
ATOM     37  H   UNL     1      27.941 -23.771 -15.149  0.00  0.00    +0.145 HD
ATOM     38  H   UNL     1      29.189 -23.901 -13.995  0.00  0.00    +0.145 HD
ENDBRANCH  33  36
ENDBRANCH   5  33
TORSDOF 5
ENDMDL
