MODEL 1
REMARK VINA RESULT:     -11.8      0.000      0.000
REMARK  Name = 53338808
REMARK  2 active torsions:
REMARK  status: ('A' for Active; 'I' for Inactive)
REMARK    1  A    between atoms: C_3  and  C_15
REMARK    2  A    between atoms: C_5  and  C_23
REMARK                            x       y       z     vdW  Elec       q    Type
REMARK                         _______ _______ _______ _____ _____    ______ ____
ROOT
ATOM      1  N   UNL     1      31.712 -23.408 -15.055  0.00  0.00    -0.228 N 
ATOM      2  N   UNL     1      32.335 -22.721 -16.051  0.00  0.00    -0.165 NA
ATOM      3  C   UNL     1      33.847 -24.041 -14.959  0.00  0.00    +0.056 A 
ATOM      4  C   UNL     1      32.619 -24.225 -14.372  0.00  0.00    +0.086 A 
ATOM      5  C   UNL     1      33.609 -23.110 -15.981  0.00  0.00    +0.104 A 
ATOM      6  C   UNL     1      32.131 -25.017 -13.295  0.00  0.00    +0.019 C 
ATOM      7  C   UNL     1      30.358 -23.358 -14.705  0.00  0.00    +0.100 C 
ATOM      8  C   UNL     1      30.827 -24.961 -12.966  0.00  0.00    +0.003 C 
ATOM      9  C   UNL     1      29.901 -24.107 -13.689  0.00  0.00    +0.021 C 
ENDROOT
BRANCH   3  15
ATOM     10  N   UNL     1      35.394 -25.792 -15.286  0.00  0.00    -0.146 NA
ATOM     11  N   UNL     1      38.364 -26.571 -13.463  0.00  0.00    -0.257 N 
ATOM     12  N   UNL     1      36.488 -26.480 -14.996  0.00  0.00    -0.129 NA
ATOM     13  N   UNL     1      38.852 -25.901 -12.402  0.00  0.00    -0.157 NA
ATOM     14  N   UNL     1      38.036 -23.957 -11.260  0.00  0.00    -0.341 N 
ATOM     15  C   UNL     1      35.050 -24.704 -14.547  0.00  0.00    +0.106 C 
ATOM     16  C   UNL     1      35.769 -24.219 -13.463  0.00  0.00    +0.027 C 
ATOM     17  C   UNL     1      36.918 -24.945 -13.162  0.00  0.00    +0.071 A 
ATOM     18  C   UNL     1      37.210 -26.039 -13.954  0.00  0.00    +0.180 A 
ATOM     19  C   UNL     1      37.968 -24.913 -12.223  0.00  0.00    +0.148 A 
ATOM     20  H   UNL     1      38.798 -27.366 -13.846  0.00  0.00    +0.191 HD
ATOM     21  H   UNL     1      38.783 -23.960 -10.617  0.00  0.00    +0.144 HD
ATOM     22  H   UNL     1      37.341 -23.263 -11.204  0.00  0.00    +0.144 HD
ENDBRANCH   3  15
BRANCH   5  23
ATOM     23  C   UNL     1      34.574 -22.570 -16.906  0.00  0.00    +0.019 C 
ATOM     24  C   UNL     1      34.223 -22.371 -18.241  0.00  0.00    +0.002 C 
ATOM     25  C   UNL     1      35.857 -22.245 -16.466  0.00  0.00    +0.002 C 
ATOM     26  C   UNL     1      35.156 -21.848 -19.136  0.00  0.00    +0.000 C 
ATOM     27  C   UNL     1      36.790 -21.722 -17.362  0.00  0.00    +0.000 C 
ATOM     28  C   UNL     1      36.439 -21.523 -18.697  0.00  0.00    +0.000 C 
ENDBRANCH   5  23
TORSDOF 2
ENDMDL
MODEL 2
REMARK VINA RESULT:     -11.1      1.485      2.128
REMARK  Name = 53338808
REMARK  2 active torsions:
REMARK  status: ('A' for Active; 'I' for Inactive)
REMARK    1  A    between atoms: C_3  and  C_15
REMARK    2  A    between atoms: C_5  and  C_23
REMARK                            x       y       z     vdW  Elec       q    Type
REMARK                         _______ _______ _______ _____ _____    ______ ____
ROOT
ATOM      1  N   UNL     1      30.880 -23.122 -16.078  0.00  0.00    -0.228 N 
ATOM      2  N   UNL     1      31.412 -22.498 -17.164  0.00  0.00    -0.165 NA
ATOM      3  C   UNL     1      33.087 -23.227 -15.792  0.00  0.00    +0.056 A 
ATOM      4  C   UNL     1      31.888 -23.578 -15.223  0.00  0.00    +0.086 A 
ATOM      5  C   UNL     1      32.731 -22.569 -16.979  0.00  0.00    +0.104 A 
ATOM      6  C   UNL     1      31.503 -24.257 -14.033  0.00  0.00    +0.019 C 
ATOM      7  C   UNL     1      29.524 -23.320 -15.791  0.00  0.00    +0.100 C 
ATOM      8  C   UNL     1      30.197 -24.442 -13.765  0.00  0.00    +0.003 C 
ATOM      9  C   UNL     1      29.165 -23.961 -14.667  0.00  0.00    +0.021 C 
ENDROOT
BRANCH   3  15
ATOM     10  N   UNL     1      35.075 -22.433 -14.801  0.00  0.00    -0.146 NA
ATOM     11  N   UNL     1      37.917 -24.252 -13.633  0.00  0.00    -0.257 N 
ATOM     12  N   UNL     1      36.273 -22.583 -14.255  0.00  0.00    -0.129 NA
ATOM     13  N   UNL     1      38.085 -25.587 -13.670  0.00  0.00    -0.157 NA
ATOM     14  N   UNL     1      36.653 -27.328 -14.484  0.00  0.00    -0.341 N 
ATOM     15  C   UNL     1      34.371 -23.516 -15.222  0.00  0.00    +0.106 C 
ATOM     16  C   UNL     1      34.806 -24.832 -15.133  0.00  0.00    +0.027 C 
ATOM     17  C   UNL     1      36.065 -24.985 -14.560  0.00  0.00    +0.071 A 
ATOM     18  C   UNL     1      36.726 -23.842 -14.152  0.00  0.00    +0.180 A 
ATOM     19  C   UNL     1      36.955 -26.027 -14.235  0.00  0.00    +0.148 A 
ATOM     20  H   UNL     1      38.588 -23.633 -13.266  0.00  0.00    +0.191 HD
ATOM     21  H   UNL     1      37.295 -28.037 -14.247  0.00  0.00    +0.144 HD
ATOM     22  H   UNL     1      35.793 -27.563 -14.902  0.00  0.00    +0.144 HD
ENDBRANCH   3  15
BRANCH   5  23
ATOM     23  C   UNL     1      33.623 -21.996 -17.956  0.00  0.00    +0.019 C 
ATOM     24  C   UNL     1      33.118 -21.165 -18.956  0.00  0.00    +0.002 C 
ATOM     25  C   UNL     1      34.988 -22.271 -17.901  0.00  0.00    +0.002 C 
ATOM     26  C   UNL     1      33.981 -20.609 -19.902  0.00  0.00    +0.000 C 
ATOM     27  C   UNL     1      35.851 -21.716 -18.846  0.00  0.00    +0.000 C 
ATOM     28  C   UNL     1      35.347 -20.885 -19.846  0.00  0.00    +0.000 C 
ENDBRANCH   5  23
TORSDOF 2
ENDMDL
MODEL 3
REMARK VINA RESULT:     -11.0      1.206      4.632
REMARK  Name = 53338808
REMARK  2 active torsions:
REMARK  status: ('A' for Active; 'I' for Inactive)
REMARK    1  A    between atoms: C_3  and  C_15
REMARK    2  A    between atoms: C_5  and  C_23
REMARK                            x       y       z     vdW  Elec       q    Type
REMARK                         _______ _______ _______ _____ _____    ______ ____
ROOT
ATOM      1  N   UNL     1      33.137 -22.066 -17.766  0.00  0.00    -0.228 N 
ATOM      2  N   UNL     1      32.059 -22.436 -17.022  0.00  0.00    -0.165 NA
ATOM      3  C   UNL     1      33.973 -23.222 -16.054  0.00  0.00    +0.056 A 
ATOM      4  C   UNL     1      34.322 -22.537 -17.191  0.00  0.00    +0.086 A 
ATOM      5  C   UNL     1      32.575 -23.125 -16.003  0.00  0.00    +0.104 A 
ATOM      6  C   UNL     1      35.550 -22.237 -17.845  0.00  0.00    +0.019 C 
ATOM      7  C   UNL     1      33.138 -21.319 -18.949  0.00  0.00    +0.100 C 
ATOM      8  C   UNL     1      35.540 -21.518 -18.983  0.00  0.00    +0.003 C 
ATOM      9  C   UNL     1      34.298 -21.038 -19.563  0.00  0.00    +0.021 C 
ENDROOT
BRANCH   3  15
ATOM     10  N   UNL     1      35.193 -25.156 -15.474  0.00  0.00    -0.146 NA
ATOM     11  N   UNL     1      37.486 -25.676 -12.786  0.00  0.00    -0.257 N 
ATOM     12  N   UNL     1      36.046 -25.844 -14.729  0.00  0.00    -0.129 NA
ATOM     13  N   UNL     1      37.847 -24.774 -11.854  0.00  0.00    -0.157 NA
ATOM     14  N   UNL     1      37.183 -22.493 -11.536  0.00  0.00    -0.341 N 
ATOM     15  C   UNL     1      34.908 -23.862 -15.174  0.00  0.00    +0.106 C 
ATOM     16  C   UNL     1      35.450 -23.153 -14.110  0.00  0.00    +0.027 C 
ATOM     17  C   UNL     1      36.345 -23.880 -13.330  0.00  0.00    +0.071 A 
ATOM     18  C   UNL     1      36.591 -25.191 -13.691  0.00  0.00    +0.180 A 
ATOM     19  C   UNL     1      37.149 -23.684 -12.190  0.00  0.00    +0.148 A 
ATOM     20  H   UNL     1      37.835 -26.596 -12.811  0.00  0.00    +0.191 HD
ATOM     21  H   UNL     1      37.755 -22.384 -10.742  0.00  0.00    +0.144 HD
ATOM     22  H   UNL     1      36.637 -21.739 -11.856  0.00  0.00    +0.144 HD
ENDBRANCH   3  15
BRANCH   5  23
ATOM     23  C   UNL     1      31.701 -23.679 -14.999  0.00  0.00    +0.019 C 
ATOM     24  C   UNL     1      31.748 -23.194 -13.692  0.00  0.00    +0.002 C 
ATOM     25  C   UNL     1      30.811 -24.698 -15.334  0.00  0.00    +0.002 C 
ATOM     26  C   UNL     1      30.902 -23.729 -12.720  0.00  0.00    +0.000 C 
ATOM     27  C   UNL     1      29.965 -25.233 -14.361  0.00  0.00    +0.000 C 
ATOM     28  C   UNL     1      30.011 -24.748 -13.055  0.00  0.00    +0.000 C 
ENDBRANCH   5  23
TORSDOF 2
ENDMDL
MODEL 4
REMARK VINA RESULT:     -10.7      2.362      6.300
REMARK  Name = 53338808
REMARK  2 active torsions:
REMARK  status: ('A' for Active; 'I' for Inactive)
REMARK    1  A    between atoms: C_3  and  C_15
REMARK    2  A    between atoms: C_5  and  C_23
REMARK                            x       y       z     vdW  Elec       q    Type
REMARK                         _______ _______ _______ _____ _____    ______ ____
ROOT
ATOM      1  N   UNL     1      35.552 -22.310 -17.134  0.00  0.00    -0.228 N 
ATOM      2  N   UNL     1      36.336 -22.720 -16.101  0.00  0.00    -0.165 NA
ATOM      3  C   UNL     1      34.163 -23.300 -15.700  0.00  0.00    +0.056 A 
ATOM      4  C   UNL     1      34.215 -22.655 -16.911  0.00  0.00    +0.086 A 
ATOM      5  C   UNL     1      35.493 -23.310 -15.253  0.00  0.00    +0.104 A 
ATOM      6  C   UNL     1      33.255 -22.298 -17.900  0.00  0.00    +0.019 C 
ATOM      7  C   UNL     1      35.955 -21.634 -18.292  0.00  0.00    +0.100 C 
ATOM      8  C   UNL     1      33.653 -21.648 -19.009  0.00  0.00    +0.003 C 
ATOM      9  C   UNL     1      35.047 -21.300 -19.222  0.00  0.00    +0.021 C 
ENDROOT
BRANCH   3  15
ATOM     10  N   UNL     1      33.144 -24.543 -13.973  0.00  0.00    -0.146 NA
ATOM     11  N   UNL     1      29.691 -25.263 -13.424  0.00  0.00    -0.257 N 
ATOM     12  N   UNL     1      32.105 -25.067 -13.340  0.00  0.00    -0.129 NA
ATOM     13  N   UNL     1      28.657 -24.867 -14.191  0.00  0.00    -0.157 NA
ATOM     14  N   UNL     1      28.601 -23.554 -16.195  0.00  0.00    -0.341 N 
ATOM     15  C   UNL     1      32.964 -23.817 -15.108  0.00  0.00    +0.106 C 
ATOM     16  C   UNL     1      31.735 -23.557 -15.699  0.00  0.00    +0.027 C 
ATOM     17  C   UNL     1      30.645 -24.110 -15.031  0.00  0.00    +0.071 A 
ATOM     18  C   UNL     1      30.899 -24.835 -13.882  0.00  0.00    +0.180 A 
ATOM     19  C   UNL     1      29.244 -24.166 -15.167  0.00  0.00    +0.148 A 
ATOM     20  H   UNL     1      29.583 -25.807 -12.611  0.00  0.00    +0.191 HD
ATOM     21  H   UNL     1      27.620 -23.611 -16.266  0.00  0.00    +0.144 HD
ATOM     22  H   UNL     1      29.114 -23.055 -16.870  0.00  0.00    +0.144 HD
ENDBRANCH   3  15
BRANCH   5  23
ATOM     23  C   UNL     1      35.991 -23.872 -14.022  0.00  0.00    +0.019 C 
ATOM     24  C   UNL     1      36.518 -25.163 -14.009  0.00  0.00    +0.002 C 
ATOM     25  C   UNL     1      35.947 -23.125 -12.846  0.00  0.00    +0.002 C 
ATOM     26  C   UNL     1      37.001 -25.707 -12.819  0.00  0.00    +0.000 C 
ATOM     27  C   UNL     1      36.431 -23.669 -11.655  0.00  0.00    +0.000 C 
ATOM     28  C   UNL     1      36.957 -24.960 -11.643  0.00  0.00    +0.000 C 
ENDBRANCH   5  23
TORSDOF 2
ENDMDL
MODEL 5
REMARK VINA RESULT:     -10.4      2.392      4.840
REMARK  Name = 53338808
REMARK  2 active torsions:
REMARK  status: ('A' for Active; 'I' for Inactive)
REMARK    1  A    between atoms: C_3  and  C_15
REMARK    2  A    between atoms: C_5  and  C_23
REMARK                            x       y       z     vdW  Elec       q    Type
REMARK                         _______ _______ _______ _____ _____    ______ ____
ROOT
ATOM      1  N   UNL     1      31.969 -24.431 -13.378  0.00  0.00    -0.228 N 
ATOM      2  N   UNL     1      33.179 -24.663 -12.801  0.00  0.00    -0.165 NA
ATOM      3  C   UNL     1      33.472 -23.771 -14.884  0.00  0.00    +0.056 A 
ATOM      4  C   UNL     1      32.123 -23.884 -14.656  0.00  0.00    +0.086 A 
ATOM      5  C   UNL     1      34.067 -24.263 -13.712  0.00  0.00    +0.104 A 
ATOM      6  C   UNL     1      30.950 -23.580 -15.402  0.00  0.00    +0.019 C 
ATOM      7  C   UNL     1      30.705 -24.678 -12.830  0.00  0.00    +0.100 C 
ATOM      8  C   UNL     1      29.740 -23.822 -14.867  0.00  0.00    +0.003 C 
ATOM      9  C   UNL     1      29.601 -24.389 -13.537  0.00  0.00    +0.021 C 
ENDROOT
BRANCH   3  15
ATOM     10  N   UNL     1      33.450 -23.652 -17.240  0.00  0.00    -0.146 NA
ATOM     11  N   UNL     1      35.593 -21.837 -19.444  0.00  0.00    -0.257 N 
ATOM     12  N   UNL     1      33.899 -23.230 -18.413  0.00  0.00    -0.129 NA
ATOM     13  N   UNL     1      36.626 -21.048 -19.091  0.00  0.00    -0.157 NA
ATOM     14  N   UNL     1      37.503 -20.484 -16.932  0.00  0.00    -0.341 N 
ATOM     15  C   UNL     1      34.050 -23.249 -16.089  0.00  0.00    +0.106 C 
ATOM     16  C   UNL     1      35.142 -22.396 -16.017  0.00  0.00    +0.027 C 
ATOM     17  C   UNL     1      35.611 -21.955 -17.251  0.00  0.00    +0.071 A 
ATOM     18  C   UNL     1      34.955 -22.401 -18.383  0.00  0.00    +0.180 A 
ATOM     19  C   UNL     1      36.632 -21.124 -17.755  0.00  0.00    +0.148 A 
ATOM     20  H   UNL     1      35.327 -21.990 -20.379  0.00  0.00    +0.191 HD
ATOM     21  H   UNL     1      38.207 -19.909 -17.312  0.00  0.00    +0.144 HD
ATOM     22  H   UNL     1      37.432 -20.595 -15.957  0.00  0.00    +0.144 HD
ENDBRANCH   3  15
BRANCH   5  23
ATOM     23  C   UNL     1      35.477 -24.367 -13.432  0.00  0.00    +0.019 C 
ATOM     24  C   UNL     1      36.241 -25.353 -14.056  0.00  0.00    +0.002 C 
ATOM     25  C   UNL     1      36.078 -23.482 -12.537  0.00  0.00    +0.002 C 
ATOM     26  C   UNL     1      37.606 -25.453 -13.786  0.00  0.00    +0.000 C 
ATOM     27  C   UNL     1      37.443 -23.582 -12.267  0.00  0.00    +0.000 C 
ATOM     28  C   UNL     1      38.206 -24.568 -12.891  0.00  0.00    +0.000 C 
ENDBRANCH   5  23
TORSDOF 2
ENDMDL
MODEL 6
REMARK VINA RESULT:     -10.4      2.403      5.483
REMARK  Name = 53338808
REMARK  2 active torsions:
REMARK  status: ('A' for Active; 'I' for Inactive)
REMARK    1  A    between atoms: C_3  and  C_15
REMARK    2  A    between atoms: C_5  and  C_23
REMARK                            x       y       z     vdW  Elec       q    Type
REMARK                         _______ _______ _______ _____ _____    ______ ____
ROOT
ATOM      1  N   UNL     1      32.049 -24.390 -13.923  0.00  0.00    -0.228 N 
ATOM      2  N   UNL     1      33.233 -24.787 -13.381  0.00  0.00    -0.165 NA
ATOM      3  C   UNL     1      33.619 -23.563 -15.271  0.00  0.00    +0.056 A 
ATOM      4  C   UNL     1      32.261 -23.638 -15.083  0.00  0.00    +0.086 A 
ATOM      5  C   UNL     1      34.161 -24.285 -14.197  0.00  0.00    +0.104 A 
ATOM      6  C   UNL     1      31.123 -23.141 -15.778  0.00  0.00    +0.019 C 
ATOM      7  C   UNL     1      30.762 -24.657 -13.443  0.00  0.00    +0.100 C 
ATOM      8  C   UNL     1      29.889 -23.404 -15.309  0.00  0.00    +0.003 C 
ATOM      9  C   UNL     1      29.691 -24.187 -14.101  0.00  0.00    +0.021 C 
ENDROOT
BRANCH   3  15
ATOM     10  N   UNL     1      35.606 -22.805 -16.293  0.00  0.00    -0.146 NA
ATOM     11  N   UNL     1      36.047 -20.986 -19.334  0.00  0.00    -0.257 N 
ATOM     12  N   UNL     1      36.293 -22.192 -17.246  0.00  0.00    -0.129 NA
ATOM     13  N   UNL     1      35.075 -20.571 -20.168  0.00  0.00    -0.157 NA
ATOM     14  N   UNL     1      32.694 -20.826 -20.056  0.00  0.00    -0.341 N 
ATOM     15  C   UNL     1      34.250 -22.872 -16.358  0.00  0.00    +0.106 C 
ATOM     16  C   UNL     1      33.475 -22.335 -17.377  0.00  0.00    +0.027 C 
ATOM     17  C   UNL     1      34.201 -21.691 -18.375  0.00  0.00    +0.071 A 
ATOM     18  C   UNL     1      35.576 -21.660 -18.248  0.00  0.00    +0.180 A 
ATOM     19  C   UNL     1      33.954 -21.003 -19.580  0.00  0.00    +0.148 A 
ATOM     20  H   UNL     1      37.003 -20.818 -19.493  0.00  0.00    +0.191 HD
ATOM     21  H   UNL     1      32.552 -20.340 -20.901  0.00  0.00    +0.144 HD
ATOM     22  H   UNL     1      31.924 -21.181 -19.557  0.00  0.00    +0.144 HD
ENDBRANCH   3  15
BRANCH   5  23
ATOM     23  C   UNL     1      35.557 -24.516 -13.922  0.00  0.00    +0.019 C 
ATOM     24  C   UNL     1      36.246 -23.666 -13.057  0.00  0.00    +0.002 C 
ATOM     25  C   UNL     1      36.218 -25.589 -14.518  0.00  0.00    +0.002 C 
ATOM     26  C   UNL     1      37.596 -23.889 -12.789  0.00  0.00    +0.000 C 
ATOM     27  C   UNL     1      37.568 -25.812 -14.250  0.00  0.00    +0.000 C 
ATOM     28  C   UNL     1      38.257 -24.962 -13.386  0.00  0.00    +0.000 C 
ENDBRANCH   5  23
TORSDOF 2
ENDMDL
MODEL 7
REMARK VINA RESULT:     -10.2      2.271      5.915
REMARK  Name = 53338808
REMARK  2 active torsions:
REMARK  status: ('A' for Active; 'I' for Inactive)
REMARK    1  A    between atoms: C_3  and  C_15
REMARK    2  A    between atoms: C_5  and  C_23
REMARK                            x       y       z     vdW  Elec       q    Type
REMARK                         _______ _______ _______ _____ _____    ______ ____
ROOT
ATOM      1  N   UNL     1      34.969 -24.221 -12.221  0.00  0.00    -0.228 N 
ATOM      2  N   UNL     1      33.610 -24.301 -12.254  0.00  0.00    -0.165 NA
ATOM      3  C   UNL     1      34.401 -23.681 -14.306  0.00  0.00    +0.056 A 
ATOM      4  C   UNL     1      35.475 -23.843 -13.468  0.00  0.00    +0.086 A 
ATOM      5  C   UNL     1      33.286 -23.975 -13.507  0.00  0.00    +0.104 A 
ATOM      6  C   UNL     1      36.886 -23.713 -13.608  0.00  0.00    +0.019 C 
ATOM      7  C   UNL     1      35.808 -24.471 -11.129  0.00  0.00    +0.100 C 
ATOM      8  C   UNL     1      37.684 -23.954 -12.552  0.00  0.00    +0.003 C 
ATOM      9  C   UNL     1      37.138 -24.347 -11.265  0.00  0.00    +0.021 C 
ENDROOT
BRANCH   3  15
ATOM     10  N   UNL     1      33.614 -23.900 -16.520  0.00  0.00    -0.146 NA
ATOM     11  N   UNL     1      34.714 -22.261 -19.495  0.00  0.00    -0.257 N 
ATOM     12  N   UNL     1      33.613 -23.616 -17.814  0.00  0.00    -0.129 NA
ATOM     13  N   UNL     1      35.705 -21.354 -19.592  0.00  0.00    -0.157 NA
ATOM     14  N   UNL     1      37.153 -20.425 -17.922  0.00  0.00    -0.341 N 
ATOM     15  C   UNL     1      34.498 -23.294 -15.684  0.00  0.00    +0.106 C 
ATOM     16  C   UNL     1      35.449 -22.359 -16.073  0.00  0.00    +0.027 C 
ATOM     17  C   UNL     1      35.444 -22.064 -17.433  0.00  0.00    +0.071 A 
ATOM     18  C   UNL     1      34.518 -22.715 -18.227  0.00  0.00    +0.180 A 
ATOM     19  C   UNL     1      36.146 -21.239 -18.334  0.00  0.00    +0.148 A 
ATOM     20  H   UNL     1      34.184 -22.565 -20.266  0.00  0.00    +0.191 HD
ATOM     21  H   UNL     1      37.626 -19.859 -18.575  0.00  0.00    +0.144 HD
ATOM     22  H   UNL     1      37.410 -20.401 -16.973  0.00  0.00    +0.144 HD
ENDBRANCH   3  15
BRANCH   5  23
ATOM     23  C   UNL     1      31.901 -23.955 -13.905  0.00  0.00    +0.019 C 
ATOM     24  C   UNL     1      31.164 -25.138 -13.923  0.00  0.00    +0.002 C 
ATOM     25  C   UNL     1      31.298 -22.752 -14.272  0.00  0.00    +0.002 C 
ATOM     26  C   UNL     1      29.823 -25.119 -14.307  0.00  0.00    +0.000 C 
ATOM     27  C   UNL     1      29.957 -22.733 -14.657  0.00  0.00    +0.000 C 
ATOM     28  C   UNL     1      29.220 -23.916 -14.674  0.00  0.00    +0.000 C 
ENDBRANCH   5  23
TORSDOF 2
ENDMDL
MODEL 8
REMARK VINA RESULT:      -9.9      2.676      6.337
REMARK  Name = 53338808
REMARK  2 active torsions:
REMARK  status: ('A' for Active; 'I' for Inactive)
REMARK    1  A    between atoms: C_3  and  C_15
REMARK    2  A    between atoms: C_5  and  C_23
REMARK                            x       y       z     vdW  Elec       q    Type
REMARK                         _______ _______ _______ _____ _____    ______ ____
ROOT
ATOM      1  N   UNL     1      35.565 -21.820 -18.016  0.00  0.00    -0.228 N 
ATOM      2  N   UNL     1      36.188 -22.396 -16.952  0.00  0.00    -0.165 NA
ATOM      3  C   UNL     1      33.926 -22.641 -16.748  0.00  0.00    +0.056 A 
ATOM      4  C   UNL     1      34.177 -21.958 -17.913  0.00  0.00    +0.086 A 
ATOM      5  C   UNL     1      35.196 -22.882 -16.204  0.00  0.00    +0.104 A 
ATOM      6  C   UNL     1      33.369 -21.410 -18.948  0.00  0.00    +0.019 C 
ATOM      7  C   UNL     1      36.162 -21.166 -19.099  0.00  0.00    +0.100 C 
ATOM      8  C   UNL     1      33.953 -20.782 -19.986  0.00  0.00    +0.003 C 
ATOM      9  C   UNL     1      35.397 -20.650 -20.074  0.00  0.00    +0.021 C 
ENDROOT
BRANCH   3  15
ATOM     10  N   UNL     1      31.587 -22.523 -17.035  0.00  0.00    -0.146 NA
ATOM     11  N   UNL     1      28.979 -23.914 -15.032  0.00  0.00    -0.257 N 
ATOM     12  N   UNL     1      30.334 -22.785 -16.695  0.00  0.00    -0.129 NA
ATOM     13  N   UNL     1      29.131 -24.641 -13.910  0.00  0.00    -0.157 NA
ATOM     14  N   UNL     1      31.107 -25.342 -12.748  0.00  0.00    -0.341 N 
ATOM     15  C   UNL     1      32.616 -22.986 -16.277  0.00  0.00    +0.106 C 
ATOM     16  C   UNL     1      32.475 -23.745 -15.123  0.00  0.00    +0.027 C 
ATOM     17  C   UNL     1      31.157 -24.017 -14.769  0.00  0.00    +0.071 A 
ATOM     18  C   UNL     1      30.159 -23.517 -15.584  0.00  0.00    +0.180 A 
ATOM     19  C   UNL     1      30.458 -24.700 -13.754  0.00  0.00    +0.148 A 
ATOM     20  H   UNL     1      28.101 -23.690 -15.416  0.00  0.00    +0.191 HD
ATOM     21  H   UNL     1      30.593 -25.812 -12.052  0.00  0.00    +0.144 HD
ATOM     22  H   UNL     1      32.091 -25.337 -12.713  0.00  0.00    +0.144 HD
ENDBRANCH   3  15
BRANCH   5  23
ATOM     23  C   UNL     1      35.498 -23.570 -14.974  0.00  0.00    +0.019 C 
ATOM     24  C   UNL     1      35.441 -22.885 -13.761  0.00  0.00    +0.002 C 
ATOM     25  C   UNL     1      35.846 -24.920 -14.997  0.00  0.00    +0.002 C 
ATOM     26  C   UNL     1      35.732 -23.551 -12.570  0.00  0.00    +0.000 C 
ATOM     27  C   UNL     1      36.137 -25.586 -13.806  0.00  0.00    +0.000 C 
ATOM     28  C   UNL     1      36.080 -24.901 -12.593  0.00  0.00    +0.000 C 
ENDBRANCH   5  23
TORSDOF 2
ENDMDL
MODEL 9
REMARK VINA RESULT:      -9.6      2.386      6.243
REMARK  Name = 53338808
REMARK  2 active torsions:
REMARK  status: ('A' for Active; 'I' for Inactive)
REMARK    1  A    between atoms: C_3  and  C_15
REMARK    2  A    between atoms: C_5  and  C_23
REMARK                            x       y       z     vdW  Elec       q    Type
REMARK                         _______ _______ _______ _____ _____    ______ ____
ROOT
ATOM      1  N   UNL     1      36.052 -24.900 -12.943  0.00  0.00    -0.228 N 
ATOM      2  N   UNL     1      34.704 -24.724 -12.870  0.00  0.00    -0.165 NA
ATOM      3  C   UNL     1      35.530 -23.632 -14.699  0.00  0.00    +0.056 A 
ATOM      4  C   UNL     1      36.580 -24.240 -14.057  0.00  0.00    +0.086 A 
ATOM      5  C   UNL     1      34.408 -23.965 -13.926  0.00  0.00    +0.104 A 
ATOM      6  C   UNL     1      37.982 -24.323 -14.284  0.00  0.00    +0.019 C 
ATOM      7  C   UNL     1      36.862 -25.628 -12.065  0.00  0.00    +0.100 C 
ATOM      8  C   UNL     1      38.754 -25.025 -13.433  0.00  0.00    +0.003 C 
ATOM      9  C   UNL     1      38.185 -25.704 -12.282  0.00  0.00    +0.021 C 
ENDROOT
BRANCH   3  15
ATOM     10  N   UNL     1      36.851 -22.228 -16.059  0.00  0.00    -0.146 NA
ATOM     11  N   UNL     1      36.060 -20.685 -19.179  0.00  0.00    -0.257 N 
ATOM     12  N   UNL     1      37.078 -21.481 -17.129  0.00  0.00    -0.129 NA
ATOM     13  N   UNL     1      34.897 -20.785 -19.852  0.00  0.00    -0.157 NA
ATOM     14  N   UNL     1      32.884 -21.980 -19.338  0.00  0.00    -0.341 N 
ATOM     15  C   UNL     1      35.654 -22.850 -15.895  0.00  0.00    +0.106 C 
ATOM     16  C   UNL     1      34.591 -22.776 -16.785  0.00  0.00    +0.027 C 
ATOM     17  C   UNL     1      34.833 -21.990 -17.908  0.00  0.00    +0.071 A 
ATOM     18  C   UNL     1      36.072 -21.386 -18.013  0.00  0.00    +0.180 A 
ATOM     19  C   UNL     1      34.155 -21.580 -19.073  0.00  0.00    +0.148 A 
ATOM     20  H   UNL     1      36.825 -20.156 -19.500  0.00  0.00    +0.191 HD
ATOM     21  H   UNL     1      32.434 -21.678 -20.161  0.00  0.00    +0.144 HD
ATOM     22  H   UNL     1      32.412 -22.571 -18.708  0.00  0.00    +0.144 HD
ENDBRANCH   3  15
BRANCH   5  23
ATOM     23  C   UNL     1      33.041 -23.574 -14.165  0.00  0.00    +0.019 C 
ATOM     24  C   UNL     1      32.264 -23.080 -13.118  0.00  0.00    +0.002 C 
ATOM     25  C   UNL     1      32.496 -23.689 -15.444  0.00  0.00    +0.002 C 
ATOM     26  C   UNL     1      30.942 -22.701 -13.349  0.00  0.00    +0.000 C 
ATOM     27  C   UNL     1      31.173 -23.310 -15.675  0.00  0.00    +0.000 C 
ATOM     28  C   UNL     1      30.397 -22.816 -14.627  0.00  0.00    +0.000 C 
ENDBRANCH   5  23
TORSDOF 2
ENDMDL
