MODEL 1
REMARK VINA RESULT:     -12.3      0.000      0.000
REMARK  Name = 448841
REMARK  3 active torsions:
REMARK  status: ('A' for Active; 'I' for Inactive)
REMARK    1  A    between atoms: C_1  and  C_17
REMARK    2  A    between atoms: C_9  and  C_13
REMARK    3  A    between atoms: C_18  and  C_20
REMARK                            x       y       z     vdW  Elec       q    Type
REMARK                         _______ _______ _______ _____ _____    ______ ____
ROOT
ATOM      1  C   UNL     1      35.436 -20.851 -19.540  0.00  0.00    -0.022 C 
ATOM      2  C   UNL     1      36.379 -21.128 -18.552  0.00  0.00    -0.004 C 
ATOM      3  C   UNL     1      34.130 -21.316 -19.408  0.00  0.00    -0.004 C 
ATOM      4  C   UNL     1      36.029 -21.875 -17.415  0.00  0.00    -0.000 C 
ATOM      5  C   UNL     1      33.765 -22.060 -18.285  0.00  0.00    -0.000 C 
ATOM      6  C   UNL     1      34.701 -22.348 -17.279  0.00  0.00    +0.000 C 
ATOM      7  C   UNL     1      36.966 -22.164 -16.410  0.00  0.00    +0.000 C 
ATOM      8  C   UNL     1      34.351 -23.095 -16.144  0.00  0.00    +0.003 C 
ATOM      9  C   UNL     1      35.295 -23.372 -15.154  0.00  0.00    +0.031 C 
ATOM     10  C   UNL     1      36.600 -22.907 -15.288  0.00  0.00    +0.003 C 
ENDROOT
BRANCH   9  13
ATOM     11  N   UNL     1      34.308 -23.546 -12.882  0.00  0.00    -0.343 N 
ATOM     12  N   UNL     1      35.151 -25.446 -13.949  0.00  0.00    -0.285 NA
ATOM     13  C   UNL     1      34.916 -24.146 -13.984  0.00  0.00    +0.117 C 
ATOM     14  H   UNL     1      34.060 -24.089 -12.100  0.00  0.00    +0.144 HD
ATOM     15  H   UNL     1      34.127 -22.578 -12.887  0.00  0.00    +0.144 HD
ATOM     16  H   UNL     1      34.894 -25.972 -13.158  0.00  0.00    +0.188 HD
ENDBRANCH   9  13
BRANCH   1  17
ATOM     17  C   UNL     1      35.824 -20.057 -20.740  0.00  0.00    +0.027 C 
ATOM     18  C   UNL     1      35.432 -18.615 -20.822  0.00  0.00    +0.027 C 
ATOM     19  C   UNL     1      36.868 -18.992 -20.604  0.00  0.00    +0.009 C 
BRANCH  18  20
ATOM     20  C   UNL     1      35.019 -18.049 -22.130  0.00  0.00    -0.022 C 
ATOM     21  C   UNL     1      34.376 -18.854 -23.075  0.00  0.00    -0.004 C 
ATOM     22  C   UNL     1      35.272 -16.706 -22.428  0.00  0.00    -0.004 C 
ATOM     23  C   UNL     1      33.990 -18.323 -24.305  0.00  0.00    -0.000 C 
ATOM     24  C   UNL     1      34.887 -16.175 -23.658  0.00  0.00    -0.000 C 
ATOM     25  C   UNL     1      34.246 -16.983 -24.597  0.00  0.00    -0.000 C 
ENDBRANCH  18  20
ENDBRANCH   1  17
TORSDOF 3
ENDMDL
MODEL 2
REMARK VINA RESULT:     -11.7      1.183      2.652
REMARK  Name = 448841
REMARK  3 active torsions:
REMARK  status: ('A' for Active; 'I' for Inactive)
REMARK    1  A    between atoms: C_1  and  C_17
REMARK    2  A    between atoms: C_9  and  C_13
REMARK    3  A    between atoms: C_18  and  C_20
REMARK                            x       y       z     vdW  Elec       q    Type
REMARK                         _______ _______ _______ _____ _____    ______ ____
ROOT
ATOM      1  C   UNL     1      34.710 -19.895 -20.834  0.00  0.00    -0.022 C 
ATOM      2  C   UNL     1      33.752 -20.619 -20.125  0.00  0.00    -0.004 C 
ATOM      3  C   UNL     1      36.037 -19.896 -20.412  0.00  0.00    -0.004 C 
ATOM      4  C   UNL     1      34.108 -21.355 -18.983  0.00  0.00    -0.000 C 
ATOM      5  C   UNL     1      36.409 -20.622 -19.279  0.00  0.00    -0.000 C 
ATOM      6  C   UNL     1      35.457 -21.357 -18.554  0.00  0.00    +0.000 C 
ATOM      7  C   UNL     1      33.157 -22.089 -18.257  0.00  0.00    +0.000 C 
ATOM      8  C   UNL     1      35.815 -22.092 -17.413  0.00  0.00    +0.003 C 
ATOM      9  C   UNL     1      34.856 -22.817 -16.703  0.00  0.00    +0.031 C 
ATOM     10  C   UNL     1      33.529 -22.815 -17.126  0.00  0.00    +0.003 C 
ENDROOT
BRANCH   9  13
ATOM     11  N   UNL     1      34.290 -24.048 -14.623  0.00  0.00    -0.343 N 
ATOM     12  N   UNL     1      36.519 -23.819 -15.287  0.00  0.00    -0.285 NA
ATOM     13  C   UNL     1      35.242 -23.573 -15.524  0.00  0.00    +0.117 C 
ATOM     14  H   UNL     1      34.573 -24.559 -13.830  0.00  0.00    +0.144 HD
ATOM     15  H   UNL     1      33.334 -23.873 -14.780  0.00  0.00    +0.144 HD
ATOM     16  H   UNL     1      36.781 -24.332 -14.489  0.00  0.00    +0.188 HD
ENDBRANCH   9  13
BRANCH   1  17
ATOM     17  C   UNL     1      34.314 -19.120 -22.042  0.00  0.00    +0.027 C 
ATOM     18  C   UNL     1      35.301 -18.183 -22.666  0.00  0.00    +0.027 C 
ATOM     19  C   UNL     1      34.932 -19.460 -23.363  0.00  0.00    +0.009 C 
BRANCH  18  20
ATOM     20  C   UNL     1      34.825 -16.889 -23.218  0.00  0.00    -0.022 C 
ATOM     21  C   UNL     1      34.925 -15.721 -22.458  0.00  0.00    -0.004 C 
ATOM     22  C   UNL     1      34.273 -16.832 -24.501  0.00  0.00    -0.004 C 
ATOM     23  C   UNL     1      34.476 -14.505 -22.975  0.00  0.00    -0.000 C 
ATOM     24  C   UNL     1      33.824 -15.617 -25.019  0.00  0.00    -0.000 C 
ATOM     25  C   UNL     1      33.926 -14.454 -24.255  0.00  0.00    -0.000 C 
ENDBRANCH  18  20
ENDBRANCH   1  17
TORSDOF 3
ENDMDL
MODEL 3
REMARK VINA RESULT:     -11.7      5.739      9.889
REMARK  Name = 448841
REMARK  3 active torsions:
REMARK  status: ('A' for Active; 'I' for Inactive)
REMARK    1  A    between atoms: C_1  and  C_17
REMARK    2  A    between atoms: C_9  and  C_13
REMARK    3  A    between atoms: C_18  and  C_20
REMARK                            x       y       z     vdW  Elec       q    Type
REMARK                         _______ _______ _______ _____ _____    ______ ____
ROOT
ATOM      1  C   UNL     1      35.152 -16.653 -21.270  0.00  0.00    -0.022 C 
ATOM      2  C   UNL     1      34.921 -16.758 -22.641  0.00  0.00    -0.004 C 
ATOM      3  C   UNL     1      34.957 -15.437 -20.620  0.00  0.00    -0.004 C 
ATOM      4  C   UNL     1      34.492 -15.645 -23.383  0.00  0.00    -0.000 C 
ATOM      5  C   UNL     1      34.531 -14.321 -21.342  0.00  0.00    -0.000 C 
ATOM      6  C   UNL     1      34.294 -14.408 -22.723  0.00  0.00    +0.000 C 
ATOM      7  C   UNL     1      34.256 -15.731 -24.764  0.00  0.00    +0.000 C 
ATOM      8  C   UNL     1      33.865 -13.295 -23.464  0.00  0.00    +0.003 C 
ATOM      9  C   UNL     1      33.634 -13.399 -24.836  0.00  0.00    +0.031 C 
ATOM     10  C   UNL     1      33.829 -14.615 -25.484  0.00  0.00    +0.003 C 
ENDROOT
BRANCH   9  13
ATOM     11  N   UNL     1      32.364 -12.369 -26.704  0.00  0.00    -0.343 N 
ATOM     12  N   UNL     1      33.573 -11.028 -25.221  0.00  0.00    -0.285 NA
ATOM     13  C   UNL     1      33.190 -12.238 -25.589  0.00  0.00    +0.117 C 
ATOM     14  H   UNL     1      32.075 -11.569 -27.200  0.00  0.00    +0.144 HD
ATOM     15  H   UNL     1      32.070 -13.262 -26.997  0.00  0.00    +0.144 HD
ATOM     16  H   UNL     1      33.272 -10.240 -25.730  0.00  0.00    +0.188 HD
ENDBRANCH   9  13
BRANCH   1  17
ATOM     17  C   UNL     1      35.607 -17.844 -20.498  0.00  0.00    +0.027 C 
ATOM     18  C   UNL     1      35.278 -19.214 -21.004  0.00  0.00    +0.027 C 
ATOM     19  C   UNL     1      36.690 -18.710 -21.064  0.00  0.00    +0.009 C 
BRANCH  18  20
ATOM     20  C   UNL     1      34.926 -20.281 -20.034  0.00  0.00    -0.022 C 
ATOM     21  C   UNL     1      35.932 -20.963 -19.344  0.00  0.00    -0.004 C 
ATOM     22  C   UNL     1      33.587 -20.611 -19.805  0.00  0.00    -0.004 C 
ATOM     23  C   UNL     1      35.603 -21.968 -18.433  0.00  0.00    -0.000 C 
ATOM     24  C   UNL     1      33.257 -21.616 -18.895  0.00  0.00    -0.000 C 
ATOM     25  C   UNL     1      34.265 -22.294 -18.210  0.00  0.00    -0.000 C 
ENDBRANCH  18  20
ENDBRANCH   1  17
TORSDOF 3
ENDMDL
MODEL 4
REMARK VINA RESULT:     -11.6      1.073      1.986
REMARK  Name = 448841
REMARK  3 active torsions:
REMARK  status: ('A' for Active; 'I' for Inactive)
REMARK    1  A    between atoms: C_1  and  C_17
REMARK    2  A    between atoms: C_9  and  C_13
REMARK    3  A    between atoms: C_18  and  C_20
REMARK                            x       y       z     vdW  Elec       q    Type
REMARK                         _______ _______ _______ _____ _____    ______ ____
ROOT
ATOM      1  C   UNL     1      35.665 -21.079 -19.126  0.00  0.00    -0.022 C 
ATOM      2  C   UNL     1      34.356 -21.496 -18.888  0.00  0.00    -0.004 C 
ATOM      3  C   UNL     1      36.660 -21.335 -18.186  0.00  0.00    -0.004 C 
ATOM      4  C   UNL     1      34.023 -22.175 -17.705  0.00  0.00    -0.000 C 
ATOM      5  C   UNL     1      36.347 -22.009 -17.004  0.00  0.00    -0.000 C 
ATOM      6  C   UNL     1      35.034 -22.436 -16.748  0.00  0.00    +0.000 C 
ATOM      7  C   UNL     1      32.710 -22.601 -17.448  0.00  0.00    +0.000 C 
ATOM      8  C   UNL     1      34.702 -23.114 -15.565  0.00  0.00    +0.003 C 
ATOM      9  C   UNL     1      33.392 -23.531 -15.327  0.00  0.00    +0.031 C 
ATOM     10  C   UNL     1      32.398 -23.275 -16.268  0.00  0.00    +0.003 C 
ENDROOT
BRANCH   9  13
ATOM     11  N   UNL     1      34.055 -24.613 -13.193  0.00  0.00    -0.343 N 
ATOM     12  N   UNL     1      31.806 -24.528 -13.822  0.00  0.00    -0.285 NA
ATOM     13  C   UNL     1      33.064 -24.234 -14.097  0.00  0.00    +0.117 C 
ATOM     14  H   UNL     1      33.811 -25.088 -12.366  0.00  0.00    +0.144 HD
ATOM     15  H   UNL     1      34.999 -24.406 -13.381  0.00  0.00    +0.144 HD
ATOM     16  H   UNL     1      31.582 -25.003 -12.989  0.00  0.00    +0.188 HD
ENDBRANCH   9  13
BRANCH   1  17
ATOM     17  C   UNL     1      36.001 -20.359 -20.386  0.00  0.00    +0.027 C 
ATOM     18  C   UNL     1      35.642 -18.912 -20.521  0.00  0.00    +0.027 C 
ATOM     19  C   UNL     1      37.078 -19.319 -20.369  0.00  0.00    +0.009 C 
BRANCH  18  20
ATOM     20  C   UNL     1      35.165 -18.401 -21.830  0.00  0.00    -0.022 C 
ATOM     21  C   UNL     1      34.567 -19.269 -22.749  0.00  0.00    -0.004 C 
ATOM     22  C   UNL     1      35.311 -17.049 -22.154  0.00  0.00    -0.004 C 
ATOM     23  C   UNL     1      34.120 -18.790 -23.980  0.00  0.00    -0.000 C 
ATOM     24  C   UNL     1      34.866 -16.569 -23.385  0.00  0.00    -0.000 C 
ATOM     25  C   UNL     1      34.270 -17.440 -24.298  0.00  0.00    -0.000 C 
ENDBRANCH  18  20
ENDBRANCH   1  17
TORSDOF 3
ENDMDL
MODEL 5
REMARK VINA RESULT:     -11.4      5.571      9.752
REMARK  Name = 448841
REMARK  3 active torsions:
REMARK  status: ('A' for Active; 'I' for Inactive)
REMARK    1  A    between atoms: C_1  and  C_17
REMARK    2  A    between atoms: C_9  and  C_13
REMARK    3  A    between atoms: C_18  and  C_20
REMARK                            x       y       z     vdW  Elec       q    Type
REMARK                         _______ _______ _______ _____ _____    ______ ____
ROOT
ATOM      1  C   UNL     1      35.056 -17.010 -21.391  0.00  0.00    -0.022 C 
ATOM      2  C   UNL     1      34.752 -16.597 -22.687  0.00  0.00    -0.004 C 
ATOM      3  C   UNL     1      35.101 -16.080 -20.355  0.00  0.00    -0.004 C 
ATOM      4  C   UNL     1      34.489 -15.246 -22.967  0.00  0.00    -0.000 C 
ATOM      5  C   UNL     1      34.843 -14.733 -20.615  0.00  0.00    -0.000 C 
ATOM      6  C   UNL     1      34.535 -14.300 -21.915  0.00  0.00    +0.000 C 
ATOM      7  C   UNL     1      34.182 -14.812 -24.266  0.00  0.00    +0.000 C 
ATOM      8  C   UNL     1      34.272 -12.949 -22.193  0.00  0.00    +0.003 C 
ATOM      9  C   UNL     1      33.968 -12.535 -23.491  0.00  0.00    +0.031 C 
ATOM     10  C   UNL     1      33.923 -13.466 -24.525  0.00  0.00    +0.003 C 
ENDROOT
BRANCH   9  13
ATOM     11  N   UNL     1      32.839 -10.390 -22.954  0.00  0.00    -0.343 N 
ATOM     12  N   UNL     1      34.269 -10.541 -24.797  0.00  0.00    -0.285 NA
ATOM     13  C   UNL     1      33.698 -11.133 -23.763  0.00  0.00    +0.117 C 
ATOM     14  H   UNL     1      32.670  -9.442 -23.157  0.00  0.00    +0.144 HD
ATOM     15  H   UNL     1      32.402 -10.814 -22.181  0.00  0.00    +0.144 HD
ATOM     16  H   UNL     1      34.087  -9.591 -24.982  0.00  0.00    +0.188 HD
ENDBRANCH   9  13
BRANCH   1  17
ATOM     17  C   UNL     1      35.332 -18.447 -21.112  0.00  0.00    +0.027 C 
ATOM     18  C   UNL     1      34.186 -19.384 -20.891  0.00  0.00    +0.027 C 
ATOM     19  C   UNL     1      34.995 -19.471 -22.152  0.00  0.00    +0.009 C 
BRANCH  18  20
ATOM     20  C   UNL     1      34.310 -20.456 -19.871  0.00  0.00    -0.022 C 
ATOM     21  C   UNL     1      35.573 -20.858 -19.425  0.00  0.00    -0.004 C 
ATOM     22  C   UNL     1      33.167 -21.070 -19.353  0.00  0.00    -0.004 C 
ATOM     23  C   UNL     1      35.690 -21.867 -18.468  0.00  0.00    -0.000 C 
ATOM     24  C   UNL     1      33.284 -22.079 -18.397  0.00  0.00    -0.000 C 
ATOM     25  C   UNL     1      34.546 -22.477 -17.955  0.00  0.00    -0.000 C 
ENDBRANCH  18  20
ENDBRANCH   1  17
TORSDOF 3
ENDMDL
MODEL 6
REMARK VINA RESULT:     -11.3      3.762      8.632
REMARK  Name = 448841
REMARK  3 active torsions:
REMARK  status: ('A' for Active; 'I' for Inactive)
REMARK    1  A    between atoms: C_1  and  C_17
REMARK    2  A    between atoms: C_9  and  C_13
REMARK    3  A    between atoms: C_18  and  C_20
REMARK                            x       y       z     vdW  Elec       q    Type
REMARK                         _______ _______ _______ _____ _____    ______ ____
ROOT
ATOM      1  C   UNL     1      34.343 -22.478 -17.519  0.00  0.00    -0.022 C 
ATOM      2  C   UNL     1      35.505 -21.867 -17.991  0.00  0.00    -0.004 C 
ATOM      3  C   UNL     1      33.118 -22.205 -18.121  0.00  0.00    -0.004 C 
ATOM      4  C   UNL     1      35.456 -20.974 -19.074  0.00  0.00    -0.000 C 
ATOM      5  C   UNL     1      33.051 -21.320 -19.199  0.00  0.00    -0.000 C 
ATOM      6  C   UNL     1      34.210 -20.697 -19.688  0.00  0.00    +0.000 C 
ATOM      7  C   UNL     1      36.615 -20.350 -19.562  0.00  0.00    +0.000 C 
ATOM      8  C   UNL     1      34.161 -19.805 -20.770  0.00  0.00    +0.003 C 
ATOM      9  C   UNL     1      35.323 -19.194 -21.243  0.00  0.00    +0.031 C 
ATOM     10  C   UNL     1      36.548 -19.467 -20.640  0.00  0.00    +0.003 C 
ENDROOT
BRANCH   9  13
ATOM     11  N   UNL     1      34.315 -18.436 -23.382  0.00  0.00    -0.343 N 
ATOM     12  N   UNL     1      36.100 -17.259 -22.438  0.00  0.00    -0.285 NA
ATOM     13  C   UNL     1      35.256 -18.273 -22.366  0.00  0.00    +0.117 C 
ATOM     14  H   UNL     1      34.287 -17.800 -24.133  0.00  0.00    +0.144 HD
ATOM     15  H   UNL     1      33.680 -19.186 -23.348  0.00  0.00    +0.144 HD
ATOM     16  H   UNL     1      36.055 -16.634 -23.197  0.00  0.00    +0.188 HD
ENDBRANCH   9  13
BRANCH   1  17
ATOM     17  C   UNL     1      34.413 -23.421 -16.368  0.00  0.00    +0.027 C 
ATOM     18  C   UNL     1      34.820 -22.907 -15.023  0.00  0.00    +0.027 C 
ATOM     19  C   UNL     1      33.397 -23.314 -15.273  0.00  0.00    +0.009 C 
BRANCH  18  20
ATOM     20  C   UNL     1      35.676 -23.750 -14.151  0.00  0.00    -0.022 C 
ATOM     21  C   UNL     1      36.059 -25.029 -14.567  0.00  0.00    -0.004 C 
ATOM     22  C   UNL     1      36.103 -23.273 -12.909  0.00  0.00    -0.004 C 
ATOM     23  C   UNL     1      36.861 -25.823 -13.747  0.00  0.00    -0.000 C 
ATOM     24  C   UNL     1      36.905 -24.066 -12.089  0.00  0.00    -0.000 C 
ATOM     25  C   UNL     1      37.284 -25.341 -12.508  0.00  0.00    -0.000 C 
ENDBRANCH  18  20
ENDBRANCH   1  17
TORSDOF 3
ENDMDL
MODEL 7
REMARK VINA RESULT:     -11.2      5.888      9.673
REMARK  Name = 448841
REMARK  3 active torsions:
REMARK  status: ('A' for Active; 'I' for Inactive)
REMARK    1  A    between atoms: C_1  and  C_17
REMARK    2  A    between atoms: C_9  and  C_13
REMARK    3  A    between atoms: C_18  and  C_20
REMARK                            x       y       z     vdW  Elec       q    Type
REMARK                         _______ _______ _______ _____ _____    ______ ____
ROOT
ATOM      1  C   UNL     1      34.979 -16.143 -21.213  0.00  0.00    -0.022 C 
ATOM      2  C   UNL     1      34.190 -15.376 -20.356  0.00  0.00    -0.004 C 
ATOM      3  C   UNL     1      35.260 -15.687 -22.498  0.00  0.00    -0.004 C 
ATOM      4  C   UNL     1      33.671 -14.140 -20.774  0.00  0.00    -0.000 C 
ATOM      5  C   UNL     1      34.752 -14.460 -22.929  0.00  0.00    -0.000 C 
ATOM      6  C   UNL     1      33.956 -13.675 -22.080  0.00  0.00    +0.000 C 
ATOM      7  C   UNL     1      32.874 -13.355 -19.925  0.00  0.00    +0.000 C 
ATOM      8  C   UNL     1      33.438 -12.439 -22.499  0.00  0.00    +0.003 C 
ATOM      9  C   UNL     1      32.648 -11.671 -21.642  0.00  0.00    +0.031 C 
ATOM     10  C   UNL     1      32.368 -12.129 -20.357  0.00  0.00    +0.003 C 
ENDROOT
BRANCH   9  13
ATOM     11  N   UNL     1      32.698  -9.700 -23.151  0.00  0.00    -0.343 N 
ATOM     12  N   UNL     1      31.070  -9.866 -21.483  0.00  0.00    -0.285 NA
ATOM     13  C   UNL     1      32.119 -10.394 -22.089  0.00  0.00    +0.117 C 
ATOM     14  H   UNL     1      32.324  -8.836 -23.438  0.00  0.00    +0.144 HD
ATOM     15  H   UNL     1      33.482 -10.075 -23.613  0.00  0.00    +0.144 HD
ATOM     16  H   UNL     1      30.710  -9.001 -21.786  0.00  0.00    +0.188 HD
ENDBRANCH   9  13
BRANCH   1  17
ATOM     17  C   UNL     1      35.521 -17.452 -20.754  0.00  0.00    +0.027 C 
ATOM     18  C   UNL     1      34.910 -18.719 -21.267  0.00  0.00    +0.027 C 
ATOM     19  C   UNL     1      36.281 -18.308 -21.720  0.00  0.00    +0.009 C 
BRANCH  18  20
ATOM     20  C   UNL     1      34.763 -19.877 -20.352  0.00  0.00    -0.022 C 
ATOM     21  C   UNL     1      35.896 -20.509 -19.829  0.00  0.00    -0.004 C 
ATOM     22  C   UNL     1      33.492 -20.346 -20.007  0.00  0.00    -0.004 C 
ATOM     23  C   UNL     1      35.758 -21.600 -18.971  0.00  0.00    -0.000 C 
ATOM     24  C   UNL     1      33.354 -21.436 -19.149  0.00  0.00    -0.000 C 
ATOM     25  C   UNL     1      34.487 -22.063 -18.631  0.00  0.00    -0.000 C 
ENDBRANCH  18  20
ENDBRANCH   1  17
TORSDOF 3
ENDMDL
MODEL 8
REMARK VINA RESULT:     -11.1      2.299      3.650
REMARK  Name = 448841
REMARK  3 active torsions:
REMARK  status: ('A' for Active; 'I' for Inactive)
REMARK    1  A    between atoms: C_1  and  C_17
REMARK    2  A    between atoms: C_9  and  C_13
REMARK    3  A    between atoms: C_18  and  C_20
REMARK                            x       y       z     vdW  Elec       q    Type
REMARK                         _______ _______ _______ _____ _____    ______ ____
ROOT
ATOM      1  C   UNL     1      34.497 -22.280 -17.985  0.00  0.00    -0.022 C 
ATOM      2  C   UNL     1      33.107 -22.300 -17.886  0.00  0.00    -0.004 C 
ATOM      3  C   UNL     1      35.279 -22.709 -16.915  0.00  0.00    -0.004 C 
ATOM      4  C   UNL     1      32.478 -22.749 -16.713  0.00  0.00    -0.000 C 
ATOM      5  C   UNL     1      34.670 -23.158 -15.742  0.00  0.00    -0.000 C 
ATOM      6  C   UNL     1      33.271 -23.185 -15.625  0.00  0.00    +0.000 C 
ATOM      7  C   UNL     1      31.079 -22.775 -16.595  0.00  0.00    +0.000 C 
ATOM      8  C   UNL     1      32.644 -23.634 -14.453  0.00  0.00    +0.003 C 
ATOM      9  C   UNL     1      31.251 -23.654 -14.353  0.00  0.00    +0.031 C 
ATOM     10  C   UNL     1      30.471 -23.226 -15.423  0.00  0.00    +0.003 C 
ENDROOT
BRANCH   9  13
ATOM     11  N   UNL     1      29.750 -25.215 -13.139  0.00  0.00    -0.343 N 
ATOM     12  N   UNL     1      30.854 -23.506 -11.988  0.00  0.00    -0.285 NA
ATOM     13  C   UNL     1      30.616 -24.123 -13.132  0.00  0.00    +0.117 C 
ATOM     14  H   UNL     1      29.330 -25.515 -12.300  0.00  0.00    +0.144 HD
ATOM     15  H   UNL     1      29.558 -25.685 -13.981  0.00  0.00    +0.144 HD
ATOM     16  H   UNL     1      30.424 -23.823 -11.160  0.00  0.00    +0.188 HD
ENDBRANCH   9  13
BRANCH   1  17
ATOM     17  C   UNL     1      35.148 -21.800 -19.236  0.00  0.00    +0.027 C 
ATOM     18  C   UNL     1      35.731 -20.422 -19.276  0.00  0.00    +0.027 C 
ATOM     19  C   UNL     1      36.634 -21.620 -19.264  0.00  0.00    +0.009 C 
BRANCH  18  20
ATOM     20  C   UNL     1      35.607 -19.617 -20.516  0.00  0.00    -0.022 C 
ATOM     21  C   UNL     1      36.632 -18.745 -20.894  0.00  0.00    -0.004 C 
ATOM     22  C   UNL     1      34.464 -19.723 -21.314  0.00  0.00    -0.004 C 
ATOM     23  C   UNL     1      36.515 -17.986 -22.059  0.00  0.00    -0.000 C 
ATOM     24  C   UNL     1      34.346 -18.965 -22.478  0.00  0.00    -0.000 C 
ATOM     25  C   UNL     1      35.372 -18.096 -22.851  0.00  0.00    -0.000 C 
ENDBRANCH  18  20
ENDBRANCH   1  17
TORSDOF 3
ENDMDL
MODEL 9
REMARK VINA RESULT:     -10.9      4.113      8.588
REMARK  Name = 448841
REMARK  3 active torsions:
REMARK  status: ('A' for Active; 'I' for Inactive)
REMARK    1  A    between atoms: C_1  and  C_17
REMARK    2  A    between atoms: C_9  and  C_13
REMARK    3  A    between atoms: C_18  and  C_20
REMARK                            x       y       z     vdW  Elec       q    Type
REMARK                         _______ _______ _______ _____ _____    ______ ____
ROOT
ATOM      1  C   UNL     1      34.490 -21.629 -18.755  0.00  0.00    -0.022 C 
ATOM      2  C   UNL     1      35.625 -20.978 -19.238  0.00  0.00    -0.004 C 
ATOM      3  C   UNL     1      33.232 -21.298 -19.250  0.00  0.00    -0.004 C 
ATOM      4  C   UNL     1      35.516 -19.985 -20.225  0.00  0.00    -0.000 C 
ATOM      5  C   UNL     1      33.105 -20.313 -20.232  0.00  0.00    -0.000 C 
ATOM      6  C   UNL     1      34.237 -19.647 -20.730  0.00  0.00    +0.000 C 
ATOM      7  C   UNL     1      36.647 -19.318 -20.723  0.00  0.00    +0.000 C 
ATOM      8  C   UNL     1      34.127 -18.654 -21.716  0.00  0.00    +0.003 C 
ATOM      9  C   UNL     1      35.263 -18.002 -22.200  0.00  0.00    +0.031 C 
ATOM     10  C   UNL     1      36.520 -18.335 -21.704  0.00  0.00    +0.003 C 
ENDROOT
BRANCH   9  13
ATOM     11  N   UNL     1      35.681 -15.707 -23.049  0.00  0.00    -0.343 N 
ATOM     12  N   UNL     1      34.480 -17.241 -24.340  0.00  0.00    -0.285 NA
ATOM     13  C   UNL     1      35.133 -16.977 -23.222  0.00  0.00    +0.117 C 
ATOM     14  H   UNL     1      35.581 -15.028 -23.754  0.00  0.00    +0.144 HD
ATOM     15  H   UNL     1      36.168 -15.490 -22.222  0.00  0.00    +0.144 HD
ATOM     16  H   UNL     1      34.391 -16.547 -25.033  0.00  0.00    +0.188 HD
ENDBRANCH   9  13
BRANCH   1  17
ATOM     17  C   UNL     1      34.624 -22.680 -17.708  0.00  0.00    +0.027 C 
ATOM     18  C   UNL     1      33.529 -22.854 -16.701  0.00  0.00    +0.027 C 
ATOM     19  C   UNL     1      33.741 -23.888 -17.768  0.00  0.00    +0.009 C 
BRANCH  18  20
ATOM     20  C   UNL     1      33.880 -23.176 -15.296  0.00  0.00    -0.022 C 
ATOM     21  C   UNL     1      35.205 -23.079 -14.861  0.00  0.00    -0.004 C 
ATOM     22  C   UNL     1      32.888 -23.581 -14.398  0.00  0.00    -0.004 C 
ATOM     23  C   UNL     1      35.535 -23.384 -13.540  0.00  0.00    -0.000 C 
ATOM     24  C   UNL     1      33.217 -23.887 -13.077  0.00  0.00    -0.000 C 
ATOM     25  C   UNL     1      34.541 -23.788 -12.649  0.00  0.00    -0.000 C 
ENDBRANCH  18  20
ENDBRANCH   1  17
TORSDOF 3
ENDMDL
