MODEL 1
REMARK VINA RESULT:     -12.1      0.000      0.000
REMARK  Name = 11524144
REMARK  6 active torsions:
REMARK  status: ('A' for Active; 'I' for Inactive)
REMARK    1  A    between atoms: C_1  and  O_22
REMARK    2  A    between atoms: C_2  and  C_10
REMARK    3  A    between atoms: C_12  and  C_17
REMARK    4  A    between atoms: O_22  and  C_23
REMARK    5  A    between atoms: C_23  and  C_24
REMARK    6  A    between atoms: C_24  and  N_25
REMARK                            x       y       z     vdW  Elec       q    Type
REMARK                         _______ _______ _______ _____ _____    ______ ____
ROOT
ATOM      1  C   UNL     1      34.364 -23.691 -15.624  0.00  0.00    +0.138 C 
ATOM      2  C   UNL     1      34.817 -21.987 -17.773  0.00  0.00    -0.001 C 
ATOM      3  C   UNL     1      33.391 -23.549 -16.606  0.00  0.00    +0.037 C 
ATOM      4  C   UNL     1      35.562 -22.990 -15.706  0.00  0.00    +0.037 C 
ATOM      5  C   UNL     1      33.617 -22.693 -17.684  0.00  0.00    +0.003 C 
ATOM      6  C   UNL     1      35.788 -22.135 -16.785  0.00  0.00    +0.003 C 
ENDROOT
BRANCH   2  10
ATOM      7  N   UNL     1      36.402 -19.678 -20.278  0.00  0.00    -0.193 N 
ATOM      8  N   UNL     1      34.082 -19.867 -20.873  0.00  0.00    -0.231 NA
ATOM      9  N   UNL     1      37.539 -19.055 -20.686  0.00  0.00    -0.179 NA
ATOM     10  C   UNL     1      35.055 -21.085 -18.910  0.00  0.00    +0.019 C 
ATOM     11  C   UNL     1      35.322 -19.354 -21.097  0.00  0.00    +0.137 C 
ATOM     12  C   UNL     1      35.807 -18.494 -22.056  0.00  0.00    +0.121 C 
ATOM     13  C   UNL     1      36.249 -20.540 -19.194  0.00  0.00    +0.145 C 
ATOM     14  C   UNL     1      33.971 -20.668 -19.855  0.00  0.00    +0.097 C 
ATOM     15  C   UNL     1      37.166 -18.348 -21.753  0.00  0.00    +0.103 C 
BRANCH  12  17
ATOM     16  N   UNL     1      33.468 -16.789 -25.144  0.00  0.00    -0.242 NA
ATOM     17  C   UNL     1      35.016 -17.918 -23.101  0.00  0.00    -0.007 C 
ATOM     18  C   UNL     1      35.100 -16.555 -23.375  0.00  0.00    +0.017 C 
ATOM     19  C   UNL     1      34.156 -18.715 -23.852  0.00  0.00    +0.017 C 
ATOM     20  C   UNL     1      34.313 -16.045 -24.395  0.00  0.00    +0.099 C 
ATOM     21  C   UNL     1      33.412 -18.108 -24.852  0.00  0.00    +0.099 C 
ENDBRANCH  12  17
ENDBRANCH   2  10
BRANCH   1  22
ATOM     22  O   UNL     1      34.141 -24.531 -14.564  0.00  0.00    -0.478 OA
BRANCH  22  23
ATOM     23  C   UNL     1      33.350 -24.024 -13.498  0.00  0.00    +0.183 C 
BRANCH  23  24
ATOM     24  C   UNL     1      32.238 -25.017 -13.200  0.00  0.00    -0.029 C 
BRANCH  24  25
ATOM     25  N   UNL     1      30.937 -24.466 -13.579  0.00  0.00    +0.389 N 
ATOM     26  C   UNL     1      31.071 -23.054 -13.967  0.00  0.00    -0.077 C 
ATOM     27  C   UNL     1      30.338 -25.260 -14.660  0.00  0.00    -0.077 C 
ATOM     28  C   UNL     1      29.712 -22.448 -14.320  0.00  0.00    -0.023 C 
ATOM     29  C   UNL     1      28.955 -24.725 -15.035  0.00  0.00    -0.023 C 
ATOM     30  C   UNL     1      29.014 -23.250 -15.413  0.00  0.00    -0.004 C 
ATOM     31  H   UNL     1      30.315 -24.511 -12.772  0.00  0.00    -0.080 HD
ENDBRANCH  24  25
ENDBRANCH  23  24
ENDBRANCH  22  23
ENDBRANCH   1  22
TORSDOF 6
ENDMDL
MODEL 2
REMARK VINA RESULT:     -11.7      2.021      3.634
REMARK  Name = 11524144
REMARK  6 active torsions:
REMARK  status: ('A' for Active; 'I' for Inactive)
REMARK    1  A    between atoms: C_1  and  O_22
REMARK    2  A    between atoms: C_2  and  C_10
REMARK    3  A    between atoms: C_12  and  C_17
REMARK    4  A    between atoms: O_22  and  C_23
REMARK    5  A    between atoms: C_23  and  C_24
REMARK    6  A    between atoms: C_24  and  N_25
REMARK                            x       y       z     vdW  Elec       q    Type
REMARK                         _______ _______ _______ _____ _____    ______ ____
ROOT
ATOM      1  C   UNL     1      34.356 -23.654 -15.690  0.00  0.00    +0.138 C 
ATOM      2  C   UNL     1      34.802 -21.942 -17.834  0.00  0.00    -0.001 C 
ATOM      3  C   UNL     1      33.365 -23.481 -16.649  0.00  0.00    +0.037 C 
ATOM      4  C   UNL     1      35.568 -22.981 -15.792  0.00  0.00    +0.037 C 
ATOM      5  C   UNL     1      33.589 -22.621 -17.725  0.00  0.00    +0.003 C 
ATOM      6  C   UNL     1      35.791 -22.122 -16.868  0.00  0.00    +0.003 C 
ENDROOT
BRANCH   2  10
ATOM      7  N   UNL     1      36.379 -19.620 -20.331  0.00  0.00    -0.193 N 
ATOM      8  N   UNL     1      34.060 -19.815 -20.927  0.00  0.00    -0.231 NA
ATOM      9  N   UNL     1      37.514 -18.990 -20.737  0.00  0.00    -0.179 NA
ATOM     10  C   UNL     1      35.038 -21.035 -18.968  0.00  0.00    +0.019 C 
ATOM     11  C   UNL     1      35.299 -19.297 -21.149  0.00  0.00    +0.137 C 
ATOM     12  C   UNL     1      35.780 -18.432 -22.106  0.00  0.00    +0.121 C 
ATOM     13  C   UNL     1      36.230 -20.485 -19.250  0.00  0.00    +0.145 C 
ATOM     14  C   UNL     1      33.952 -20.620 -19.912  0.00  0.00    +0.097 C 
ATOM     15  C   UNL     1      37.139 -18.282 -21.802  0.00  0.00    +0.103 C 
BRANCH  12  17
ATOM     16  N   UNL     1      33.438 -16.731 -25.192  0.00  0.00    -0.242 NA
ATOM     17  C   UNL     1      34.987 -17.856 -23.149  0.00  0.00    -0.007 C 
ATOM     18  C   UNL     1      34.139 -18.657 -23.910  0.00  0.00    +0.017 C 
ATOM     19  C   UNL     1      35.058 -16.491 -23.413  0.00  0.00    +0.017 C 
ATOM     20  C   UNL     1      33.393 -18.052 -24.909  0.00  0.00    +0.099 C 
ATOM     21  C   UNL     1      34.271 -15.983 -24.435  0.00  0.00    +0.099 C 
ENDBRANCH  12  17
ENDBRANCH   2  10
BRANCH   1  22
ATOM     22  O   UNL     1      34.136 -24.499 -14.633  0.00  0.00    -0.478 OA
BRANCH  22  23
ATOM     23  C   UNL     1      33.552 -23.931 -13.469  0.00  0.00    +0.183 C 
BRANCH  23  24
ATOM     24  C   UNL     1      34.346 -24.383 -12.253  0.00  0.00    -0.029 C 
BRANCH  24  25
ATOM     25  N   UNL     1      35.749 -23.990 -12.379  0.00  0.00    +0.389 N 
ATOM     26  C   UNL     1      36.191 -23.270 -11.176  0.00  0.00    -0.077 C 
ATOM     27  C   UNL     1      36.591 -25.168 -12.632  0.00  0.00    -0.077 C 
ATOM     28  C   UNL     1      37.643 -22.809 -11.311  0.00  0.00    -0.023 C 
ATOM     29  C   UNL     1      38.056 -24.769 -12.815  0.00  0.00    -0.023 C 
ATOM     30  C   UNL     1      38.571 -23.981 -11.616  0.00  0.00    -0.004 C 
ATOM     31  H   UNL     1      35.842 -23.360 -13.175  0.00  0.00    -0.080 HD
ENDBRANCH  24  25
ENDBRANCH  23  24
ENDBRANCH  22  23
ENDBRANCH   1  22
TORSDOF 6
ENDMDL
MODEL 3
REMARK VINA RESULT:     -11.7      3.595     10.259
REMARK  Name = 11524144
REMARK  6 active torsions:
REMARK  status: ('A' for Active; 'I' for Inactive)
REMARK    1  A    between atoms: C_1  and  O_22
REMARK    2  A    between atoms: C_2  and  C_10
REMARK    3  A    between atoms: C_12  and  C_17
REMARK    4  A    between atoms: O_22  and  C_23
REMARK    5  A    between atoms: C_23  and  C_24
REMARK    6  A    between atoms: C_24  and  N_25
REMARK                            x       y       z     vdW  Elec       q    Type
REMARK                         _______ _______ _______ _____ _____    ______ ____
ROOT
ATOM      1  C   UNL     1      35.870 -18.780 -21.877  0.00  0.00    +0.138 C 
ATOM      2  C   UNL     1      35.910 -20.344 -19.579  0.00  0.00    -0.001 C 
ATOM      3  C   UNL     1      34.734 -19.491 -21.508  0.00  0.00    +0.037 C 
ATOM      4  C   UNL     1      37.026 -18.843 -21.107  0.00  0.00    +0.037 C 
ATOM      5  C   UNL     1      34.754 -20.276 -20.356  0.00  0.00    +0.003 C 
ATOM      6  C   UNL     1      37.046 -19.628 -19.955  0.00  0.00    +0.003 C 
ENDROOT
BRANCH   2  10
ATOM      7  N   UNL     1      35.011 -22.738 -16.826  0.00  0.00    -0.193 N 
ATOM      8  N   UNL     1      37.177 -21.845 -16.295  0.00  0.00    -0.231 NA
ATOM      9  N   UNL     1      34.085 -23.602 -16.331  0.00  0.00    -0.179 NA
ATOM     10  C   UNL     1      35.932 -21.173 -18.364  0.00  0.00    +0.019 C 
ATOM     11  C   UNL     1      36.125 -22.653 -15.994  0.00  0.00    +0.137 C 
ATOM     12  C   UNL     1      35.885 -23.501 -14.936  0.00  0.00    +0.121 C 
ATOM     13  C   UNL     1      34.933 -21.993 -18.000  0.00  0.00    +0.145 C 
ATOM     14  C   UNL     1      37.075 -21.163 -17.397  0.00  0.00    +0.097 C 
ATOM     15  C   UNL     1      34.623 -24.052 -15.197  0.00  0.00    +0.103 C 
BRANCH  12  17
ATOM     16  N   UNL     1      38.553 -24.125 -11.711  0.00  0.00    -0.242 NA
ATOM     17  C   UNL     1      36.787 -23.711 -13.845  0.00  0.00    -0.007 C 
ATOM     18  C   UNL     1      37.789 -24.675 -13.939  0.00  0.00    +0.017 C 
ATOM     19  C   UNL     1      36.671 -22.956 -12.682  0.00  0.00    +0.017 C 
ATOM     20  C   UNL     1      38.637 -24.840 -12.855  0.00  0.00    +0.099 C 
ATOM     21  C   UNL     1      37.570 -23.199 -11.655  0.00  0.00    +0.099 C 
ENDBRANCH  12  17
ENDBRANCH   2  10
BRANCH   1  22
ATOM     22  O   UNL     1      35.850 -18.008 -23.009  0.00  0.00    -0.478 OA
BRANCH  22  23
ATOM     23  C   UNL     1      34.659 -17.275 -23.265  0.00  0.00    +0.183 C 
BRANCH  23  24
ATOM     24  C   UNL     1      35.028 -15.961 -23.934  0.00  0.00    -0.029 C 
BRANCH  24  25
ATOM     25  N   UNL     1      34.724 -14.832 -23.055  0.00  0.00    +0.389 N 
ATOM     26  C   UNL     1      33.460 -14.196 -23.453  0.00  0.00    -0.077 C 
ATOM     27  C   UNL     1      34.680 -15.270 -21.654  0.00  0.00    -0.077 C 
ATOM     28  C   UNL     1      33.152 -12.983 -22.575  0.00  0.00    -0.023 C 
ATOM     29  C   UNL     1      34.411 -14.092 -20.716  0.00  0.00    -0.023 C 
ATOM     30  C   UNL     1      33.130 -13.359 -21.097  0.00  0.00    -0.004 C 
ATOM     31  H   UNL     1      35.466 -14.138 -23.145  0.00  0.00    -0.080 HD
ENDBRANCH  24  25
ENDBRANCH  23  24
ENDBRANCH  22  23
ENDBRANCH   1  22
TORSDOF 6
ENDMDL
MODEL 4
REMARK VINA RESULT:     -11.5      3.527     10.600
REMARK  Name = 11524144
REMARK  6 active torsions:
REMARK  status: ('A' for Active; 'I' for Inactive)
REMARK    1  A    between atoms: C_1  and  O_22
REMARK    2  A    between atoms: C_2  and  C_10
REMARK    3  A    between atoms: C_12  and  C_17
REMARK    4  A    between atoms: O_22  and  C_23
REMARK    5  A    between atoms: C_23  and  C_24
REMARK    6  A    between atoms: C_24  and  N_25
REMARK                            x       y       z     vdW  Elec       q    Type
REMARK                         _______ _______ _______ _____ _____    ______ ____
ROOT
ATOM      1  C   UNL     1      35.764 -18.891 -21.798  0.00  0.00    +0.138 C 
ATOM      2  C   UNL     1      35.849 -20.434 -19.487  0.00  0.00    -0.001 C 
ATOM      3  C   UNL     1      36.922 -18.916 -21.030  0.00  0.00    +0.037 C 
ATOM      4  C   UNL     1      34.648 -19.630 -21.423  0.00  0.00    +0.037 C 
ATOM      5  C   UNL     1      36.965 -19.690 -19.870  0.00  0.00    +0.003 C 
ATOM      6  C   UNL     1      34.691 -20.404 -20.263  0.00  0.00    +0.003 C 
ENDROOT
BRANCH   2  10
ATOM      7  N   UNL     1      35.006 -22.804 -16.696  0.00  0.00    -0.193 N 
ATOM      8  N   UNL     1      37.173 -21.889 -16.206  0.00  0.00    -0.231 NA
ATOM      9  N   UNL     1      34.095 -23.668 -16.179  0.00  0.00    -0.179 NA
ATOM     10  C   UNL     1      35.894 -21.249 -18.264  0.00  0.00    +0.019 C 
ATOM     11  C   UNL     1      36.131 -22.702 -15.880  0.00  0.00    +0.137 C 
ATOM     12  C   UNL     1      35.913 -23.540 -14.810  0.00  0.00    +0.121 C 
ATOM     13  C   UNL     1      34.906 -22.072 -17.877  0.00  0.00    +0.145 C 
ATOM     14  C   UNL     1      37.051 -21.221 -17.313  0.00  0.00    +0.097 C 
ATOM     15  C   UNL     1      34.652 -24.103 -15.048  0.00  0.00    +0.103 C 
BRANCH  12  17
ATOM     16  N   UNL     1      38.631 -24.109 -11.618  0.00  0.00    -0.242 NA
ATOM     17  C   UNL     1      36.832 -23.732 -13.730  0.00  0.00    -0.007 C 
ATOM     18  C   UNL     1      37.916 -24.594 -13.876  0.00  0.00    +0.017 C 
ATOM     19  C   UNL     1      36.650 -23.059 -12.525  0.00  0.00    +0.017 C 
ATOM     20  C   UNL     1      38.777 -24.746 -12.801  0.00  0.00    +0.099 C 
ATOM     21  C   UNL     1      37.568 -23.280 -11.510  0.00  0.00    +0.099 C 
ENDBRANCH  12  17
ENDBRANCH   2  10
BRANCH   1  22
ATOM     22  O   UNL     1      35.723 -18.131 -22.938  0.00  0.00    -0.478 OA
BRANCH  22  23
ATOM     23  C   UNL     1      34.435 -17.817 -23.452  0.00  0.00    +0.183 C 
BRANCH  23  24
ATOM     24  C   UNL     1      34.582 -16.731 -24.507  0.00  0.00    -0.029 C 
BRANCH  24  25
ATOM     25  N   UNL     1      33.963 -15.485 -24.054  0.00  0.00    +0.389 N 
ATOM     26  C   UNL     1      34.822 -14.813 -23.069  0.00  0.00    -0.077 C 
ATOM     27  C   UNL     1      33.679 -14.608 -25.198  0.00  0.00    -0.077 C 
ATOM     28  C   UNL     1      34.167 -13.532 -22.549  0.00  0.00    -0.023 C 
ATOM     29  C   UNL     1      32.987 -13.321 -24.747  0.00  0.00    -0.023 C 
ATOM     30  C   UNL     1      33.807 -12.589 -23.692  0.00  0.00    -0.004 C 
ATOM     31  H   UNL     1      33.078 -15.706 -23.599  0.00  0.00    -0.080 HD
ENDBRANCH  24  25
ENDBRANCH  23  24
ENDBRANCH  22  23
ENDBRANCH   1  22
TORSDOF 6
ENDMDL
MODEL 5
REMARK VINA RESULT:     -11.3      3.627     10.560
REMARK  Name = 11524144
REMARK  6 active torsions:
REMARK  status: ('A' for Active; 'I' for Inactive)
REMARK    1  A    between atoms: C_1  and  O_22
REMARK    2  A    between atoms: C_2  and  C_10
REMARK    3  A    between atoms: C_12  and  C_17
REMARK    4  A    between atoms: O_22  and  C_23
REMARK    5  A    between atoms: C_23  and  C_24
REMARK    6  A    between atoms: C_24  and  N_25
REMARK                            x       y       z     vdW  Elec       q    Type
REMARK                         _______ _______ _______ _____ _____    ______ ____
ROOT
ATOM      1  C   UNL     1      34.712 -17.150 -23.940  0.00  0.00    +0.138 C 
ATOM      2  C   UNL     1      34.693 -18.887 -21.769  0.00  0.00    -0.001 C 
ATOM      3  C   UNL     1      35.241 -16.736 -22.723  0.00  0.00    +0.037 C 
ATOM      4  C   UNL     1      34.174 -18.424 -24.083  0.00  0.00    +0.037 C 
ATOM      5  C   UNL     1      35.231 -17.607 -21.634  0.00  0.00    +0.003 C 
ATOM      6  C   UNL     1      34.165 -19.295 -22.993  0.00  0.00    +0.003 C 
ENDROOT
BRANCH   2  10
ATOM      7  N   UNL     1      33.642 -21.295 -19.083  0.00  0.00    -0.193 N 
ATOM      8  N   UNL     1      35.986 -20.871 -18.764  0.00  0.00    -0.231 NA
ATOM      9  N   UNL     1      32.624 -22.009 -18.535  0.00  0.00    -0.179 NA
ATOM     10  C   UNL     1      34.682 -19.805 -20.621  0.00  0.00    +0.019 C 
ATOM     11  C   UNL     1      34.834 -21.491 -18.389  0.00  0.00    +0.137 C 
ATOM     12  C   UNL     1      34.547 -22.366 -17.365  0.00  0.00    +0.121 C 
ATOM     13  C   UNL     1      33.586 -20.451 -20.191  0.00  0.00    +0.145 C 
ATOM     14  C   UNL     1      35.902 -20.092 -19.801  0.00  0.00    +0.097 C 
ATOM     15  C   UNL     1      33.182 -22.646 -17.505  0.00  0.00    +0.103 C 
BRANCH  12  17
ATOM     16  N   UNL     1      37.374 -23.747 -14.535  0.00  0.00    -0.242 NA
ATOM     17  C   UNL     1      35.503 -22.833 -16.407  0.00  0.00    -0.007 C 
ATOM     18  C   UNL     1      36.775 -22.269 -16.353  0.00  0.00    +0.017 C 
ATOM     19  C   UNL     1      35.169 -23.855 -15.523  0.00  0.00    +0.017 C 
ATOM     20  C   UNL     1      37.664 -22.757 -15.408  0.00  0.00    +0.099 C 
ATOM     21  C   UNL     1      36.131 -24.271 -14.615  0.00  0.00    +0.099 C 
ENDBRANCH  12  17
ENDBRANCH   2  10
BRANCH   1  22
ATOM     22  O   UNL     1      34.722 -16.294 -25.011  0.00  0.00    -0.478 OA
BRANCH  22  23
ATOM     23  C   UNL     1      33.505 -15.623 -25.306  0.00  0.00    +0.183 C 
BRANCH  23  24
ATOM     24  C   UNL     1      33.823 -14.195 -25.724  0.00  0.00    -0.029 C 
BRANCH  24  25
ATOM     25  N   UNL     1      33.934 -13.328 -24.552  0.00  0.00    +0.389 N 
ATOM     26  C   UNL     1      33.736 -11.922 -24.933  0.00  0.00    -0.077 C 
ATOM     27  C   UNL     1      32.975 -13.738 -23.517  0.00  0.00    -0.077 C 
ATOM     28  C   UNL     1      33.896 -10.995 -23.727  0.00  0.00    -0.023 C 
ATOM     29  C   UNL     1      33.111 -12.871 -22.265  0.00  0.00    -0.023 C 
ATOM     30  C   UNL     1      32.955 -11.391 -22.594  0.00  0.00    -0.004 C 
ATOM     31  H   UNL     1      34.873 -13.419 -24.166  0.00  0.00    -0.080 HD
ENDBRANCH  24  25
ENDBRANCH  23  24
ENDBRANCH  22  23
ENDBRANCH   1  22
TORSDOF 6
ENDMDL
MODEL 6
REMARK VINA RESULT:     -11.3      3.116     10.479
REMARK  Name = 11524144
REMARK  6 active torsions:
REMARK  status: ('A' for Active; 'I' for Inactive)
REMARK    1  A    between atoms: C_1  and  O_22
REMARK    2  A    between atoms: C_2  and  C_10
REMARK    3  A    between atoms: C_12  and  C_17
REMARK    4  A    between atoms: O_22  and  C_23
REMARK    5  A    between atoms: C_23  and  C_24
REMARK    6  A    between atoms: C_24  and  N_25
REMARK                            x       y       z     vdW  Elec       q    Type
REMARK                         _______ _______ _______ _____ _____    ______ ____
ROOT
ATOM      1  C   UNL     1      34.136 -19.833 -21.083  0.00  0.00    +0.138 C 
ATOM      2  C   UNL     1      34.328 -21.337 -18.752  0.00  0.00    -0.001 C 
ATOM      3  C   UNL     1      32.981 -20.196 -20.401  0.00  0.00    +0.037 C 
ATOM      4  C   UNL     1      35.387 -20.214 -20.611  0.00  0.00    +0.037 C 
ATOM      5  C   UNL     1      33.077 -20.950 -19.232  0.00  0.00    +0.003 C 
ATOM      6  C   UNL     1      35.483 -20.969 -19.441  0.00  0.00    +0.003 C 
ENDROOT
BRANCH   2  10
ATOM      7  N   UNL     1      33.540 -23.407 -15.718  0.00  0.00    -0.193 N 
ATOM      8  N   UNL     1      35.918 -23.071 -15.735  0.00  0.00    -0.231 NA
ATOM      9  N   UNL     1      32.574 -24.011 -14.976  0.00  0.00    -0.179 NA
ATOM     10  C   UNL     1      34.429 -22.133 -17.520  0.00  0.00    +0.019 C 
ATOM     11  C   UNL     1      34.802 -23.592 -15.157  0.00  0.00    +0.137 C 
ATOM     12  C   UNL     1      34.616 -24.344 -14.019  0.00  0.00    +0.121 C 
ATOM     13  C   UNL     1      33.375 -22.677 -16.893  0.00  0.00    +0.145 C 
ATOM     14  C   UNL     1      35.732 -22.396 -16.830  0.00  0.00    +0.097 C 
ATOM     15  C   UNL     1      33.234 -24.569 -13.961  0.00  0.00    +0.103 C 
BRANCH  12  17
ATOM     16  N   UNL     1      37.725 -25.569 -11.424  0.00  0.00    -0.242 NA
ATOM     17  C   UNL     1      35.667 -24.759 -13.142  0.00  0.00    -0.007 C 
ATOM     18  C   UNL     1      35.795 -24.186 -11.878  0.00  0.00    +0.017 C 
ATOM     19  C   UNL     1      36.572 -25.738 -13.543  0.00  0.00    +0.017 C 
ATOM     20  C   UNL     1      36.830 -24.621 -11.067  0.00  0.00    +0.099 C 
ATOM     21  C   UNL     1      37.572 -26.104 -12.656  0.00  0.00    +0.099 C 
ENDBRANCH  12  17
ENDBRANCH   2  10
BRANCH   1  22
ATOM     22  O   UNL     1      34.042 -19.091 -22.231  0.00  0.00    -0.478 OA
BRANCH  22  23
ATOM     23  C   UNL     1      35.259 -18.787 -22.900  0.00  0.00    +0.183 C 
BRANCH  23  24
ATOM     24  C   UNL     1      35.824 -17.498 -22.325  0.00  0.00    -0.029 C 
BRANCH  24  25
ATOM     25  N   UNL     1      35.412 -16.350 -23.132  0.00  0.00    +0.389 N 
ATOM     26  C   UNL     1      34.531 -16.779 -24.226  0.00  0.00    -0.077 C 
ATOM     27  C   UNL     1      34.759 -15.338 -22.289  0.00  0.00    -0.077 C 
ATOM     28  C   UNL     1      34.130 -15.597 -25.109  0.00  0.00    -0.023 C 
ATOM     29  C   UNL     1      34.366 -14.108 -23.109  0.00  0.00    -0.023 C 
ATOM     30  C   UNL     1      33.479 -14.488 -24.289  0.00  0.00    -0.004 C 
ATOM     31  H   UNL     1      36.243 -15.926 -23.545  0.00  0.00    -0.080 HD
ENDBRANCH  24  25
ENDBRANCH  23  24
ENDBRANCH  22  23
ENDBRANCH   1  22
TORSDOF 6
ENDMDL
MODEL 7
REMARK VINA RESULT:     -11.3      3.396      6.221
REMARK  Name = 11524144
REMARK  6 active torsions:
REMARK  status: ('A' for Active; 'I' for Inactive)
REMARK    1  A    between atoms: C_1  and  O_22
REMARK    2  A    between atoms: C_2  and  C_10
REMARK    3  A    between atoms: C_12  and  C_17
REMARK    4  A    between atoms: O_22  and  C_23
REMARK    5  A    between atoms: C_23  and  C_24
REMARK    6  A    between atoms: C_24  and  N_25
REMARK                            x       y       z     vdW  Elec       q    Type
REMARK                         _______ _______ _______ _____ _____    ______ ____
ROOT
ATOM      1  C   UNL     1      36.101 -20.428 -19.877  0.00  0.00    +0.138 C 
ATOM      2  C   UNL     1      35.340 -18.101 -21.193  0.00  0.00    -0.001 C 
ATOM      3  C   UNL     1      37.065 -19.492 -20.230  0.00  0.00    +0.037 C 
ATOM      4  C   UNL     1      34.760 -20.213 -20.174  0.00  0.00    +0.037 C 
ATOM      5  C   UNL     1      36.684 -18.324 -20.891  0.00  0.00    +0.003 C 
ATOM      6  C   UNL     1      34.379 -19.045 -20.835  0.00  0.00    +0.003 C 
ENDROOT
BRANCH   2  10
ATOM      7  N   UNL     1      34.223 -15.622 -23.786  0.00  0.00    -0.193 N 
ATOM      8  N   UNL     1      34.589 -14.392 -21.755  0.00  0.00    -0.231 NA
ATOM      9  N   UNL     1      33.841 -15.424 -25.075  0.00  0.00    -0.179 NA
ATOM     10  C   UNL     1      34.938 -16.870 -21.890  0.00  0.00    +0.019 C 
ATOM     11  C   UNL     1      34.235 -14.428 -23.069  0.00  0.00    +0.137 C 
ATOM     12  C   UNL     1      33.842 -13.443 -23.947  0.00  0.00    +0.121 C 
ATOM     13  C   UNL     1      34.577 -16.827 -23.182  0.00  0.00    +0.145 C 
ATOM     14  C   UNL     1      34.913 -15.531 -21.220  0.00  0.00    +0.097 C 
ATOM     15  C   UNL     1      33.615 -14.112 -25.157  0.00  0.00    +0.103 C 
BRANCH  12  17
ATOM     16  N   UNL     1      33.481  -9.347 -22.949  0.00  0.00    -0.242 NA
ATOM     17  C   UNL     1      33.721 -12.058 -23.609  0.00  0.00    -0.007 C 
ATOM     18  C   UNL     1      32.817 -11.650 -22.631  0.00  0.00    +0.017 C 
ATOM     19  C   UNL     1      34.505 -11.106 -24.256  0.00  0.00    +0.017 C 
ATOM     20  C   UNL     1      32.736 -10.298 -22.341  0.00  0.00    +0.099 C 
ATOM     21  C   UNL     1      34.349  -9.777 -23.892  0.00  0.00    +0.099 C 
ENDBRANCH  12  17
ENDBRANCH   2  10
BRANCH   1  22
ATOM     22  O   UNL     1      36.476 -21.576 -19.227  0.00  0.00    -0.478 OA
BRANCH  22  23
ATOM     23  C   UNL     1      35.869 -21.827 -17.967  0.00  0.00    +0.183 C 
BRANCH  23  24
ATOM     24  C   UNL     1      36.925 -21.692 -16.881  0.00  0.00    -0.029 C 
BRANCH  24  25
ATOM     25  N   UNL     1      36.411 -22.176 -15.600  0.00  0.00    +0.389 N 
ATOM     26  C   UNL     1      35.133 -22.876 -15.789  0.00  0.00    -0.077 C 
ATOM     27  C   UNL     1      37.400 -23.043 -14.944  0.00  0.00    -0.077 C 
ATOM     28  C   UNL     1      34.557 -23.347 -14.453  0.00  0.00    -0.023 C 
ATOM     29  C   UNL     1      36.898 -23.519 -13.580  0.00  0.00    -0.023 C 
ATOM     30  C   UNL     1      35.551 -24.222 -13.698  0.00  0.00    -0.004 C 
ATOM     31  H   UNL     1      36.243 -21.375 -14.991  0.00  0.00    -0.080 HD
ENDBRANCH  24  25
ENDBRANCH  23  24
ENDBRANCH  22  23
ENDBRANCH   1  22
TORSDOF 6
ENDMDL
MODEL 8
REMARK VINA RESULT:     -11.2      7.577     13.500
REMARK  Name = 11524144
REMARK  6 active torsions:
REMARK  status: ('A' for Active; 'I' for Inactive)
REMARK    1  A    between atoms: C_1  and  O_22
REMARK    2  A    between atoms: C_2  and  C_10
REMARK    3  A    between atoms: C_12  and  C_17
REMARK    4  A    between atoms: O_22  and  C_23
REMARK    5  A    between atoms: C_23  and  C_24
REMARK    6  A    between atoms: C_24  and  N_25
REMARK                            x       y       z     vdW  Elec       q    Type
REMARK                         _______ _______ _______ _____ _____    ______ ____
ROOT
ATOM      1  C   UNL     1      33.015  -9.501 -23.115  0.00  0.00    +0.138 C 
ATOM      2  C   UNL     1      33.686 -12.193 -22.947  0.00  0.00    -0.001 C 
ATOM      3  C   UNL     1      32.408 -10.302 -22.155  0.00  0.00    +0.037 C 
ATOM      4  C   UNL     1      33.954 -10.032 -23.991  0.00  0.00    +0.037 C 
ATOM      5  C   UNL     1      32.744 -11.654 -22.071  0.00  0.00    +0.003 C 
ATOM      6  C   UNL     1      34.290 -11.383 -23.907  0.00  0.00    +0.003 C 
ENDROOT
BRANCH   2  10
ATOM      7  N   UNL     1      34.294 -15.817 -23.733  0.00  0.00    -0.193 N 
ATOM      8  N   UNL     1      34.829 -15.506 -21.411  0.00  0.00    -0.231 NA
ATOM      9  N   UNL     1      34.260 -16.794 -24.677  0.00  0.00    -0.179 NA
ATOM     10  C   UNL     1      34.040 -13.618 -22.859  0.00  0.00    +0.019 C 
ATOM     11  C   UNL     1      34.721 -16.312 -22.503  0.00  0.00    +0.137 C 
ATOM     12  C   UNL     1      34.965 -17.654 -22.687  0.00  0.00    +0.121 C 
ATOM     13  C   UNL     1      33.959 -14.474 -23.890  0.00  0.00    +0.145 C 
ATOM     14  C   UNL     1      34.510 -14.259 -21.590  0.00  0.00    +0.097 C 
ATOM     15  C   UNL     1      34.666 -17.890 -24.035  0.00  0.00    +0.103 C 
BRANCH  12  17
ATOM     16  N   UNL     1      36.319 -20.280 -19.658  0.00  0.00    -0.242 NA
ATOM     17  C   UNL     1      35.424 -18.543 -21.663  0.00  0.00    -0.007 C 
ATOM     18  C   UNL     1      34.554 -19.473 -21.100  0.00  0.00    +0.017 C 
ATOM     19  C   UNL     1      36.742 -18.484 -21.221  0.00  0.00    +0.017 C 
ATOM     20  C   UNL     1      35.045 -20.310 -20.111  0.00  0.00    +0.099 C 
ATOM     21  C   UNL     1      37.136 -19.366 -20.226  0.00  0.00    +0.099 C 
ENDBRANCH  12  17
ENDBRANCH   2  10
BRANCH   1  22
ATOM     22  O   UNL     1      32.684  -8.173 -23.197  0.00  0.00    -0.478 OA
BRANCH  22  23
ATOM     23  C   UNL     1      31.410  -7.797 -22.693  0.00  0.00    +0.183 C 
BRANCH  23  24
ATOM     24  C   UNL     1      30.926  -6.571 -23.452  0.00  0.00    -0.029 C 
BRANCH  24  25
ATOM     25  N   UNL     1      31.570  -5.361 -22.944  0.00  0.00    +0.389 N 
ATOM     26  C   UNL     1      30.943  -4.163 -23.520  0.00  0.00    -0.077 C 
ATOM     27  C   UNL     1      31.522  -5.332 -21.476  0.00  0.00    -0.077 C 
ATOM     28  C   UNL     1      31.637  -2.889 -23.036  0.00  0.00    -0.023 C 
ATOM     29  C   UNL     1      32.234  -4.096 -20.924  0.00  0.00    -0.023 C 
ATOM     30  C   UNL     1      31.658  -2.814 -21.513  0.00  0.00    -0.004 C 
ATOM     31  H   UNL     1      32.550  -5.369 -23.226  0.00  0.00    -0.080 HD
ENDBRANCH  24  25
ENDBRANCH  23  24
ENDBRANCH  22  23
ENDBRANCH   1  22
TORSDOF 6
ENDMDL
MODEL 9
REMARK VINA RESULT:     -10.9      3.341      5.803
REMARK  Name = 11524144
REMARK  6 active torsions:
REMARK  status: ('A' for Active; 'I' for Inactive)
REMARK    1  A    between atoms: C_1  and  O_22
REMARK    2  A    between atoms: C_2  and  C_10
REMARK    3  A    between atoms: C_12  and  C_17
REMARK    4  A    between atoms: O_22  and  C_23
REMARK    5  A    between atoms: C_23  and  C_24
REMARK    6  A    between atoms: C_24  and  N_25
REMARK                            x       y       z     vdW  Elec       q    Type
REMARK                         _______ _______ _______ _____ _____    ______ ____
ROOT
ATOM      1  C   UNL     1      36.028 -20.407 -19.931  0.00  0.00    +0.138 C 
ATOM      2  C   UNL     1      35.299 -18.067 -21.243  0.00  0.00    -0.001 C 
ATOM      3  C   UNL     1      36.997 -19.459 -20.237  0.00  0.00    +0.037 C 
ATOM      4  C   UNL     1      34.698 -20.197 -20.275  0.00  0.00    +0.037 C 
ATOM      5  C   UNL     1      36.632 -18.285 -20.895  0.00  0.00    +0.003 C 
ATOM      6  C   UNL     1      34.332 -19.023 -20.933  0.00  0.00    +0.003 C 
ENDROOT
BRANCH   2  10
ATOM      7  N   UNL     1      34.233 -15.565 -23.835  0.00  0.00    -0.193 N 
ATOM      8  N   UNL     1      34.580 -14.350 -21.793  0.00  0.00    -0.231 NA
ATOM      9  N   UNL     1      33.868 -15.357 -25.128  0.00  0.00    -0.179 NA
ATOM     10  C   UNL     1      34.914 -16.830 -21.938  0.00  0.00    +0.019 C 
ATOM     11  C   UNL     1      34.243 -14.375 -23.111  0.00  0.00    +0.137 C 
ATOM     12  C   UNL     1      33.868 -13.383 -23.988  0.00  0.00    +0.121 C 
ATOM     13  C   UNL     1      34.570 -16.776 -23.235  0.00  0.00    +0.145 C 
ATOM     14  C   UNL     1      34.889 -15.494 -21.261  0.00  0.00    +0.097 C 
ATOM     15  C   UNL     1      33.652 -14.043 -25.205  0.00  0.00    +0.103 C 
BRANCH  12  17
ATOM     16  N   UNL     1      33.527  -9.291 -22.969  0.00  0.00    -0.242 NA
ATOM     17  C   UNL     1      33.751 -11.999 -23.643  0.00  0.00    -0.007 C 
ATOM     18  C   UNL     1      34.547 -11.048 -24.279  0.00  0.00    +0.017 C 
ATOM     19  C   UNL     1      32.844 -11.591 -22.670  0.00  0.00    +0.017 C 
ATOM     20  C   UNL     1      34.397  -9.721 -23.909  0.00  0.00    +0.099 C 
ATOM     21  C   UNL     1      32.771 -10.239 -22.372  0.00  0.00    +0.099 C 
ENDBRANCH  12  17
ENDBRANCH   2  10
BRANCH   1  22
ATOM     22  O   UNL     1      36.387 -21.561 -19.284  0.00  0.00    -0.478 OA
BRANCH  22  23
ATOM     23  C   UNL     1      35.748 -21.825 -18.042  0.00  0.00    +0.183 C 
BRANCH  23  24
ATOM     24  C   UNL     1      34.389 -22.450 -18.315  0.00  0.00    -0.029 C 
BRANCH  24  25
ATOM     25  N   UNL     1      33.876 -23.114 -17.117  0.00  0.00    +0.389 N 
ATOM     26  C   UNL     1      34.737 -22.825 -15.961  0.00  0.00    -0.077 C 
ATOM     27  C   UNL     1      32.488 -22.708 -16.860  0.00  0.00    -0.077 C 
ATOM     28  C   UNL     1      34.243 -23.551 -14.709  0.00  0.00    -0.023 C 
ATOM     29  C   UNL     1      31.920 -23.430 -15.637  0.00  0.00    -0.023 C 
ATOM     30  C   UNL     1      32.789 -23.206 -14.406  0.00  0.00    -0.004 C 
ATOM     31  H   UNL     1      33.886 -24.121 -17.272  0.00  0.00    -0.080 HD
ENDBRANCH  24  25
ENDBRANCH  23  24
ENDBRANCH  22  23
ENDBRANCH   1  22
TORSDOF 6
ENDMDL
