MODEL 1
REMARK VINA RESULT:     -11.8      0.000      0.000
REMARK  Name = 10125830
REMARK  4 active torsions:
REMARK  status: ('A' for Active; 'I' for Inactive)
REMARK    1  A    between atoms: C_6  and  C_19
REMARK    2  A    between atoms: C_11  and  C_14
REMARK    3  A    between atoms: C_22  and  O_25
REMARK    4  A    between atoms: C_24  and  O_27
REMARK                            x       y       z     vdW  Elec       q    Type
REMARK                         _______ _______ _______ _____ _____    ______ ____
ROOT
ATOM      1  O   UNL     1      34.515 -23.301 -16.529  0.00  0.00    -0.270 OA
ATOM      2  N   UNL     1      34.160 -21.989 -18.462  0.00  0.00    -0.280 N 
ATOM      3  C   UNL     1      36.171 -20.881 -18.576  0.00  0.00    +0.018 C 
ATOM      4  C   UNL     1      34.919 -21.054 -19.173  0.00  0.00    +0.051 C 
ATOM      5  C   UNL     1      36.184 -21.768 -17.418  0.00  0.00    +0.056 C 
ATOM      6  C   UNL     1      35.467 -19.475 -20.857  0.00  0.00    +0.001 C 
ATOM      7  C   UNL     1      34.542 -20.368 -20.311  0.00  0.00    +0.015 C 
ATOM      8  C   UNL     1      37.092 -19.999 -19.110  0.00  0.00    +0.001 C 
ATOM      9  C   UNL     1      34.866 -22.483 -17.361  0.00  0.00    +0.250 C 
ATOM     10  C   UNL     1      36.731 -19.293 -20.262  0.00  0.00    +0.000 C 
ATOM     11  C   UNL     1      37.162 -21.962 -16.530  0.00  0.00    +0.019 C 
ATOM     12  H   UNL     1      33.247 -22.265 -18.707  0.00  0.00    +0.155 HD
ENDROOT
BRANCH  11  14
ATOM     13  N   UNL     1      36.239 -22.605 -14.432  0.00  0.00    -0.312 N 
ATOM     14  C   UNL     1      37.163 -22.845 -15.388  0.00  0.00    +0.049 C 
ATOM     15  C   UNL     1      37.924 -23.909 -15.057  0.00  0.00    +0.016 C 
ATOM     16  C   UNL     1      36.398 -23.541 -13.443  0.00  0.00    +0.062 C 
ATOM     17  C   UNL     1      37.440 -24.364 -13.805  0.00  0.00    +0.017 C 
ATOM     18  H   UNL     1      35.569 -21.884 -14.443  0.00  0.00    +0.152 HD
ENDBRANCH  11  14
BRANCH   6  19
ATOM     19  C   UNL     1      35.126 -18.728 -22.048  0.00  0.00    +0.003 C 
ATOM     20  C   UNL     1      35.433 -17.371 -22.131  0.00  0.00    +0.040 C 
ATOM     21  C   UNL     1      34.491 -19.367 -23.113  0.00  0.00    +0.003 C 
ATOM     22  C   UNL     1      35.104 -16.650 -23.279  0.00  0.00    +0.172 C 
ATOM     23  C   UNL     1      34.164 -18.647 -24.262  0.00  0.00    +0.040 C 
ATOM     24  C   UNL     1      34.470 -17.289 -24.345  0.00  0.00    +0.168 C 
BRANCH  22  25
ATOM     25  O   UNL     1      35.408 -15.324 -23.348  0.00  0.00    -0.468 OA
ATOM     26  C   UNL     1      34.679 -14.446 -22.493  0.00  0.00    +0.253 C 
ENDBRANCH  22  25
BRANCH  24  27
ATOM     27  O   UNL     1      34.145 -16.596 -25.472  0.00  0.00    -0.503 OA
ATOM     28  H   UNL     1      34.680 -16.669 -26.237  0.00  0.00    +0.292 HD
ENDBRANCH  24  27
ENDBRANCH   6  19
TORSDOF 4
ENDMDL
MODEL 2
REMARK VINA RESULT:     -11.1      2.388      9.241
REMARK  Name = 10125830
REMARK  4 active torsions:
REMARK  status: ('A' for Active; 'I' for Inactive)
REMARK    1  A    between atoms: C_6  and  C_19
REMARK    2  A    between atoms: C_11  and  C_14
REMARK    3  A    between atoms: C_22  and  O_25
REMARK    4  A    between atoms: C_24  and  O_27
REMARK                            x       y       z     vdW  Elec       q    Type
REMARK                         _______ _______ _______ _____ _____    ______ ____
ROOT
ATOM      1  O   UNL     1      37.128 -18.659 -21.055  0.00  0.00    -0.270 OA
ATOM      2  N   UNL     1      37.205 -20.040 -19.140  0.00  0.00    -0.280 N 
ATOM      3  C   UNL     1      35.081 -20.919 -19.189  0.00  0.00    +0.018 C 
ATOM      4  C   UNL     1      36.300 -20.898 -18.505  0.00  0.00    +0.051 C 
ATOM      5  C   UNL     1      35.245 -20.014 -20.321  0.00  0.00    +0.056 C 
ATOM      6  C   UNL     1      35.469 -22.438 -16.904  0.00  0.00    +0.001 C 
ATOM      7  C   UNL     1      36.523 -21.644 -17.365  0.00  0.00    +0.015 C 
ATOM      8  C   UNL     1      34.034 -21.702 -18.739  0.00  0.00    +0.001 C 
ATOM      9  C   UNL     1      36.636 -19.450 -20.273  0.00  0.00    +0.250 C 
ATOM     10  C   UNL     1      34.237 -22.466 -17.585  0.00  0.00    +0.000 C 
ATOM     11  C   UNL     1      34.360 -19.700 -21.269  0.00  0.00    +0.019 C 
ATOM     12  H   UNL     1      38.124 -19.874 -18.829  0.00  0.00    +0.155 HD
ENDROOT
BRANCH  11  14
ATOM     13  N   UNL     1      34.795 -17.509 -22.092  0.00  0.00    -0.312 N 
ATOM     14  C   UNL     1      34.534 -18.802 -22.386  0.00  0.00    +0.049 C 
ATOM     15  C   UNL     1      34.492 -18.987 -23.722  0.00  0.00    +0.016 C 
ATOM     16  C   UNL     1      34.929 -16.824 -23.272  0.00  0.00    +0.062 C 
ATOM     17  C   UNL     1      34.744 -17.719 -24.302  0.00  0.00    +0.017 C 
ATOM     18  H   UNL     1      34.875 -17.125 -21.189  0.00  0.00    +0.152 HD
ENDBRANCH  11  14
BRANCH   6  19
ATOM     19  C   UNL     1      35.644 -23.241 -15.713  0.00  0.00    +0.003 C 
ATOM     20  C   UNL     1      36.906 -23.360 -15.134  0.00  0.00    +0.040 C 
ATOM     21  C   UNL     1      34.551 -23.895 -15.147  0.00  0.00    +0.003 C 
ATOM     22  C   UNL     1      37.076 -24.134 -13.985  0.00  0.00    +0.172 C 
ATOM     23  C   UNL     1      34.720 -24.668 -13.998  0.00  0.00    +0.040 C 
ATOM     24  C   UNL     1      35.982 -24.787 -13.417  0.00  0.00    +0.168 C 
BRANCH  22  25
ATOM     25  O   UNL     1      38.314 -24.243 -13.428  0.00  0.00    -0.468 OA
ATOM     26  C   UNL     1      39.207 -25.190 -14.011  0.00  0.00    +0.253 C 
ENDBRANCH  22  25
BRANCH  24  27
ATOM     27  O   UNL     1      36.135 -25.546 -12.296  0.00  0.00    -0.503 OA
ATOM     28  H   UNL     1      36.639 -25.221 -11.576  0.00  0.00    +0.292 HD
ENDBRANCH  24  27
ENDBRANCH   6  19
TORSDOF 4
ENDMDL
MODEL 3
REMARK VINA RESULT:     -10.6      2.438      9.247
REMARK  Name = 10125830
REMARK  4 active torsions:
REMARK  status: ('A' for Active; 'I' for Inactive)
REMARK    1  A    between atoms: C_6  and  C_19
REMARK    2  A    between atoms: C_11  and  C_14
REMARK    3  A    between atoms: C_22  and  O_25
REMARK    4  A    between atoms: C_24  and  O_27
REMARK                            x       y       z     vdW  Elec       q    Type
REMARK                         _______ _______ _______ _____ _____    ______ ____
ROOT
ATOM      1  O   UNL     1      37.105 -18.752 -21.028  0.00  0.00    -0.270 OA
ATOM      2  N   UNL     1      37.142 -20.095 -19.084  0.00  0.00    -0.280 N 
ATOM      3  C   UNL     1      35.011 -20.957 -19.146  0.00  0.00    +0.018 C 
ATOM      4  C   UNL     1      36.221 -20.932 -18.445  0.00  0.00    +0.051 C 
ATOM      5  C   UNL     1      35.199 -20.076 -20.293  0.00  0.00    +0.056 C 
ATOM      6  C   UNL     1      35.353 -22.432 -16.826  0.00  0.00    +0.001 C 
ATOM      7  C   UNL     1      36.420 -21.657 -17.287  0.00  0.00    +0.015 C 
ATOM      8  C   UNL     1      33.951 -21.721 -18.696  0.00  0.00    +0.001 C 
ATOM      9  C   UNL     1      36.594 -19.523 -20.237  0.00  0.00    +0.250 C 
ATOM     10  C   UNL     1      34.130 -22.464 -17.524  0.00  0.00    +0.000 C 
ATOM     11  C   UNL     1      34.331 -19.774 -21.261  0.00  0.00    +0.019 C 
ATOM     12  H   UNL     1      38.058 -19.930 -18.764  0.00  0.00    +0.155 HD
ENDROOT
BRANCH  11  14
ATOM     13  N   UNL     1      34.797 -17.604 -22.122  0.00  0.00    -0.312 N 
ATOM     14  C   UNL     1      34.529 -18.900 -22.393  0.00  0.00    +0.049 C 
ATOM     15  C   UNL     1      34.504 -19.112 -23.725  0.00  0.00    +0.016 C 
ATOM     16  C   UNL     1      34.953 -16.944 -23.313  0.00  0.00    +0.062 C 
ATOM     17  C   UNL     1      34.775 -17.858 -24.327  0.00  0.00    +0.017 C 
ATOM     18  H   UNL     1      34.866 -17.202 -21.225  0.00  0.00    +0.152 HD
ENDBRANCH  11  14
BRANCH   6  19
ATOM     19  C   UNL     1      35.504 -23.212 -15.617  0.00  0.00    +0.003 C 
ATOM     20  C   UNL     1      34.376 -23.615 -14.903  0.00  0.00    +0.040 C 
ATOM     21  C   UNL     1      36.776 -23.561 -15.167  0.00  0.00    +0.003 C 
ATOM     22  C   UNL     1      34.521 -24.367 -13.737  0.00  0.00    +0.172 C 
ATOM     23  C   UNL     1      36.922 -24.315 -14.002  0.00  0.00    +0.040 C 
ATOM     24  C   UNL     1      35.794 -24.718 -13.287  0.00  0.00    +0.168 C 
BRANCH  22  25
ATOM     25  O   UNL     1      33.412 -24.755 -13.047  0.00  0.00    -0.468 OA
ATOM     26  C   UNL     1      32.146 -24.451 -13.630  0.00  0.00    +0.253 C 
ENDBRANCH  22  25
BRANCH  24  27
ATOM     27  O   UNL     1      35.949 -25.453 -12.151  0.00  0.00    -0.503 OA
ATOM     28  H   UNL     1      35.737 -26.365 -12.151  0.00  0.00    +0.292 HD
ENDBRANCH  24  27
ENDBRANCH   6  19
TORSDOF 4
ENDMDL
MODEL 4
REMARK VINA RESULT:     -10.3      0.712      1.791
REMARK  Name = 10125830
REMARK  4 active torsions:
REMARK  status: ('A' for Active; 'I' for Inactive)
REMARK    1  A    between atoms: C_6  and  C_19
REMARK    2  A    between atoms: C_11  and  C_14
REMARK    3  A    between atoms: C_22  and  O_25
REMARK    4  A    between atoms: C_24  and  O_27
REMARK                            x       y       z     vdW  Elec       q    Type
REMARK                         _______ _______ _______ _____ _____    ______ ____
ROOT
ATOM      1  O   UNL     1      34.509 -23.286 -16.607  0.00  0.00    -0.270 OA
ATOM      2  N   UNL     1      34.169 -21.944 -18.523  0.00  0.00    -0.280 N 
ATOM      3  C   UNL     1      36.183 -20.837 -18.604  0.00  0.00    +0.018 C 
ATOM      4  C   UNL     1      34.935 -20.999 -19.213  0.00  0.00    +0.051 C 
ATOM      5  C   UNL     1      36.186 -21.742 -17.460  0.00  0.00    +0.056 C 
ATOM      6  C   UNL     1      35.498 -19.396 -20.869  0.00  0.00    +0.001 C 
ATOM      7  C   UNL     1      34.567 -20.295 -20.343  0.00  0.00    +0.015 C 
ATOM      8  C   UNL     1      37.109 -19.949 -19.118  0.00  0.00    +0.001 C 
ATOM      9  C   UNL     1      34.866 -22.456 -17.423  0.00  0.00    +0.250 C 
ATOM     10  C   UNL     1      36.757 -19.225 -20.262  0.00  0.00    +0.000 C 
ATOM     11  C   UNL     1      37.157 -21.952 -16.568  0.00  0.00    +0.019 C 
ATOM     12  H   UNL     1      33.258 -22.215 -18.778  0.00  0.00    +0.155 HD
ENDROOT
BRANCH  11  14
ATOM     13  N   UNL     1      36.215 -22.627 -14.488  0.00  0.00    -0.312 N 
ATOM     14  C   UNL     1      37.149 -22.852 -15.440  0.00  0.00    +0.049 C 
ATOM     15  C   UNL     1      37.907 -23.920 -15.118  0.00  0.00    +0.016 C 
ATOM     16  C   UNL     1      36.367 -23.578 -13.512  0.00  0.00    +0.062 C 
ATOM     17  C   UNL     1      37.413 -24.395 -13.878  0.00  0.00    +0.017 C 
ATOM     18  H   UNL     1      35.545 -21.906 -14.494  0.00  0.00    +0.152 HD
ENDBRANCH  11  14
BRANCH   6  19
ATOM     19  C   UNL     1      35.166 -18.630 -22.051  0.00  0.00    +0.003 C 
ATOM     20  C   UNL     1      34.442 -19.224 -23.084  0.00  0.00    +0.040 C 
ATOM     21  C   UNL     1      35.571 -17.300 -22.156  0.00  0.00    +0.003 C 
ATOM     22  C   UNL     1      34.122 -18.486 -24.224  0.00  0.00    +0.172 C 
ATOM     23  C   UNL     1      35.249 -16.562 -23.295  0.00  0.00    +0.040 C 
ATOM     24  C   UNL     1      34.525 -17.155 -24.329  0.00  0.00    +0.168 C 
BRANCH  22  25
ATOM     25  O   UNL     1      33.414 -19.076 -25.227  0.00  0.00    -0.468 OA
ATOM     26  C   UNL     1      31.993 -19.018 -25.139  0.00  0.00    +0.253 C 
ENDBRANCH  22  25
BRANCH  24  27
ATOM     27  O   UNL     1      34.218 -16.424 -25.437  0.00  0.00    -0.503 OA
ATOM     28  H   UNL     1      33.454 -16.631 -25.937  0.00  0.00    +0.292 HD
ENDBRANCH  24  27
ENDBRANCH   6  19
TORSDOF 4
ENDMDL
MODEL 5
REMARK VINA RESULT:     -10.3      6.461     12.122
REMARK  Name = 10125830
REMARK  4 active torsions:
REMARK  status: ('A' for Active; 'I' for Inactive)
REMARK    1  A    between atoms: C_6  and  C_19
REMARK    2  A    between atoms: C_11  and  C_14
REMARK    3  A    between atoms: C_22  and  O_25
REMARK    4  A    between atoms: C_24  and  O_27
REMARK                            x       y       z     vdW  Elec       q    Type
REMARK                         _______ _______ _______ _____ _____    ______ ____
ROOT
ATOM      1  O   UNL     1      31.444  -8.568 -20.225  0.00  0.00    -0.270 OA
ATOM      2  N   UNL     1      32.029 -10.773 -20.842  0.00  0.00    -0.280 N 
ATOM      3  C   UNL     1      32.977 -10.380 -22.900  0.00  0.00    +0.018 C 
ATOM      4  C   UNL     1      32.644 -11.356 -21.956  0.00  0.00    +0.051 C 
ATOM      5  C   UNL     1      32.537  -9.111 -22.331  0.00  0.00    +0.056 C 
ATOM      6  C   UNL     1      33.539 -13.056 -23.347  0.00  0.00    +0.001 C 
ATOM      7  C   UNL     1      32.913 -12.696 -22.151  0.00  0.00    +0.015 C 
ATOM      8  C   UNL     1      33.596 -10.728 -24.086  0.00  0.00    +0.001 C 
ATOM      9  C   UNL     1      31.923  -9.386 -20.989  0.00  0.00    +0.250 C 
ATOM     10  C   UNL     1      33.878 -12.081 -24.305  0.00  0.00    +0.000 C 
ATOM     11  C   UNL     1      32.636  -7.887 -22.854  0.00  0.00    +0.019 C 
ATOM     12  H   UNL     1      31.713 -11.274 -20.056  0.00  0.00    +0.155 HD
ENDROOT
BRANCH  11  14
ATOM     13  N   UNL     1      30.873  -6.373 -22.334  0.00  0.00    -0.312 N 
ATOM     14  C   UNL     1      32.197  -6.637 -22.280  0.00  0.00    +0.049 C 
ATOM     15  C   UNL     1      32.857  -5.630 -21.671  0.00  0.00    +0.016 C 
ATOM     16  C   UNL     1      30.657  -5.156 -21.743  0.00  0.00    +0.062 C 
ATOM     17  C   UNL     1      31.875  -4.670 -21.322  0.00  0.00    +0.017 C 
ATOM     18  H   UNL     1      30.183  -6.954 -22.731  0.00  0.00    +0.152 HD
ENDBRANCH  11  14
BRANCH   6  19
ATOM     19  C   UNL     1      33.845 -14.446 -23.606  0.00  0.00    +0.003 C 
ATOM     20  C   UNL     1      34.634 -15.164 -22.708  0.00  0.00    +0.040 C 
ATOM     21  C   UNL     1      33.350 -15.066 -24.752  0.00  0.00    +0.003 C 
ATOM     22  C   UNL     1      34.928 -16.505 -22.957  0.00  0.00    +0.172 C 
ATOM     23  C   UNL     1      33.643 -16.407 -25.001  0.00  0.00    +0.040 C 
ATOM     24  C   UNL     1      34.432 -17.126 -24.104  0.00  0.00    +0.168 C 
BRANCH  22  25
ATOM     25  O   UNL     1      35.700 -17.197 -22.074  0.00  0.00    -0.468 OA
ATOM     26  C   UNL     1      35.362 -17.089 -20.693  0.00  0.00    +0.253 C 
ENDBRANCH  22  25
BRANCH  24  27
ATOM     27  O   UNL     1      34.712 -18.435 -24.358  0.00  0.00    -0.503 OA
ATOM     28  H   UNL     1      35.596 -18.703 -24.515  0.00  0.00    +0.292 HD
ENDBRANCH  24  27
ENDBRANCH   6  19
TORSDOF 4
ENDMDL
MODEL 6
REMARK VINA RESULT:      -9.8      3.378      9.708
REMARK  Name = 10125830
REMARK  4 active torsions:
REMARK  status: ('A' for Active; 'I' for Inactive)
REMARK    1  A    between atoms: C_6  and  C_19
REMARK    2  A    between atoms: C_11  and  C_14
REMARK    3  A    between atoms: C_22  and  O_25
REMARK    4  A    between atoms: C_24  and  O_27
REMARK                            x       y       z     vdW  Elec       q    Type
REMARK                         _______ _______ _______ _____ _____    ______ ____
ROOT
ATOM      1  O   UNL     1      34.450 -13.334 -22.907  0.00  0.00    -0.270 OA
ATOM      2  N   UNL     1      34.950 -15.140 -21.468  0.00  0.00    -0.280 N 
ATOM      3  C   UNL     1      34.620 -16.906 -22.904  0.00  0.00    +0.018 C 
ATOM      4  C   UNL     1      34.976 -16.533 -21.605  0.00  0.00    +0.051 C 
ATOM      5  C   UNL     1      34.357 -15.660 -23.616  0.00  0.00    +0.056 C 
ATOM      6  C   UNL     1      35.259 -18.807 -20.993  0.00  0.00    +0.001 C 
ATOM      7  C   UNL     1      35.300 -17.458 -20.632  0.00  0.00    +0.015 C 
ATOM      8  C   UNL     1      34.578 -18.238 -23.269  0.00  0.00    +0.001 C 
ATOM      9  C   UNL     1      34.578 -14.520 -22.665  0.00  0.00    +0.250 C 
ATOM     10  C   UNL     1      34.902 -19.193 -22.299  0.00  0.00    +0.000 C 
ATOM     11  C   UNL     1      33.987 -15.492 -24.888  0.00  0.00    +0.019 C 
ATOM     12  H   UNL     1      35.167 -14.660 -20.637  0.00  0.00    +0.155 HD
ENDROOT
BRANCH  11  14
ATOM     13  N   UNL     1      32.531 -13.668 -25.362  0.00  0.00    -0.312 N 
ATOM     14  C   UNL     1      33.730 -14.253 -25.582  0.00  0.00    +0.049 C 
ATOM     15  C   UNL     1      34.466 -13.518 -26.443  0.00  0.00    +0.016 C 
ATOM     16  C   UNL     1      32.479 -12.515 -26.101  0.00  0.00    +0.062 C 
ATOM     17  C   UNL     1      33.669 -12.397 -26.784  0.00  0.00    +0.017 C 
ATOM     18  H   UNL     1      31.820 -14.012 -24.775  0.00  0.00    +0.152 HD
ENDBRANCH  11  14
BRANCH   6  19
ATOM     19  C   UNL     1      35.588 -19.821 -20.015  0.00  0.00    +0.003 C 
ATOM     20  C   UNL     1      34.689 -20.854 -19.753  0.00  0.00    +0.040 C 
ATOM     21  C   UNL     1      36.804 -19.764 -19.334  0.00  0.00    +0.003 C 
ATOM     22  C   UNL     1      35.006 -21.832 -18.811  0.00  0.00    +0.172 C 
ATOM     23  C   UNL     1      37.122 -20.742 -18.392  0.00  0.00    +0.040 C 
ATOM     24  C   UNL     1      36.223 -21.776 -18.130  0.00  0.00    +0.168 C 
BRANCH  22  25
ATOM     25  O   UNL     1      34.120 -22.837 -18.563  0.00  0.00    -0.468 OA
ATOM     26  C   UNL     1      33.068 -22.561 -17.641  0.00  0.00    +0.253 C 
ENDBRANCH  22  25
BRANCH  24  27
ATOM     27  O   UNL     1      36.544 -22.726 -17.208  0.00  0.00    -0.503 OA
ATOM     28  H   UNL     1      36.034 -22.811 -16.427  0.00  0.00    +0.292 HD
ENDBRANCH  24  27
ENDBRANCH   6  19
TORSDOF 4
ENDMDL
MODEL 7
REMARK VINA RESULT:      -9.8      6.893     12.260
REMARK  Name = 10125830
REMARK  4 active torsions:
REMARK  status: ('A' for Active; 'I' for Inactive)
REMARK    1  A    between atoms: C_6  and  C_19
REMARK    2  A    between atoms: C_11  and  C_14
REMARK    3  A    between atoms: C_22  and  O_25
REMARK    4  A    between atoms: C_24  and  O_27
REMARK                            x       y       z     vdW  Elec       q    Type
REMARK                         _______ _______ _______ _____ _____    ______ ____
ROOT
ATOM      1  O   UNL     1      33.567  -7.607 -23.625  0.00  0.00    -0.270 OA
ATOM      2  N   UNL     1      34.233  -9.874 -23.630  0.00  0.00    -0.280 N 
ATOM      3  C   UNL     1      32.701 -10.750 -22.157  0.00  0.00    +0.018 C 
ATOM      4  C   UNL     1      33.791 -11.034 -22.985  0.00  0.00    +0.051 C 
ATOM      5  C   UNL     1      32.456  -9.319 -22.299  0.00  0.00    +0.056 C 
ATOM      6  C   UNL     1      33.708 -13.322 -22.367  0.00  0.00    +0.001 C 
ATOM      7  C   UNL     1      34.313 -12.306 -23.111  0.00  0.00    +0.015 C 
ATOM      8  C   UNL     1      32.098 -11.750 -21.418  0.00  0.00    +0.001 C 
ATOM      9  C   UNL     1      33.464  -8.765 -23.264  0.00  0.00    +0.250 C 
ATOM     10  C   UNL     1      32.611 -13.047 -21.530  0.00  0.00    +0.000 C 
ATOM     11  C   UNL     1      31.518  -8.574 -21.711  0.00  0.00    +0.019 C 
ATOM     12  H   UNL     1      34.989  -9.842 -24.260  0.00  0.00    +0.155 HD
ENDROOT
BRANCH  11  14
ATOM     13  N   UNL     1      30.813  -6.741 -23.057  0.00  0.00    -0.312 N 
ATOM     14  C   UNL     1      31.285  -7.157 -21.861  0.00  0.00    +0.049 C 
ATOM     15  C   UNL     1      31.443  -6.111 -21.023  0.00  0.00    +0.016 C 
ATOM     16  C   UNL     1      30.656  -5.380 -23.001  0.00  0.00    +0.062 C 
ATOM     17  C   UNL     1      31.042  -4.962 -21.748  0.00  0.00    +0.017 C 
ATOM     18  H   UNL     1      30.616  -7.314 -23.833  0.00  0.00    +0.152 HD
ENDBRANCH  11  14
BRANCH   6  19
ATOM     19  C   UNL     1      34.214 -14.675 -22.459  0.00  0.00    +0.003 C 
ATOM     20  C   UNL     1      34.023 -15.412 -23.627  0.00  0.00    +0.040 C 
ATOM     21  C   UNL     1      34.892 -15.239 -21.380  0.00  0.00    +0.003 C 
ATOM     22  C   UNL     1      34.510 -16.716 -23.715  0.00  0.00    +0.172 C 
ATOM     23  C   UNL     1      35.381 -16.543 -21.468  0.00  0.00    +0.040 C 
ATOM     24  C   UNL     1      35.190 -17.281 -22.636  0.00  0.00    +0.168 C 
BRANCH  22  25
ATOM     25  O   UNL     1      34.317 -17.428 -24.861  0.00  0.00    -0.468 OA
ATOM     26  C   UNL     1      33.324 -18.450 -24.830  0.00  0.00    +0.253 C 
ENDBRANCH  22  25
BRANCH  24  27
ATOM     27  O   UNL     1      35.672 -18.553 -22.711  0.00  0.00    -0.503 OA
ATOM     28  H   UNL     1      35.229 -19.248 -22.265  0.00  0.00    +0.292 HD
ENDBRANCH  24  27
ENDBRANCH   6  19
TORSDOF 4
ENDMDL
MODEL 8
REMARK VINA RESULT:      -9.8      7.429     13.170
REMARK  Name = 10125830
REMARK  4 active torsions:
REMARK  status: ('A' for Active; 'I' for Inactive)
REMARK    1  A    between atoms: C_6  and  C_19
REMARK    2  A    between atoms: C_11  and  C_14
REMARK    3  A    between atoms: C_22  and  O_25
REMARK    4  A    between atoms: C_24  and  O_27
REMARK                            x       y       z     vdW  Elec       q    Type
REMARK                         _______ _______ _______ _____ _____    ______ ____
ROOT
ATOM      1  O   UNL     1      33.402  -6.071 -23.469  0.00  0.00    -0.270 OA
ATOM      2  N   UNL     1      33.905  -8.358 -23.785  0.00  0.00    -0.280 N 
ATOM      3  C   UNL     1      32.512  -9.300 -22.218  0.00  0.00    +0.018 C 
ATOM      4  C   UNL     1      33.467  -9.554 -23.205  0.00  0.00    +0.051 C 
ATOM      5  C   UNL     1      32.350  -7.851 -22.185  0.00  0.00    +0.056 C 
ATOM      6  C   UNL     1      33.305 -11.887 -22.811  0.00  0.00    +0.001 C 
ATOM      7  C   UNL     1      33.881 -10.833 -23.523  0.00  0.00    +0.015 C 
ATOM      8  C   UNL     1      31.937 -10.338 -21.508  0.00  0.00    +0.001 C 
ATOM      9  C   UNL     1      33.265  -7.253 -23.214  0.00  0.00    +0.250 C 
ATOM     10  C   UNL     1      32.342 -11.642 -21.813  0.00  0.00    +0.000 C 
ATOM     11  C   UNL     1      31.546  -7.121 -21.408  0.00  0.00    +0.019 C 
ATOM     12  H   UNL     1      34.577  -8.302 -24.502  0.00  0.00    +0.155 HD
ENDROOT
BRANCH  11  14
ATOM     13  N   UNL     1      32.441  -4.970 -20.919  0.00  0.00    -0.312 N 
ATOM     14  C   UNL     1      31.394  -5.685 -21.386  0.00  0.00    +0.049 C 
ATOM     15  C   UNL     1      30.384  -4.868 -21.750  0.00  0.00    +0.016 C 
ATOM     16  C   UNL     1      32.108  -3.641 -20.980  0.00  0.00    +0.062 C 
ATOM     17  C   UNL     1      30.833  -3.549 -21.492  0.00  0.00    +0.017 C 
ATOM     18  H   UNL     1      33.294  -5.338 -20.592  0.00  0.00    +0.152 HD
ENDBRANCH  11  14
BRANCH   6  19
ATOM     19  C   UNL     1      33.701 -13.249 -23.100  0.00  0.00    +0.003 C 
ATOM     20  C   UNL     1      34.325 -14.016 -22.117  0.00  0.00    +0.040 C 
ATOM     21  C   UNL     1      33.458 -13.792 -24.361  0.00  0.00    +0.003 C 
ATOM     22  C   UNL     1      34.707 -15.328 -22.395  0.00  0.00    +0.172 C 
ATOM     23  C   UNL     1      33.839 -15.105 -24.639  0.00  0.00    +0.040 C 
ATOM     24  C   UNL     1      34.463 -15.873 -23.657  0.00  0.00    +0.168 C 
BRANCH  22  25
ATOM     25  O   UNL     1      35.316 -16.069 -21.428  0.00  0.00    -0.468 OA
ATOM     26  C   UNL     1      34.932 -15.815 -20.079  0.00  0.00    +0.253 C 
ENDBRANCH  22  25
BRANCH  24  27
ATOM     27  O   UNL     1      34.830 -17.154 -23.941  0.00  0.00    -0.503 OA
ATOM     28  H   UNL     1      34.913 -17.430 -24.831  0.00  0.00    +0.292 HD
ENDBRANCH  24  27
ENDBRANCH   6  19
TORSDOF 4
ENDMDL
MODEL 9
REMARK VINA RESULT:      -9.5      2.041      3.033
REMARK  Name = 10125830
REMARK  4 active torsions:
REMARK  status: ('A' for Active; 'I' for Inactive)
REMARK    1  A    between atoms: C_6  and  C_19
REMARK    2  A    between atoms: C_11  and  C_14
REMARK    3  A    between atoms: C_22  and  O_25
REMARK    4  A    between atoms: C_24  and  O_27
REMARK                            x       y       z     vdW  Elec       q    Type
REMARK                         _______ _______ _______ _____ _____    ______ ____
ROOT
ATOM      1  O   UNL     1      34.267 -24.798 -14.085  0.00  0.00    -0.270 OA
ATOM      2  N   UNL     1      33.887 -23.522 -16.036  0.00  0.00    -0.280 N 
ATOM      3  C   UNL     1      35.982 -22.627 -16.349  0.00  0.00    +0.018 C 
ATOM      4  C   UNL     1      34.676 -22.692 -16.841  0.00  0.00    +0.051 C 
ATOM      5  C   UNL     1      36.001 -23.473 -15.161  0.00  0.00    +0.056 C 
ATOM      6  C   UNL     1      35.239 -21.234 -18.625  0.00  0.00    +0.001 C 
ATOM      7  C   UNL     1      34.277 -22.009 -17.973  0.00  0.00    +0.015 C 
ATOM      8  C   UNL     1      36.940 -21.862 -16.988  0.00  0.00    +0.001 C 
ATOM      9  C   UNL     1      34.628 -24.048 -14.973  0.00  0.00    +0.250 C 
ATOM     10  C   UNL     1      36.558 -21.162 -18.137  0.00  0.00    +0.000 C 
ATOM     11  C   UNL     1      37.023 -23.737 -14.344  0.00  0.00    +0.019 C 
ATOM     12  H   UNL     1      32.935 -23.711 -16.198  0.00  0.00    +0.155 HD
ENDROOT
BRANCH  11  14
ATOM     13  N   UNL     1      36.499 -24.053 -12.043  0.00  0.00    -0.312 N 
ATOM     14  C   UNL     1      37.030 -24.577 -13.170  0.00  0.00    +0.049 C 
ATOM     15  C   UNL     1      37.471 -25.833 -12.948  0.00  0.00    +0.016 C 
ATOM     16  C   UNL     1      36.595 -24.994 -11.051  0.00  0.00    +0.062 C 
ATOM     17  C   UNL     1      37.197 -26.111 -11.586  0.00  0.00    +0.017 C 
ATOM     18  H   UNL     1      36.112 -23.153 -11.951  0.00  0.00    +0.152 HD
ENDBRANCH  11  14
BRANCH   6  19
ATOM     19  C   UNL     1      34.878 -20.496 -19.816  0.00  0.00    +0.003 C 
ATOM     20  C   UNL     1      35.862 -19.833 -20.550  0.00  0.00    +0.040 C 
ATOM     21  C   UNL     1      33.547 -20.447 -20.230  0.00  0.00    +0.003 C 
ATOM     22  C   UNL     1      35.514 -19.122 -21.698  0.00  0.00    +0.172 C 
ATOM     23  C   UNL     1      33.200 -19.737 -21.379  0.00  0.00    +0.040 C 
ATOM     24  C   UNL     1      34.183 -19.074 -22.113  0.00  0.00    +0.168 C 
BRANCH  22  25
ATOM     25  O   UNL     1      36.483 -18.478 -22.407  0.00  0.00    -0.468 OA
ATOM     26  C   UNL     1      37.772 -18.380 -21.803  0.00  0.00    +0.253 C 
ENDBRANCH  22  25
BRANCH  24  27
ATOM     27  O   UNL     1      33.831 -18.383 -23.233  0.00  0.00    -0.503 OA
ATOM     28  H   UNL     1      33.012 -17.932 -23.266  0.00  0.00    +0.292 HD
ENDBRANCH  24  27
ENDBRANCH   6  19
TORSDOF 4
ENDMDL
