MODEL 1
REMARK VINA RESULT:     -12.7      0.000      0.000
REMARK  Name = 24864821
REMARK  5 active torsions:
REMARK  status: ('A' for Active; 'I' for Inactive)
REMARK    1  A    between atoms: C_5  and  C_16
REMARK    2  A    between atoms: C_7  and  C_10
REMARK    3  A    between atoms: C_16  and  O_17
REMARK    4  A    between atoms: O_17  and  C_20
REMARK    5  A    between atoms: C_25  and  O_28
REMARK                            x       y       z     vdW  Elec       q    Type
REMARK                         _______ _______ _______ _____ _____    ______ ____
ROOT
ATOM      1  N   UNL     1      36.233 -23.014 -15.157  0.00  0.00    -0.191 N 
ATOM      2  N   UNL     1      34.904 -22.776 -15.284  0.00  0.00    -0.163 NA
ATOM      3  N   UNL     1      38.404 -22.861 -15.419  0.00  0.00    -0.128 NA
ATOM      4  N   UNL     1      38.149 -23.871 -14.514  0.00  0.00    -0.127 NA
ATOM      5  C   UNL     1      37.248 -22.361 -15.793  0.00  0.00    +0.208 A 
ATOM      6  C   UNL     1      36.845 -23.955 -14.362  0.00  0.00    +0.186 A 
ATOM      7  C   UNL     1      34.159 -23.550 -14.545  0.00  0.00    +0.101 C 
ATOM      8  C   UNL     1      36.013 -24.789 -13.590  0.00  0.00    +0.042 C 
ATOM      9  C   UNL     1      34.685 -24.629 -13.648  0.00  0.00    +0.024 C 
ENDROOT
BRANCH   7  10
ATOM     10  C   UNL     1      32.682 -23.385 -14.592  0.00  0.00    +0.019 C 
ATOM     11  C   UNL     1      32.049 -23.112 -15.804  0.00  0.00    +0.002 C 
ATOM     12  C   UNL     1      31.930 -23.506 -13.424  0.00  0.00    +0.002 C 
ATOM     13  C   UNL     1      30.664 -22.959 -15.848  0.00  0.00    +0.000 C 
ATOM     14  C   UNL     1      30.545 -23.353 -13.467  0.00  0.00    +0.000 C 
ATOM     15  C   UNL     1      29.910 -23.079 -14.679  0.00  0.00    +0.000 C 
ENDBRANCH   7  10
BRANCH   5  16
ATOM     16  C   UNL     1      37.021 -21.241 -16.766  0.00  0.00    +0.272 C 
BRANCH  16  17
ATOM     17  O   UNL     1      36.816 -21.789 -18.067  0.00  0.00    -0.467 OA
BRANCH  17  20
ATOM     18  N   UNL     1      33.338 -20.684 -20.034  0.00  0.00    -0.248 NA
ATOM     19  C   UNL     1      35.706 -20.399 -19.697  0.00  0.00    +0.030 C 
ATOM     20  C   UNL     1      35.685 -21.409 -18.726  0.00  0.00    +0.138 C 
ATOM     21  C   UNL     1      34.493 -20.063 -20.334  0.00  0.00    +0.066 C 
ATOM     22  C   UNL     1      36.894 -19.729 -20.036  0.00  0.00    +0.059 C 
ATOM     23  C   UNL     1      34.516 -19.059 -21.298  0.00  0.00    +0.109 C 
ATOM     24  C   UNL     1      34.495 -22.051 -18.414  0.00  0.00    +0.057 C 
ATOM     25  C   UNL     1      35.697 -18.394 -21.636  0.00  0.00    +0.118 C 
ATOM     26  C   UNL     1      36.888 -18.729 -21.003  0.00  0.00    +0.011 C 
ATOM     27  C   UNL     1      33.359 -21.654 -19.091  0.00  0.00    +0.102 C 
BRANCH  25  28
ATOM     28  O   UNL     1      35.680 -17.418 -22.585  0.00  0.00    -0.476 OA
ATOM     29  C   UNL     1      35.257 -16.118 -22.172  0.00  0.00    +0.252 C 
ENDBRANCH  25  28
ENDBRANCH  17  20
ENDBRANCH  16  17
ENDBRANCH   5  16
TORSDOF 5
ENDMDL
MODEL 2
REMARK VINA RESULT:     -12.2      4.324     10.468
REMARK  Name = 24864821
REMARK  5 active torsions:
REMARK  status: ('A' for Active; 'I' for Inactive)
REMARK    1  A    between atoms: C_5  and  C_16
REMARK    2  A    between atoms: C_7  and  C_10
REMARK    3  A    between atoms: C_16  and  O_17
REMARK    4  A    between atoms: O_17  and  C_20
REMARK    5  A    between atoms: C_25  and  O_28
REMARK                            x       y       z     vdW  Elec       q    Type
REMARK                         _______ _______ _______ _____ _____    ______ ____
ROOT
ATOM      1  N   UNL     1      34.034 -14.871 -23.760  0.00  0.00    -0.191 N 
ATOM      2  N   UNL     1      33.721 -14.067 -22.714  0.00  0.00    -0.163 NA
ATOM      3  N   UNL     1      34.843 -16.542 -24.925  0.00  0.00    -0.128 NA
ATOM      4  N   UNL     1      34.189 -15.690 -25.791  0.00  0.00    -0.127 NA
ATOM      5  C   UNL     1      34.741 -16.037 -23.716  0.00  0.00    +0.208 A 
ATOM      6  C   UNL     1      33.706 -14.691 -25.084  0.00  0.00    +0.186 A 
ATOM      7  C   UNL     1      33.025 -13.016 -23.048  0.00  0.00    +0.101 C 
ATOM      8  C   UNL     1      32.970 -13.538 -25.417  0.00  0.00    +0.042 C 
ATOM      9  C   UNL     1      32.613 -12.683 -24.450  0.00  0.00    +0.024 C 
ENDROOT
BRANCH   7  10
ATOM     10  C   UNL     1      32.615 -12.058 -21.989  0.00  0.00    +0.019 C 
ATOM     11  C   UNL     1      32.531 -10.696 -22.274  0.00  0.00    +0.002 C 
ATOM     12  C   UNL     1      32.312 -12.522 -20.708  0.00  0.00    +0.002 C 
ATOM     13  C   UNL     1      32.144  -9.798 -21.280  0.00  0.00    +0.000 C 
ATOM     14  C   UNL     1      31.926 -11.624 -19.714  0.00  0.00    +0.000 C 
ATOM     15  C   UNL     1      31.842 -10.261 -19.999  0.00  0.00    +0.000 C 
ENDBRANCH   7  10
BRANCH   5  16
ATOM     16  C   UNL     1      35.295 -16.613 -22.446  0.00  0.00    +0.272 C 
BRANCH  16  17
ATOM     17  O   UNL     1      34.738 -17.910 -22.242  0.00  0.00    -0.467 OA
BRANCH  17  20
ATOM     18  N   UNL     1      36.706 -20.329 -19.509  0.00  0.00    -0.248 NA
ATOM     19  C   UNL     1      34.650 -19.638 -20.559  0.00  0.00    +0.030 C 
ATOM     20  C   UNL     1      35.364 -18.716 -21.337  0.00  0.00    +0.138 C 
ATOM     21  C   UNL     1      35.371 -20.435 -19.645  0.00  0.00    +0.066 C 
ATOM     22  C   UNL     1      33.256 -19.776 -20.675  0.00  0.00    +0.059 C 
ATOM     23  C   UNL     1      34.661 -21.351 -18.873  0.00  0.00    +0.109 C 
ATOM     24  C   UNL     1      36.740 -18.604 -21.199  0.00  0.00    +0.057 C 
ATOM     25  C   UNL     1      33.276 -21.487 -18.988  0.00  0.00    +0.118 C 
ATOM     26  C   UNL     1      32.572 -20.699 -19.890  0.00  0.00    +0.011 C 
ATOM     27  C   UNL     1      37.358 -19.428 -20.279  0.00  0.00    +0.102 C 
BRANCH  25  28
ATOM     28  O   UNL     1      32.616 -22.395 -18.217  0.00  0.00    -0.476 OA
ATOM     29  C   UNL     1      33.390 -23.117 -17.259  0.00  0.00    +0.252 C 
ENDBRANCH  25  28
ENDBRANCH  17  20
ENDBRANCH  16  17
ENDBRANCH   5  16
TORSDOF 5
ENDMDL
MODEL 3
REMARK VINA RESULT:     -12.2      5.888     10.266
REMARK  Name = 24864821
REMARK  5 active torsions:
REMARK  status: ('A' for Active; 'I' for Inactive)
REMARK    1  A    between atoms: C_5  and  C_16
REMARK    2  A    between atoms: C_7  and  C_10
REMARK    3  A    between atoms: C_16  and  O_17
REMARK    4  A    between atoms: O_17  and  C_20
REMARK    5  A    between atoms: C_25  and  O_28
REMARK                            x       y       z     vdW  Elec       q    Type
REMARK                         _______ _______ _______ _____ _____    ______ ____
ROOT
ATOM      1  N   UNL     1      34.404 -16.589 -23.522  0.00  0.00    -0.191 N 
ATOM      2  N   UNL     1      34.899 -17.181 -22.406  0.00  0.00    -0.163 NA
ATOM      3  N   UNL     1      33.789 -15.052 -24.957  0.00  0.00    -0.128 NA
ATOM      4  N   UNL     1      33.515 -16.288 -25.506  0.00  0.00    -0.127 NA
ATOM      5  C   UNL     1      34.319 -15.251 -23.772  0.00  0.00    +0.208 A 
ATOM      6  C   UNL     1      33.887 -17.203 -24.639  0.00  0.00    +0.186 A 
ATOM      7  C   UNL     1      34.864 -18.484 -22.444  0.00  0.00    +0.101 C 
ATOM      8  C   UNL     1      33.847 -18.612 -24.642  0.00  0.00    +0.042 C 
ATOM      9  C   UNL     1      34.314 -19.286 -23.584  0.00  0.00    +0.024 C 
ENDROOT
BRANCH   7  10
ATOM     10  C   UNL     1      35.383 -19.251 -21.280  0.00  0.00    +0.019 C 
ATOM     11  C   UNL     1      34.567 -20.182 -20.639  0.00  0.00    +0.002 C 
ATOM     12  C   UNL     1      36.687 -19.040 -20.832  0.00  0.00    +0.002 C 
ATOM     13  C   UNL     1      35.055 -20.902 -19.549  0.00  0.00    +0.000 C 
ATOM     14  C   UNL     1      37.175 -19.760 -19.742  0.00  0.00    +0.000 C 
ATOM     15  C   UNL     1      36.359 -20.691 -19.099  0.00  0.00    +0.000 C 
ENDBRANCH   7  10
BRANCH   5  16
ATOM     16  C   UNL     1      34.780 -14.204 -22.801  0.00  0.00    +0.272 C 
BRANCH  16  17
ATOM     17  O   UNL     1      34.125 -12.972 -23.099  0.00  0.00    -0.467 OA
BRANCH  17  20
ATOM     18  N   UNL     1      31.435 -11.614 -20.252  0.00  0.00    -0.248 NA
ATOM     19  C   UNL     1      32.779 -11.181 -22.203  0.00  0.00    +0.030 C 
ATOM     20  C   UNL     1      33.240 -12.504 -22.173  0.00  0.00    +0.138 C 
ATOM     21  C   UNL     1      31.864 -10.772 -21.210  0.00  0.00    +0.066 C 
ATOM     22  C   UNL     1      33.206 -10.275 -23.190  0.00  0.00    +0.059 C 
ATOM     23  C   UNL     1      31.407  -9.458 -21.241  0.00  0.00    +0.109 C 
ATOM     24  C   UNL     1      32.799 -13.373 -21.186  0.00  0.00    +0.057 C 
ATOM     25  C   UNL     1      31.831  -8.558 -22.222  0.00  0.00    +0.118 C 
ATOM     26  C   UNL     1      32.732  -8.967 -23.197  0.00  0.00    +0.011 C 
ATOM     27  C   UNL     1      31.903 -12.883 -20.257  0.00  0.00    +0.102 C 
BRANCH  25  28
ATOM     28  O   UNL     1      31.360  -7.281 -22.221  0.00  0.00    -0.476 OA
ATOM     29  C   UNL     1      31.502  -6.537 -21.011  0.00  0.00    +0.252 C 
ENDBRANCH  25  28
ENDBRANCH  17  20
ENDBRANCH  16  17
ENDBRANCH   5  16
TORSDOF 5
ENDMDL
MODEL 4
REMARK VINA RESULT:     -11.7      6.469     12.540
REMARK  Name = 24864821
REMARK  5 active torsions:
REMARK  status: ('A' for Active; 'I' for Inactive)
REMARK    1  A    between atoms: C_5  and  C_16
REMARK    2  A    between atoms: C_7  and  C_10
REMARK    3  A    between atoms: C_16  and  O_17
REMARK    4  A    between atoms: O_17  and  C_20
REMARK    5  A    between atoms: C_25  and  O_28
REMARK                            x       y       z     vdW  Elec       q    Type
REMARK                         _______ _______ _______ _____ _____    ______ ____
ROOT
ATOM      1  N   UNL     1      32.629 -11.530 -21.769  0.00  0.00    -0.191 N 
ATOM      2  N   UNL     1      32.819 -10.391 -22.480  0.00  0.00    -0.163 NA
ATOM      3  N   UNL     1      32.744 -13.623 -21.131  0.00  0.00    -0.128 NA
ATOM      4  N   UNL     1      31.953 -12.942 -20.230  0.00  0.00    -0.127 NA
ATOM      5  C   UNL     1      33.139 -12.765 -22.044  0.00  0.00    +0.208 A 
ATOM      6  C   UNL     1      31.890 -11.687 -20.620  0.00  0.00    +0.186 A 
ATOM      7  C   UNL     1      32.215  -9.350 -21.978  0.00  0.00    +0.101 C 
ATOM      8  C   UNL     1      31.234 -10.549 -20.110  0.00  0.00    +0.042 C 
ATOM      9  C   UNL     1      31.364  -9.377 -20.745  0.00  0.00    +0.024 C 
ENDROOT
BRANCH   7  10
ATOM     10  C   UNL     1      32.351  -8.039 -22.665  0.00  0.00    +0.019 C 
ATOM     11  C   UNL     1      31.238  -7.445 -23.260  0.00  0.00    +0.002 C 
ATOM     12  C   UNL     1      33.590  -7.402 -22.714  0.00  0.00    +0.002 C 
ATOM     13  C   UNL     1      31.365  -6.215 -23.903  0.00  0.00    +0.000 C 
ATOM     14  C   UNL     1      33.717  -6.171 -23.357  0.00  0.00    +0.000 C 
ATOM     15  C   UNL     1      32.605  -5.577 -23.953  0.00  0.00    +0.000 C 
ENDBRANCH   7  10
BRANCH   5  16
ATOM     16  C   UNL     1      34.018 -13.044 -23.227  0.00  0.00    +0.272 C 
BRANCH  16  17
ATOM     17  O   UNL     1      34.916 -14.103 -22.900  0.00  0.00    -0.467 OA
BRANCH  17  20
ATOM     18  N   UNL     1      34.072 -17.795 -24.589  0.00  0.00    -0.248 NA
ATOM     19  C   UNL     1      34.877 -16.510 -22.717  0.00  0.00    +0.030 C 
ATOM     20  C   UNL     1      34.646 -15.328 -23.435  0.00  0.00    +0.138 C 
ATOM     21  C   UNL     1      34.572 -17.737 -23.340  0.00  0.00    +0.066 C 
ATOM     22  C   UNL     1      35.397 -16.487 -21.411  0.00  0.00    +0.059 C 
ATOM     23  C   UNL     1      34.802 -18.910 -22.626  0.00  0.00    +0.109 C 
ATOM     24  C   UNL     1      34.131 -15.385 -24.722  0.00  0.00    +0.057 C 
ATOM     25  C   UNL     1      35.319 -18.888 -21.329  0.00  0.00    +0.118 C 
ATOM     26  C   UNL     1      35.618 -17.674 -20.720  0.00  0.00    +0.011 C 
ATOM     27  C   UNL     1      33.863 -16.633 -25.249  0.00  0.00    +0.102 C 
BRANCH  25  28
ATOM     28  O   UNL     1      35.529 -20.055 -20.661  0.00  0.00    -0.476 OA
ATOM     29  C   UNL     1      34.431 -20.584 -19.918  0.00  0.00    +0.252 C 
ENDBRANCH  25  28
ENDBRANCH  17  20
ENDBRANCH  16  17
ENDBRANCH   5  16
TORSDOF 5
ENDMDL
MODEL 5
REMARK VINA RESULT:     -11.5      1.847      4.335
REMARK  Name = 24864821
REMARK  5 active torsions:
REMARK  status: ('A' for Active; 'I' for Inactive)
REMARK    1  A    between atoms: C_5  and  C_16
REMARK    2  A    between atoms: C_7  and  C_10
REMARK    3  A    between atoms: C_16  and  O_17
REMARK    4  A    between atoms: O_17  and  C_20
REMARK    5  A    between atoms: C_25  and  O_28
REMARK                            x       y       z     vdW  Elec       q    Type
REMARK                         _______ _______ _______ _____ _____    ______ ____
ROOT
ATOM      1  N   UNL     1      33.531 -23.289 -16.359  0.00  0.00    -0.191 N 
ATOM      2  N   UNL     1      34.725 -23.801 -15.969  0.00  0.00    -0.163 NA
ATOM      3  N   UNL     1      31.957 -22.406 -17.603  0.00  0.00    -0.128 NA
ATOM      4  N   UNL     1      31.444 -22.608 -16.338  0.00  0.00    -0.127 NA
ATOM      5  C   UNL     1      33.204 -22.818 -17.597  0.00  0.00    +0.208 A 
ATOM      6  C   UNL     1      32.395 -23.138 -15.599  0.00  0.00    +0.186 A 
ATOM      7  C   UNL     1      34.750 -24.185 -14.723  0.00  0.00    +0.101 C 
ATOM      8  C   UNL     1      32.458 -23.545 -14.252  0.00  0.00    +0.042 C 
ATOM      9  C   UNL     1      33.597 -24.064 -13.775  0.00  0.00    +0.024 C 
ENDROOT
BRANCH   7  10
ATOM     10  C   UNL     1      36.004 -24.768 -14.176  0.00  0.00    +0.019 C 
ATOM     11  C   UNL     1      36.763 -24.049 -13.253  0.00  0.00    +0.002 C 
ATOM     12  C   UNL     1      36.419 -26.035 -14.585  0.00  0.00    +0.002 C 
ATOM     13  C   UNL     1      37.937 -24.598 -12.739  0.00  0.00    +0.000 C 
ATOM     14  C   UNL     1      37.593 -26.583 -14.071  0.00  0.00    +0.000 C 
ATOM     15  C   UNL     1      38.354 -25.865 -13.148  0.00  0.00    +0.000 C 
ENDBRANCH   7  10
BRANCH   5  16
ATOM     16  C   UNL     1      34.168 -22.799 -18.748  0.00  0.00    +0.272 C 
BRANCH  16  17
ATOM     17  O   UNL     1      33.980 -21.596 -19.491  0.00  0.00    -0.467 OA
BRANCH  17  20
ATOM     18  N   UNL     1      37.346 -19.226 -19.988  0.00  0.00    -0.248 NA
ATOM     19  C   UNL     1      35.121 -19.834 -20.682  0.00  0.00    +0.030 C 
ATOM     20  C   UNL     1      35.077 -20.806 -19.673  0.00  0.00    +0.138 C 
ATOM     21  C   UNL     1      36.291 -19.056 -20.805  0.00  0.00    +0.066 C 
ATOM     22  C   UNL     1      34.037 -19.628 -21.554  0.00  0.00    +0.059 C 
ATOM     23  C   UNL     1      36.334 -18.091 -21.808  0.00  0.00    +0.109 C 
ATOM     24  C   UNL     1      36.163 -20.984 -18.828  0.00  0.00    +0.057 C 
ATOM     25  C   UNL     1      35.257 -17.887 -22.674  0.00  0.00    +0.118 C 
ATOM     26  C   UNL     1      34.107 -18.657 -22.547  0.00  0.00    +0.011 C 
ATOM     27  C   UNL     1      37.264 -20.175 -19.026  0.00  0.00    +0.102 C 
BRANCH  25  28
ATOM     28  O   UNL     1      35.335 -16.933 -23.642  0.00  0.00    -0.476 OA
ATOM     29  C   UNL     1      35.009 -15.595 -23.262  0.00  0.00    +0.252 C 
ENDBRANCH  25  28
ENDBRANCH  17  20
ENDBRANCH  16  17
ENDBRANCH   5  16
TORSDOF 5
ENDMDL
MODEL 6
REMARK VINA RESULT:     -11.5      6.024     10.784
REMARK  Name = 24864821
REMARK  5 active torsions:
REMARK  status: ('A' for Active; 'I' for Inactive)
REMARK    1  A    between atoms: C_5  and  C_16
REMARK    2  A    between atoms: C_7  and  C_10
REMARK    3  A    between atoms: C_16  and  O_17
REMARK    4  A    between atoms: O_17  and  C_20
REMARK    5  A    between atoms: C_25  and  O_28
REMARK                            x       y       z     vdW  Elec       q    Type
REMARK                         _______ _______ _______ _____ _____    ______ ____
ROOT
ATOM      1  N   UNL     1      34.221 -16.416 -23.591  0.00  0.00    -0.191 N 
ATOM      2  N   UNL     1      34.735 -17.007 -22.484  0.00  0.00    -0.163 NA
ATOM      3  N   UNL     1      33.526 -14.882 -24.993  0.00  0.00    -0.128 NA
ATOM      4  N   UNL     1      33.353 -16.116 -25.585  0.00  0.00    -0.127 NA
ATOM      5  C   UNL     1      34.045 -15.080 -23.803  0.00  0.00    +0.208 A 
ATOM      6  C   UNL     1      33.774 -17.030 -24.738  0.00  0.00    +0.186 A 
ATOM      7  C   UNL     1      34.796 -18.307 -22.561  0.00  0.00    +0.101 C 
ATOM      8  C   UNL     1      33.835 -18.437 -24.785  0.00  0.00    +0.042 C 
ATOM      9  C   UNL     1      34.329 -19.109 -23.737  0.00  0.00    +0.024 C 
ENDROOT
BRANCH   7  10
ATOM     10  C   UNL     1      35.345 -19.071 -21.410  0.00  0.00    +0.019 C 
ATOM     11  C   UNL     1      36.646 -18.830 -20.970  0.00  0.00    +0.002 C 
ATOM     12  C   UNL     1      34.558 -20.027 -20.770  0.00  0.00    +0.002 C 
ATOM     13  C   UNL     1      37.159 -19.545 -19.889  0.00  0.00    +0.000 C 
ATOM     14  C   UNL     1      35.071 -20.743 -19.689  0.00  0.00    +0.000 C 
ATOM     15  C   UNL     1      36.373 -20.503 -19.248  0.00  0.00    +0.000 C 
ENDBRANCH   7  10
BRANCH   5  16
ATOM     16  C   UNL     1      34.409 -14.034 -22.790  0.00  0.00    +0.272 C 
BRANCH  16  17
ATOM     17  O   UNL     1      33.342 -13.093 -22.689  0.00  0.00    -0.467 OA
BRANCH  17  20
ATOM     18  N   UNL     1      34.195  -9.231 -23.934  0.00  0.00    -0.248 NA
ATOM     19  C   UNL     1      33.016 -10.714 -22.446  0.00  0.00    +0.030 C 
ATOM     20  C   UNL     1      33.608 -11.814 -23.081  0.00  0.00    +0.138 C 
ATOM     21  C   UNL     1      33.342  -9.423 -22.911  0.00  0.00    +0.066 C 
ATOM     22  C   UNL     1      32.121 -10.877 -21.375  0.00  0.00    +0.059 C 
ATOM     23  C   UNL     1      32.753  -8.331 -22.279  0.00  0.00    +0.109 C 
ATOM     24  C   UNL     1      34.488 -11.620 -24.136  0.00  0.00    +0.057 C 
ATOM     25  C   UNL     1      31.863  -8.493 -21.214  0.00  0.00    +0.118 C 
ATOM     26  C   UNL     1      31.546  -9.768 -20.761  0.00  0.00    +0.011 C 
ATOM     27  C   UNL     1      34.745 -10.318 -24.521  0.00  0.00    +0.102 C 
BRANCH  25  28
ATOM     28  O   UNL     1      31.308  -7.401 -20.620  0.00  0.00    -0.476 OA
ATOM     29  C   UNL     1      31.313  -6.184 -21.366  0.00  0.00    +0.252 C 
ENDBRANCH  25  28
ENDBRANCH  17  20
ENDBRANCH  16  17
ENDBRANCH   5  16
TORSDOF 5
ENDMDL
MODEL 7
REMARK VINA RESULT:     -11.2      3.734      9.878
REMARK  Name = 24864821
REMARK  5 active torsions:
REMARK  status: ('A' for Active; 'I' for Inactive)
REMARK    1  A    between atoms: C_5  and  C_16
REMARK    2  A    between atoms: C_7  and  C_10
REMARK    3  A    between atoms: C_16  and  O_17
REMARK    4  A    between atoms: O_17  and  C_20
REMARK    5  A    between atoms: C_25  and  O_28
REMARK                            x       y       z     vdW  Elec       q    Type
REMARK                         _______ _______ _______ _____ _____    ______ ____
ROOT
ATOM      1  N   UNL     1      34.297 -15.729 -23.270  0.00  0.00    -0.191 N 
ATOM      2  N   UNL     1      33.917 -14.792 -22.366  0.00  0.00    -0.163 NA
ATOM      3  N   UNL     1      35.145 -17.554 -24.136  0.00  0.00    -0.128 NA
ATOM      4  N   UNL     1      34.615 -16.797 -25.161  0.00  0.00    -0.127 NA
ATOM      5  C   UNL     1      34.947 -16.901 -23.014  0.00  0.00    +0.208 A 
ATOM      6  C   UNL     1      34.108 -15.705 -24.632  0.00  0.00    +0.186 A 
ATOM      7  C   UNL     1      33.301 -13.771 -22.894  0.00  0.00    +0.101 C 
ATOM      8  C   UNL     1      33.456 -14.580 -25.176  0.00  0.00    +0.042 C 
ATOM      9  C   UNL     1      33.042 -13.602 -24.360  0.00  0.00    +0.024 C 
ENDROOT
BRANCH   7  10
ATOM     10  C   UNL     1      32.830 -12.677 -22.004  0.00  0.00    +0.019 C 
ATOM     11  C   UNL     1      32.773 -11.367 -22.480  0.00  0.00    +0.002 C 
ATOM     12  C   UNL     1      32.443 -12.961 -20.695  0.00  0.00    +0.002 C 
ATOM     13  C   UNL     1      32.329 -10.342 -21.645  0.00  0.00    +0.000 C 
ATOM     14  C   UNL     1      31.999 -11.936 -19.860  0.00  0.00    +0.000 C 
ATOM     15  C   UNL     1      31.942 -10.625 -20.335  0.00  0.00    +0.000 C 
ENDBRANCH   7  10
BRANCH   5  16
ATOM     16  C   UNL     1      35.350 -17.331 -21.634  0.00  0.00    +0.272 C 
BRANCH  16  17
ATOM     17  O   UNL     1      35.567 -18.741 -21.631  0.00  0.00    -0.467 OA
BRANCH  17  20
ATOM     18  N   UNL     1      32.760 -21.033 -19.617  0.00  0.00    -0.248 NA
ATOM     19  C   UNL     1      35.048 -20.328 -19.890  0.00  0.00    +0.030 C 
ATOM     20  C   UNL     1      34.661 -19.503 -20.955  0.00  0.00    +0.138 C 
ATOM     21  C   UNL     1      34.051 -21.087 -19.240  0.00  0.00    +0.066 C 
ATOM     22  C   UNL     1      36.387 -20.409 -19.469  0.00  0.00    +0.059 C 
ATOM     23  C   UNL     1      34.436 -21.906 -18.183  0.00  0.00    +0.109 C 
ATOM     24  C   UNL     1      33.331 -19.446 -21.345  0.00  0.00    +0.057 C 
ATOM     25  C   UNL     1      35.767 -21.986 -17.765  0.00  0.00    +0.118 C 
ATOM     26  C   UNL     1      36.744 -21.236 -18.409  0.00  0.00    +0.011 C 
ATOM     27  C   UNL     1      32.427 -20.224 -20.649  0.00  0.00    +0.102 C 
BRANCH  25  28
ATOM     28  O   UNL     1      36.105 -22.797 -16.726  0.00  0.00    -0.476 OA
ATOM     29  C   UNL     1      37.062 -22.294 -15.794  0.00  0.00    +0.252 C 
ENDBRANCH  25  28
ENDBRANCH  17  20
ENDBRANCH  16  17
ENDBRANCH   5  16
TORSDOF 5
ENDMDL
MODEL 8
REMARK VINA RESULT:     -11.1      2.400      8.217
REMARK  Name = 24864821
REMARK  5 active torsions:
REMARK  status: ('A' for Active; 'I' for Inactive)
REMARK    1  A    between atoms: C_5  and  C_16
REMARK    2  A    between atoms: C_7  and  C_10
REMARK    3  A    between atoms: C_16  and  O_17
REMARK    4  A    between atoms: O_17  and  C_20
REMARK    5  A    between atoms: C_25  and  O_28
REMARK                            x       y       z     vdW  Elec       q    Type
REMARK                         _______ _______ _______ _____ _____    ______ ____
ROOT
ATOM      1  N   UNL     1      35.315 -20.741 -19.439  0.00  0.00    -0.191 N 
ATOM      2  N   UNL     1      34.708 -20.118 -20.480  0.00  0.00    -0.163 NA
ATOM      3  N   UNL     1      35.648 -22.033 -17.701  0.00  0.00    -0.128 NA
ATOM      4  N   UNL     1      36.830 -21.382 -17.986  0.00  0.00    -0.127 NA
ATOM      5  C   UNL     1      34.754 -21.639 -18.579  0.00  0.00    +0.208 A 
ATOM      6  C   UNL     1      36.621 -20.609 -19.030  0.00  0.00    +0.186 A 
ATOM      7  C   UNL     1      35.493 -19.314 -21.141  0.00  0.00    +0.101 C 
ATOM      8  C   UNL     1      37.440 -19.720 -19.753  0.00  0.00    +0.042 C 
ATOM      9  C   UNL     1      36.928 -19.059 -20.799  0.00  0.00    +0.024 C 
ENDROOT
BRANCH   7  10
ATOM     10  C   UNL     1      34.945 -18.574 -22.309  0.00  0.00    +0.019 C 
ATOM     11  C   UNL     1      34.183 -19.245 -23.265  0.00  0.00    +0.002 C 
ATOM     12  C   UNL     1      35.191 -17.208 -22.446  0.00  0.00    +0.002 C 
ATOM     13  C   UNL     1      33.668 -18.549 -24.358  0.00  0.00    +0.000 C 
ATOM     14  C   UNL     1      34.676 -16.513 -23.539  0.00  0.00    +0.000 C 
ATOM     15  C   UNL     1      33.914 -17.183 -24.497  0.00  0.00    +0.000 C 
ENDBRANCH   7  10
BRANCH   5  16
ATOM     16  C   UNL     1      33.321 -22.076 -18.669  0.00  0.00    +0.272 C 
BRANCH  16  17
ATOM     17  O   UNL     1      33.141 -23.246 -17.874  0.00  0.00    -0.467 OA
BRANCH  17  20
ATOM     18  N   UNL     1      30.903 -22.797 -14.413  0.00  0.00    -0.248 NA
ATOM     19  C   UNL     1      32.976 -23.417 -15.472  0.00  0.00    +0.030 C 
ATOM     20  C   UNL     1      32.424 -23.106 -16.723  0.00  0.00    +0.138 C 
ATOM     21  C   UNL     1      32.169 -23.246 -14.328  0.00  0.00    +0.066 C 
ATOM     22  C   UNL     1      34.294 -23.888 -15.346  0.00  0.00    +0.059 C 
ATOM     23  C   UNL     1      32.718 -23.555 -13.087  0.00  0.00    +0.109 C 
ATOM     24  C   UNL     1      31.119 -22.644 -16.813  0.00  0.00    +0.057 C 
ATOM     25  C   UNL     1      34.029 -24.023 -12.962  0.00  0.00    +0.118 C 
ATOM     26  C   UNL     1      34.818 -24.190 -14.093  0.00  0.00    +0.011 C 
ATOM     27  C   UNL     1      30.407 -22.507 -15.637  0.00  0.00    +0.102 C 
BRANCH  25  28
ATOM     28  O   UNL     1      34.532 -24.314 -11.731  0.00  0.00    -0.476 OA
ATOM     29  C   UNL     1      35.904 -24.701 -11.666  0.00  0.00    +0.252 C 
ENDBRANCH  25  28
ENDBRANCH  17  20
ENDBRANCH  16  17
ENDBRANCH   5  16
TORSDOF 5
ENDMDL
MODEL 9
REMARK VINA RESULT:     -11.1      5.407      9.979
REMARK  Name = 24864821
REMARK  5 active torsions:
REMARK  status: ('A' for Active; 'I' for Inactive)
REMARK    1  A    between atoms: C_5  and  C_16
REMARK    2  A    between atoms: C_7  and  C_10
REMARK    3  A    between atoms: C_16  and  O_17
REMARK    4  A    between atoms: O_17  and  C_20
REMARK    5  A    between atoms: C_25  and  O_28
REMARK                            x       y       z     vdW  Elec       q    Type
REMARK                         _______ _______ _______ _____ _____    ______ ____
ROOT
ATOM      1  N   UNL     1      34.528 -16.968 -23.247  0.00  0.00    -0.191 N 
ATOM      2  N   UNL     1      34.650 -17.626 -22.067  0.00  0.00    -0.163 NA
ATOM      3  N   UNL     1      34.325 -15.349 -24.710  0.00  0.00    -0.128 NA
ATOM      4  N   UNL     1      34.370 -16.546 -25.395  0.00  0.00    -0.127 NA
ATOM      5  C   UNL     1      34.421 -15.620 -23.428  0.00  0.00    +0.208 A 
ATOM      6  C   UNL     1      34.493 -17.511 -24.510  0.00  0.00    +0.186 A 
ATOM      7  C   UNL     1      34.744 -18.920 -22.194  0.00  0.00    +0.101 C 
ATOM      8  C   UNL     1      34.578 -18.913 -24.615  0.00  0.00    +0.042 C 
ATOM      9  C   UNL     1      34.702 -19.649 -23.502  0.00  0.00    +0.024 C 
ENDROOT
BRANCH   7  10
ATOM     10  C   UNL     1      34.886 -19.754 -20.972  0.00  0.00    +0.019 C 
ATOM     11  C   UNL     1      33.754 -20.287 -20.356  0.00  0.00    +0.002 C 
ATOM     12  C   UNL     1      36.152 -20.004 -20.442  0.00  0.00    +0.002 C 
ATOM     13  C   UNL     1      33.888 -21.071 -19.210  0.00  0.00    +0.000 C 
ATOM     14  C   UNL     1      36.286 -20.788 -19.296  0.00  0.00    +0.000 C 
ATOM     15  C   UNL     1      35.154 -21.322 -18.679  0.00  0.00    +0.000 C 
ENDBRANCH   7  10
BRANCH   5  16
ATOM     16  C   UNL     1      34.419 -14.637 -22.294  0.00  0.00    +0.272 C 
BRANCH  16  17
ATOM     17  O   UNL     1      33.164 -13.959 -22.269  0.00  0.00    -0.467 OA
BRANCH  17  20
ATOM     18  N   UNL     1      33.188  -9.997 -23.490  0.00  0.00    -0.248 NA
ATOM     19  C   UNL     1      32.689 -11.640 -21.800  0.00  0.00    +0.030 C 
ATOM     20  C   UNL     1      33.162 -12.649 -22.649  0.00  0.00    +0.138 C 
ATOM     21  C   UNL     1      32.721 -10.309 -22.267  0.00  0.00    +0.066 C 
ATOM     22  C   UNL     1      32.194 -11.929 -20.517  0.00  0.00    +0.059 C 
ATOM     23  C   UNL     1      32.250  -9.307 -21.423  0.00  0.00    +0.109 C 
ATOM     24  C   UNL     1      33.645 -12.331 -23.910  0.00  0.00    +0.057 C 
ATOM     25  C   UNL     1      31.758  -9.595 -20.148  0.00  0.00    +0.118 C 
ATOM     26  C   UNL     1      31.730 -10.908 -19.694  0.00  0.00    +0.011 C 
ATOM     27  C   UNL     1      33.637 -11.000 -24.279  0.00  0.00    +0.102 C 
BRANCH  25  28
ATOM     28  O   UNL     1      31.308  -8.588 -19.350  0.00  0.00    -0.476 OA
ATOM     29  C   UNL     1      31.908  -7.304 -19.524  0.00  0.00    +0.252 C 
ENDBRANCH  25  28
ENDBRANCH  17  20
ENDBRANCH  16  17
ENDBRANCH   5  16
TORSDOF 5
ENDMDL
