MODEL 1
REMARK VINA RESULT:     -11.4      0.000      0.000
REMARK  Name = 6857690
REMARK  2 active torsions:
REMARK  status: ('A' for Active; 'I' for Inactive)
REMARK    1  A    between atoms: C_4  and  C_18
REMARK    2  A    between atoms: C_21  and  O_24
REMARK                            x       y       z     vdW  Elec       q    Type
REMARK                         _______ _______ _______ _____ _____    ______ ____
ROOT
ATOM      1  O   UNL     1      37.282 -25.105 -15.006  0.00  0.00    -0.252 OA
ATOM      2  N   UNL     1      35.738 -23.529 -14.350  0.00  0.00    -0.259 N 
ATOM      3  N   UNL     1      36.584 -25.160 -12.812  0.00  0.00    -0.261 N 
ATOM      4  C   UNL     1      34.873 -23.030 -16.600  0.00  0.00    +0.064 C 
ATOM      5  C   UNL     1      35.944 -22.713 -15.541  0.00  0.00    +0.104 C 
ATOM      6  C   UNL     1      33.472 -23.020 -15.994  0.00  0.00    -0.019 C 
ATOM      7  C   UNL     1      33.298 -23.145 -14.599  0.00  0.00    -0.010 C 
ATOM      8  C   UNL     1      34.472 -23.272 -13.653  0.00  0.00    +0.121 C 
ATOM      9  C   UNL     1      32.003 -23.142 -14.057  0.00  0.00    -0.028 C 
ATOM     10  C   UNL     1      32.331 -22.971 -16.816  0.00  0.00    -0.005 C 
ATOM     11  C   UNL     1      30.885 -23.058 -14.885  0.00  0.00    -0.026 C 
ATOM     12  C   UNL     1      36.575 -24.627 -14.109  0.00  0.00    +0.308 C 
ATOM     13  C   UNL     1      31.049 -22.982 -16.264  0.00  0.00    -0.005 C 
ATOM     14  C   UNL     1      31.800 -23.235 -12.575  0.00  0.00    +0.030 C 
ATOM     15  C   UNL     1      29.502 -23.048 -14.323  0.00  0.00    +0.031 C 
ATOM     16  C   UNL     1      36.335 -24.386 -11.599  0.00  0.00    +0.117 C 
ATOM     17  C   UNL     1      37.119 -26.499 -12.600  0.00  0.00    +0.117 C 
ENDROOT
BRANCH   4  18
ATOM     18  C   UNL     1      35.061 -22.105 -17.794  0.00  0.00    -0.014 C 
ATOM     19  C   UNL     1      33.955 -21.696 -18.531  0.00  0.00    +0.033 C 
ATOM     20  C   UNL     1      36.338 -21.675 -18.139  0.00  0.00    -0.004 C 
ATOM     21  C   UNL     1      34.126 -20.848 -19.625  0.00  0.00    +0.133 C 
ATOM     22  C   UNL     1      36.510 -20.825 -19.232  0.00  0.00    +0.003 C 
ATOM     23  C   UNL     1      35.405 -20.412 -19.975  0.00  0.00    +0.037 C 
BRANCH  21  24
ATOM     24  O   UNL     1      33.048 -20.444 -20.349  0.00  0.00    -0.506 OA
ATOM     25  H   UNL     1      32.986 -20.662 -21.258  0.00  0.00    +0.292 HD
ENDBRANCH  21  24
ENDBRANCH   4  18
TORSDOF 2
ENDMDL
MODEL 2
REMARK VINA RESULT:      -8.8      2.001      5.941
REMARK  Name = 6857690
REMARK  2 active torsions:
REMARK  status: ('A' for Active; 'I' for Inactive)
REMARK    1  A    between atoms: C_4  and  C_18
REMARK    2  A    between atoms: C_21  and  O_24
REMARK                            x       y       z     vdW  Elec       q    Type
REMARK                         _______ _______ _______ _____ _____    ______ ____
ROOT
ATOM      1  O   UNL     1      37.133 -21.465 -16.737  0.00  0.00    -0.252 OA
ATOM      2  N   UNL     1      35.377 -22.946 -16.590  0.00  0.00    -0.259 N 
ATOM      3  N   UNL     1      35.656 -21.531 -18.504  0.00  0.00    -0.261 N 
ATOM      4  C   UNL     1      35.410 -23.178 -14.139  0.00  0.00    +0.064 C 
ATOM      5  C   UNL     1      35.979 -23.676 -15.480  0.00  0.00    +0.104 C 
ATOM      6  C   UNL     1      33.884 -23.113 -14.173  0.00  0.00    -0.019 C 
ATOM      7  C   UNL     1      33.199 -23.089 -15.407  0.00  0.00    -0.010 C 
ATOM      8  C   UNL     1      33.929 -23.147 -16.731  0.00  0.00    +0.121 C 
ATOM      9  C   UNL     1      31.797 -23.022 -15.421  0.00  0.00    -0.028 C 
ATOM     10  C   UNL     1      33.142 -22.991 -12.985  0.00  0.00    -0.005 C 
ATOM     11  C   UNL     1      31.076 -22.937 -14.232  0.00  0.00    -0.026 C 
ATOM     12  C   UNL     1      36.115 -21.952 -17.246  0.00  0.00    +0.308 C 
ATOM     13  C   UNL     1      31.749 -22.912 -13.015  0.00  0.00    -0.005 C 
ATOM     14  C   UNL     1      31.051 -23.035 -16.721  0.00  0.00    +0.030 C 
ATOM     15  C   UNL     1      29.585 -22.870 -14.232  0.00  0.00    +0.031 C 
ATOM     16  C   UNL     1      34.925 -22.378 -19.442  0.00  0.00    +0.117 C 
ATOM     17  C   UNL     1      36.138 -20.268 -19.047  0.00  0.00    +0.117 C 
ENDROOT
BRANCH   4  18
ATOM     18  C   UNL     1      35.990 -24.013 -13.007  0.00  0.00    -0.014 C 
ATOM     19  C   UNL     1      35.894 -23.561 -11.696  0.00  0.00    +0.033 C 
ATOM     20  C   UNL     1      36.612 -25.224 -13.294  0.00  0.00    -0.004 C 
ATOM     21  C   UNL     1      36.425 -24.326 -10.659  0.00  0.00    +0.133 C 
ATOM     22  C   UNL     1      37.143 -25.991 -12.256  0.00  0.00    +0.003 C 
ATOM     23  C   UNL     1      37.050 -25.542 -10.939  0.00  0.00    +0.037 C 
BRANCH  21  24
ATOM     24  O   UNL     1      36.334 -23.888  -9.373  0.00  0.00    -0.506 OA
ATOM     25  H   UNL     1      36.788 -23.113  -9.110  0.00  0.00    +0.292 HD
ENDBRANCH  21  24
ENDBRANCH   4  18
TORSDOF 2
ENDMDL
MODEL 3
REMARK VINA RESULT:      -8.6      1.932      5.841
REMARK  Name = 6857690
REMARK  2 active torsions:
REMARK  status: ('A' for Active; 'I' for Inactive)
REMARK    1  A    between atoms: C_4  and  C_18
REMARK    2  A    between atoms: C_21  and  O_24
REMARK                            x       y       z     vdW  Elec       q    Type
REMARK                         _______ _______ _______ _____ _____    ______ ____
ROOT
ATOM      1  O   UNL     1      36.784 -21.164 -17.194  0.00  0.00    -0.252 OA
ATOM      2  N   UNL     1      35.252 -22.835 -16.793  0.00  0.00    -0.259 N 
ATOM      3  N   UNL     1      35.195 -21.552 -18.816  0.00  0.00    -0.261 N 
ATOM      4  C   UNL     1      35.505 -22.865 -14.344  0.00  0.00    +0.064 C 
ATOM      5  C   UNL     1      36.029 -23.393 -15.691  0.00  0.00    +0.104 C 
ATOM      6  C   UNL     1      33.987 -22.993 -14.249  0.00  0.00    -0.019 C 
ATOM      7  C   UNL     1      33.211 -23.153 -15.417  0.00  0.00    -0.010 C 
ATOM      8  C   UNL     1      33.837 -23.224 -16.792  0.00  0.00    +0.121 C 
ATOM      9  C   UNL     1      31.815 -23.262 -15.313  0.00  0.00    -0.028 C 
ATOM     10  C   UNL     1      33.329 -22.870 -13.012  0.00  0.00    -0.005 C 
ATOM     11  C   UNL     1      31.183 -23.172 -14.075  0.00  0.00    -0.026 C 
ATOM     12  C   UNL     1      35.801 -21.811 -17.577  0.00  0.00    +0.308 C 
ATOM     13  C   UNL     1      31.940 -22.967 -12.925  0.00  0.00    -0.005 C 
ATOM     14  C   UNL     1      30.978 -23.471 -16.540  0.00  0.00    +0.030 C 
ATOM     15  C   UNL     1      29.701 -23.291 -13.950  0.00  0.00    +0.031 C 
ATOM     16  C   UNL     1      34.510 -22.556 -19.626  0.00  0.00    +0.117 C 
ATOM     17  C   UNL     1      35.464 -20.286 -19.485  0.00  0.00    +0.117 C 
ENDROOT
BRANCH   4  18
ATOM     18  C   UNL     1      36.276 -23.529 -13.212  0.00  0.00    -0.014 C 
ATOM     19  C   UNL     1      36.236 -24.912 -13.068  0.00  0.00    +0.033 C 
ATOM     20  C   UNL     1      37.015 -22.748 -12.330  0.00  0.00    -0.004 C 
ATOM     21  C   UNL     1      36.943 -25.521 -12.032  0.00  0.00    +0.133 C 
ATOM     22  C   UNL     1      37.723 -23.357 -11.293  0.00  0.00    +0.003 C 
ATOM     23  C   UNL     1      37.687 -24.743 -11.144  0.00  0.00    +0.037 C 
BRANCH  21  24
ATOM     24  O   UNL     1      36.908 -26.874 -11.886  0.00  0.00    -0.506 OA
ATOM     25  H   UNL     1      36.235 -27.372 -12.306  0.00  0.00    +0.292 HD
ENDBRANCH  21  24
ENDBRANCH   4  18
TORSDOF 2
ENDMDL
