MODEL 1
REMARK VINA RESULT:     -12.2      0.000      0.000
REMARK  Name = 24748573
REMARK  3 active torsions:
REMARK  status: ('A' for Active; 'I' for Inactive)
REMARK    1  A    between atoms: N_2  and  C_18
REMARK    2  A    between atoms: C_13  and  C_25
REMARK    3  A    between atoms: C_25  and  O_26
REMARK                            x       y       z     vdW  Elec       q    Type
REMARK                         _______ _______ _______ _____ _____    ______ ____
ROOT
ATOM      1  N   UNL     1      34.418 -23.014 -16.459  0.00  0.00    -0.391 NA
ATOM      2  N   UNL     1      32.720 -22.383 -17.954  0.00  0.00    -0.288 N 
ATOM      3  N   UNL     1      30.151 -23.846 -13.862  0.00  0.00    -0.243 NA
ATOM      4  C   UNL     1      33.920 -23.838 -14.242  0.00  0.00    +0.098 C 
ATOM      5  C   UNL     1      32.519 -23.688 -14.505  0.00  0.00    +0.011 C 
ATOM      6  C   UNL     1      32.106 -23.197 -15.756  0.00  0.00    +0.044 C 
ATOM      7  C   UNL     1      34.824 -23.481 -15.269  0.00  0.00    +0.119 C 
ATOM      8  C   UNL     1      33.092 -22.882 -16.680  0.00  0.00    +0.183 C 
ATOM      9  C   UNL     1      34.451 -24.322 -13.021  0.00  0.00    -0.015 C 
ATOM     10  C   UNL     1      36.192 -23.617 -15.046  0.00  0.00    +0.035 C 
ATOM     11  C   UNL     1      30.746 -23.035 -16.050  0.00  0.00    +0.024 C 
ATOM     12  C   UNL     1      31.475 -23.990 -13.610  0.00  0.00    +0.095 C 
ATOM     13  C   UNL     1      36.697 -24.095 -13.838  0.00  0.00    +0.077 C 
ATOM     14  C   UNL     1      35.824 -24.449 -12.822  0.00  0.00    +0.003 C 
ATOM     15  C   UNL     1      29.821 -23.372 -15.079  0.00  0.00    +0.099 C 
ATOM     16  H   UNL     1      31.847 -22.712 -18.270  0.00  0.00    +0.155 HD
ENDROOT
BRANCH   2  18
ATOM     17 CL   UNL     1      37.095 -20.461 -19.803  0.00  0.00    -0.082 Cl
ATOM     18  C   UNL     1      33.354 -21.511 -18.852  0.00  0.00    +0.051 C 
ATOM     19  C   UNL     1      34.747 -21.427 -18.876  0.00  0.00    +0.026 C 
ATOM     20  C   UNL     1      32.593 -20.730 -19.722  0.00  0.00    +0.015 C 
ATOM     21  C   UNL     1      35.378 -20.564 -19.772  0.00  0.00    +0.059 C 
ATOM     22  C   UNL     1      33.225 -19.867 -20.617  0.00  0.00    +0.002 C 
ATOM     23  C   UNL     1      34.617 -19.784 -20.642  0.00  0.00    +0.011 C 
ENDBRANCH   2  18
BRANCH  13  25
ATOM     24  O   UNL     1      38.702 -24.327 -12.554  0.00  0.00    -0.245 OA
ATOM     25  C   UNL     1      38.132 -24.220 -13.646  0.00  0.00    +0.338 C 
BRANCH  25  26
ATOM     26  O   UNL     1      38.819 -24.209 -14.821  0.00  0.00    -0.477 OA
ATOM     27  H   UNL     1      39.655 -24.628 -14.879  0.00  0.00    +0.295 HD
ENDBRANCH  25  26
ENDBRANCH  13  25
TORSDOF 3
ENDMDL
MODEL 2
REMARK VINA RESULT:     -12.0      1.236      1.776
REMARK  Name = 24748573
REMARK  3 active torsions:
REMARK  status: ('A' for Active; 'I' for Inactive)
REMARK    1  A    between atoms: N_2  and  C_18
REMARK    2  A    between atoms: C_13  and  C_25
REMARK    3  A    between atoms: C_25  and  O_26
REMARK                            x       y       z     vdW  Elec       q    Type
REMARK                         _______ _______ _______ _____ _____    ______ ____
ROOT
ATOM      1  N   UNL     1      35.142 -23.123 -15.715  0.00  0.00    -0.391 NA
ATOM      2  N   UNL     1      33.709 -22.681 -17.523  0.00  0.00    -0.288 N 
ATOM      3  N   UNL     1      30.513 -23.846 -13.793  0.00  0.00    -0.243 NA
ATOM      4  C   UNL     1      34.292 -23.759 -13.543  0.00  0.00    +0.098 C 
ATOM      5  C   UNL     1      32.953 -23.675 -14.047  0.00  0.00    +0.011 C 
ATOM      6  C   UNL     1      32.748 -23.311 -15.390  0.00  0.00    +0.044 C 
ATOM      7  C   UNL     1      35.350 -23.469 -14.435  0.00  0.00    +0.119 C 
ATOM      8  C   UNL     1      33.871 -23.052 -16.163  0.00  0.00    +0.183 C 
ATOM      9  C   UNL     1      34.619 -24.115 -12.211  0.00  0.00    -0.015 C 
ATOM     10  C   UNL     1      36.663 -23.543 -13.978  0.00  0.00    +0.035 C 
ATOM     11  C   UNL     1      31.454 -23.218 -15.919  0.00  0.00    +0.024 C 
ATOM     12  C   UNL     1      31.778 -23.927 -13.312  0.00  0.00    +0.095 C 
ATOM     13  C   UNL     1      36.966 -23.894 -12.663  0.00  0.00    +0.077 C 
ATOM     14  C   UNL     1      35.941 -24.181 -11.777  0.00  0.00    +0.003 C 
ATOM     15  C   UNL     1      30.385 -23.493 -15.086  0.00  0.00    +0.099 C 
ATOM     16  H   UNL     1      32.907 -23.064 -17.946  0.00  0.00    +0.155 HD
ENDROOT
BRANCH   2  18
ATOM     17 CL   UNL     1      33.824 -19.371 -21.432  0.00  0.00    -0.082 Cl
ATOM     18  C   UNL     1      34.472 -21.875 -18.381  0.00  0.00    +0.051 C 
ATOM     19  C   UNL     1      33.843 -21.114 -19.367  0.00  0.00    +0.026 C 
ATOM     20  C   UNL     1      35.861 -21.831 -18.247  0.00  0.00    +0.015 C 
ATOM     21  C   UNL     1      34.601 -20.310 -20.217  0.00  0.00    +0.059 C 
ATOM     22  C   UNL     1      36.618 -21.027 -19.098  0.00  0.00    +0.002 C 
ATOM     23  C   UNL     1      35.988 -20.266 -20.082  0.00  0.00    +0.011 C 
ENDBRANCH   2  18
BRANCH  13  25
ATOM     24  O   UNL     1      39.237 -24.642 -12.749  0.00  0.00    -0.245 OA
ATOM     25  C   UNL     1      38.350 -23.958 -12.225  0.00  0.00    +0.338 C 
BRANCH  25  26
ATOM     26  O   UNL     1      38.592 -23.164 -11.146  0.00  0.00    -0.477 OA
ATOM     27  H   UNL     1      37.880 -22.860 -10.619  0.00  0.00    +0.295 HD
ENDBRANCH  25  26
ENDBRANCH  13  25
TORSDOF 3
ENDMDL
MODEL 3
REMARK VINA RESULT:     -10.6      3.972      6.837
REMARK  Name = 24748573
REMARK  3 active torsions:
REMARK  status: ('A' for Active; 'I' for Inactive)
REMARK    1  A    between atoms: N_2  and  C_18
REMARK    2  A    between atoms: C_13  and  C_25
REMARK    3  A    between atoms: C_25  and  O_26
REMARK                            x       y       z     vdW  Elec       q    Type
REMARK                         _______ _______ _______ _____ _____    ______ ____
ROOT
ATOM      1  N   UNL     1      33.605 -22.607 -17.367  0.00  0.00    -0.391 NA
ATOM      2  N   UNL     1      32.991 -23.946 -15.537  0.00  0.00    -0.288 N 
ATOM      3  N   UNL     1      37.876 -23.009 -14.676  0.00  0.00    -0.243 NA
ATOM      4  C   UNL     1      35.854 -21.761 -17.626  0.00  0.00    +0.098 C 
ATOM      5  C   UNL     1      36.236 -22.413 -16.408  0.00  0.00    +0.011 C 
ATOM      6  C   UNL     1      35.274 -23.153 -15.697  0.00  0.00    +0.044 C 
ATOM      7  C   UNL     1      34.514 -21.899 -18.054  0.00  0.00    +0.119 C 
ATOM      8  C   UNL     1      33.991 -23.211 -16.223  0.00  0.00    +0.183 C 
ATOM      9  C   UNL     1      36.736 -20.991 -18.425  0.00  0.00    -0.015 C 
ATOM     10  C   UNL     1      34.111 -21.279 -19.234  0.00  0.00    +0.035 C 
ATOM     11  C   UNL     1      35.610 -23.804 -14.503  0.00  0.00    +0.024 C 
ATOM     12  C   UNL     1      37.519 -22.390 -15.828  0.00  0.00    +0.095 C 
ATOM     13  C   UNL     1      34.992 -20.524 -20.007  0.00  0.00    +0.077 C 
ATOM     14  C   UNL     1      36.308 -20.380 -19.601  0.00  0.00    +0.003 C 
ATOM     15  C   UNL     1      36.909 -23.701 -14.043  0.00  0.00    +0.099 C 
ATOM     16  H   UNL     1      33.340 -24.711 -15.025  0.00  0.00    +0.155 HD
ENDROOT
BRANCH   2  18
ATOM     17 CL   UNL     1      28.524 -25.698 -13.740  0.00  0.00    -0.082 Cl
ATOM     18  C   UNL     1      31.599 -23.793 -15.447  0.00  0.00    +0.051 C 
ATOM     19  C   UNL     1      30.841 -24.715 -14.725  0.00  0.00    +0.026 C 
ATOM     20  C   UNL     1      30.973 -22.717 -16.078  0.00  0.00    +0.015 C 
ATOM     21  C   UNL     1      29.458 -24.561 -14.632  0.00  0.00    +0.059 C 
ATOM     22  C   UNL     1      29.589 -22.564 -15.985  0.00  0.00    +0.002 C 
ATOM     23  C   UNL     1      28.833 -23.486 -15.262  0.00  0.00    +0.011 C 
ENDBRANCH   2  18
BRANCH  13  25
ATOM     24  O   UNL     1      35.256 -19.485 -22.145  0.00  0.00    -0.245 OA
ATOM     25  C   UNL     1      34.530 -19.891 -21.231  0.00  0.00    +0.338 C 
BRANCH  25  26
ATOM     26  O   UNL     1      33.174 -19.784 -21.283  0.00  0.00    -0.477 OA
ATOM     27  H   UNL     1      32.687 -20.292 -21.903  0.00  0.00    +0.295 HD
ENDBRANCH  25  26
ENDBRANCH  13  25
TORSDOF 3
ENDMDL
MODEL 4
REMARK VINA RESULT:     -10.4      2.694      6.113
REMARK  Name = 24748573
REMARK  3 active torsions:
REMARK  status: ('A' for Active; 'I' for Inactive)
REMARK    1  A    between atoms: N_2  and  C_18
REMARK    2  A    between atoms: C_13  and  C_25
REMARK    3  A    between atoms: C_25  and  O_26
REMARK                            x       y       z     vdW  Elec       q    Type
REMARK                         _______ _______ _______ _____ _____    ______ ____
ROOT
ATOM      1  N   UNL     1      35.151 -23.168 -15.431  0.00  0.00    -0.391 NA
ATOM      2  N   UNL     1      35.056 -24.216 -13.332  0.00  0.00    -0.288 N 
ATOM      3  N   UNL     1      30.215 -24.075 -14.756  0.00  0.00    -0.243 NA
ATOM      4  C   UNL     1      33.160 -22.754 -16.739  0.00  0.00    +0.098 C 
ATOM      5  C   UNL     1      32.364 -23.355 -15.709  0.00  0.00    +0.011 C 
ATOM      6  C   UNL     1      32.998 -23.851 -14.555  0.00  0.00    +0.044 C 
ATOM      7  C   UNL     1      34.558 -22.691 -16.536  0.00  0.00    +0.119 C 
ATOM      8  C   UNL     1      34.377 -23.729 -14.477  0.00  0.00    +0.183 C 
ATOM      9  C   UNL     1      32.633 -22.222 -17.941  0.00  0.00    -0.015 C 
ATOM     10  C   UNL     1      35.360 -22.113 -17.517  0.00  0.00    +0.035 C 
ATOM     11  C   UNL     1      32.253 -24.445 -13.528  0.00  0.00    +0.024 C 
ATOM     12  C   UNL     1      30.964 -23.506 -15.732  0.00  0.00    +0.095 C 
ATOM     13  C   UNL     1      34.824 -21.594 -18.694  0.00  0.00    +0.077 C 
ATOM     14  C   UNL     1      33.457 -21.648 -18.907  0.00  0.00    +0.003 C 
ATOM     15  C   UNL     1      30.881 -24.530 -13.677  0.00  0.00    +0.099 C 
ATOM     16  H   UNL     1      34.519 -24.182 -12.507  0.00  0.00    +0.155 HD
ENDROOT
BRANCH   2  18
ATOM     17 CL   UNL     1      39.823 -24.791 -15.122  0.00  0.00    -0.082 Cl
ATOM     18  C   UNL     1      36.345 -24.738 -13.146  0.00  0.00    +0.051 C 
ATOM     19  C   UNL     1      37.328 -24.532 -14.115  0.00  0.00    +0.026 C 
ATOM     20  C   UNL     1      36.646 -25.461 -11.991  0.00  0.00    +0.015 C 
ATOM     21  C   UNL     1      38.610 -25.047 -13.928  0.00  0.00    +0.059 C 
ATOM     22  C   UNL     1      37.928 -25.976 -11.805  0.00  0.00    +0.002 C 
ATOM     23  C   UNL     1      38.910 -25.768 -12.773  0.00  0.00    +0.011 C 
ENDBRANCH   2  18
BRANCH  13  25
ATOM     24  O   UNL     1      35.327 -20.299 -20.642  0.00  0.00    -0.245 OA
ATOM     25  C   UNL     1      35.697 -21.000 -19.693  0.00  0.00    +0.338 C 
BRANCH  25  26
ATOM     26  O   UNL     1      37.009 -21.294 -19.481  0.00  0.00    -0.477 OA
ATOM     27  H   UNL     1      37.417 -21.056 -18.671  0.00  0.00    +0.295 HD
ENDBRANCH  25  26
ENDBRANCH  13  25
TORSDOF 3
ENDMDL
MODEL 5
REMARK VINA RESULT:     -10.3      3.268      6.097
REMARK  Name = 24748573
REMARK  3 active torsions:
REMARK  status: ('A' for Active; 'I' for Inactive)
REMARK    1  A    between atoms: N_2  and  C_18
REMARK    2  A    between atoms: C_13  and  C_25
REMARK    3  A    between atoms: C_25  and  O_26
REMARK                            x       y       z     vdW  Elec       q    Type
REMARK                         _______ _______ _______ _____ _____    ______ ____
ROOT
ATOM      1  N   UNL     1      33.952 -23.575 -15.280  0.00  0.00    -0.391 NA
ATOM      2  N   UNL     1      32.762 -24.734 -13.619  0.00  0.00    -0.288 N 
ATOM      3  N   UNL     1      37.087 -23.543 -11.303  0.00  0.00    -0.243 NA
ATOM      4  C   UNL     1      36.162 -22.684 -14.875  0.00  0.00    +0.098 C 
ATOM      5  C   UNL     1      36.116 -23.191 -13.535  0.00  0.00    +0.011 C 
ATOM      6  C   UNL     1      34.971 -23.884 -13.103  0.00  0.00    +0.044 C 
ATOM      7  C   UNL     1      35.039 -22.912 -15.702  0.00  0.00    +0.119 C 
ATOM      8  C   UNL     1      33.935 -24.042 -14.013  0.00  0.00    +0.183 C 
ATOM      9  C   UNL     1      37.260 -21.972 -15.418  0.00  0.00    -0.015 C 
ATOM     10  C   UNL     1      35.052 -22.434 -17.011  0.00  0.00    +0.035 C 
ATOM     11  C   UNL     1      34.890 -24.393 -11.801  0.00  0.00    +0.024 C 
ATOM     12  C   UNL     1      37.134 -23.062 -12.570  0.00  0.00    +0.095 C 
ATOM     13  C   UNL     1      36.141 -21.736 -17.528  0.00  0.00    +0.077 C 
ATOM     14  C   UNL     1      37.249 -21.504 -16.730  0.00  0.00    +0.003 C 
ATOM     15  C   UNL     1      35.963 -24.197 -10.952  0.00  0.00    +0.099 C 
ATOM     16  H   UNL     1      32.920 -25.428 -12.939  0.00  0.00    +0.155 HD
ENDROOT
BRANCH   2  18
ATOM     17 CL   UNL     1      29.225 -22.265 -16.385  0.00  0.00    -0.082 Cl
ATOM     18  C   UNL     1      31.420 -24.621 -14.011  0.00  0.00    +0.051 C 
ATOM     19  C   UNL     1      31.034 -23.614 -14.897  0.00  0.00    +0.026 C 
ATOM     20  C   UNL     1      30.471 -25.517 -13.517  0.00  0.00    +0.015 C 
ATOM     21  C   UNL     1      29.701 -23.505 -15.291  0.00  0.00    +0.059 C 
ATOM     22  C   UNL     1      29.137 -25.406 -13.911  0.00  0.00    +0.002 C 
ATOM     23  C   UNL     1      28.753 -24.401 -14.797  0.00  0.00    +0.011 C 
ENDBRANCH   2  18
BRANCH  13  25
ATOM     24  O   UNL     1      36.618 -20.196 -19.296  0.00  0.00    -0.245 OA
ATOM     25  C   UNL     1      36.113 -21.252 -18.899  0.00  0.00    +0.338 C 
BRANCH  25  26
ATOM     26  O   UNL     1      35.458 -22.101 -19.738  0.00  0.00    -0.477 OA
ATOM     27  H   UNL     1      35.441 -21.928 -20.659  0.00  0.00    +0.295 HD
ENDBRANCH  25  26
ENDBRANCH  13  25
TORSDOF 3
ENDMDL
MODEL 6
REMARK VINA RESULT:     -10.0      3.515      6.793
REMARK  Name = 24748573
REMARK  3 active torsions:
REMARK  status: ('A' for Active; 'I' for Inactive)
REMARK    1  A    between atoms: N_2  and  C_18
REMARK    2  A    between atoms: C_13  and  C_25
REMARK    3  A    between atoms: C_25  and  O_26
REMARK                            x       y       z     vdW  Elec       q    Type
REMARK                         _______ _______ _______ _____ _____    ______ ____
ROOT
ATOM      1  N   UNL     1      34.284 -23.949 -14.946  0.00  0.00    -0.391 NA
ATOM      2  N   UNL     1      36.551 -23.649 -15.479  0.00  0.00    -0.288 N 
ATOM      3  N   UNL     1      34.171 -21.164 -19.173  0.00  0.00    -0.243 NA
ATOM      4  C   UNL     1      32.520 -23.012 -16.308  0.00  0.00    +0.098 C 
ATOM      5  C   UNL     1      33.504 -22.455 -17.189  0.00  0.00    +0.011 C 
ATOM      6  C   UNL     1      34.867 -22.665 -16.916  0.00  0.00    +0.044 C 
ATOM      7  C   UNL     1      32.980 -23.754 -15.196  0.00  0.00    +0.119 C 
ATOM      8  C   UNL     1      35.188 -23.413 -15.792  0.00  0.00    +0.183 C 
ATOM      9  C   UNL     1      31.122 -22.865 -16.483  0.00  0.00    -0.015 C 
ATOM     10  C   UNL     1      32.051 -24.311 -14.321  0.00  0.00    +0.035 C 
ATOM     11  C   UNL     1      35.857 -22.136 -17.755  0.00  0.00    +0.024 C 
ATOM     12  C   UNL     1      33.239 -21.690 -18.342  0.00  0.00    +0.095 C 
ATOM     13  C   UNL     1      30.678 -24.156 -14.508  0.00  0.00    +0.077 C 
ATOM     14  C   UNL     1      30.212 -23.431 -15.593  0.00  0.00    +0.003 C 
ATOM     15  C   UNL     1      35.459 -21.403 -18.857  0.00  0.00    +0.099 C 
ATOM     16  H   UNL     1      37.140 -23.682 -16.268  0.00  0.00    +0.155 HD
ENDROOT
BRANCH   2  18
ATOM     17 CL   UNL     1      36.922 -22.569 -10.484  0.00  0.00    -0.082 Cl
ATOM     18  C   UNL     1      37.223 -23.845 -14.263  0.00  0.00    +0.051 C 
ATOM     19  C   UNL     1      36.791 -23.184 -13.113  0.00  0.00    +0.026 C 
ATOM     20  C   UNL     1      38.321 -24.704 -14.203  0.00  0.00    +0.015 C 
ATOM     21  C   UNL     1      37.456 -23.383 -11.903  0.00  0.00    +0.059 C 
ATOM     22  C   UNL     1      38.985 -24.902 -12.993  0.00  0.00    +0.002 C 
ATOM     23  C   UNL     1      38.552 -24.242 -11.843  0.00  0.00    +0.011 C 
ENDBRANCH   2  18
BRANCH  13  25
ATOM     24  O   UNL     1      28.599 -25.134 -13.844  0.00  0.00    -0.245 OA
ATOM     25  C   UNL     1      29.742 -24.752 -13.570  0.00  0.00    +0.338 C 
BRANCH  25  26
ATOM     26  O   UNL     1      30.257 -24.856 -12.314  0.00  0.00    -0.477 OA
ATOM     27  H   UNL     1      30.984 -24.321 -12.060  0.00  0.00    +0.295 HD
ENDBRANCH  25  26
ENDBRANCH  13  25
TORSDOF 3
ENDMDL
MODEL 7
REMARK VINA RESULT:      -9.9      3.132      4.944
REMARK  Name = 24748573
REMARK  3 active torsions:
REMARK  status: ('A' for Active; 'I' for Inactive)
REMARK    1  A    between atoms: N_2  and  C_18
REMARK    2  A    between atoms: C_13  and  C_25
REMARK    3  A    between atoms: C_25  and  O_26
REMARK                            x       y       z     vdW  Elec       q    Type
REMARK                         _______ _______ _______ _____ _____    ______ ____
ROOT
ATOM      1  N   UNL     1      34.146 -22.715 -15.804  0.00  0.00    -0.391 NA
ATOM      2  N   UNL     1      36.189 -21.980 -16.698  0.00  0.00    -0.288 N 
ATOM      3  N   UNL     1      37.614 -25.304 -13.175  0.00  0.00    -0.243 NA
ATOM      4  C   UNL     1      34.048 -24.354 -14.030  0.00  0.00    +0.098 C 
ATOM      5  C   UNL     1      35.479 -24.424 -14.022  0.00  0.00    +0.011 C 
ATOM      6  C   UNL     1      36.209 -23.626 -14.921  0.00  0.00    +0.044 C 
ATOM      7  C   UNL     1      33.438 -23.472 -14.952  0.00  0.00    +0.119 C 
ATOM      8  C   UNL     1      35.493 -22.802 -15.776  0.00  0.00    +0.183 C 
ATOM      9  C   UNL     1      33.210 -25.109 -13.173  0.00  0.00    -0.015 C 
ATOM     10  C   UNL     1      32.049 -23.379 -14.985  0.00  0.00    +0.035 C 
ATOM     11  C   UNL     1      37.610 -23.668 -14.943  0.00  0.00    +0.024 C 
ATOM     12  C   UNL     1      36.260 -25.239 -13.180  0.00  0.00    +0.095 C 
ATOM     13  C   UNL     1      31.241 -24.130 -14.134  0.00  0.00    +0.077 C 
ATOM     14  C   UNL     1      31.823 -24.998 -13.225  0.00  0.00    +0.003 C 
ATOM     15  C   UNL     1      38.254 -24.514 -14.059  0.00  0.00    +0.099 C 
ATOM     16  H   UNL     1      37.079 -21.697 -16.385  0.00  0.00    +0.155 HD
ENDROOT
BRANCH   2  18
ATOM     17 CL   UNL     1      37.451 -19.048 -20.707  0.00  0.00    -0.082 Cl
ATOM     18  C   UNL     1      35.856 -21.493 -17.971  0.00  0.00    +0.051 C 
ATOM     19  C   UNL     1      36.718 -20.613 -18.628  0.00  0.00    +0.026 C 
ATOM     20  C   UNL     1      34.666 -21.889 -18.581  0.00  0.00    +0.015 C 
ATOM     21  C   UNL     1      36.389 -20.132 -19.895  0.00  0.00    +0.059 C 
ATOM     22  C   UNL     1      34.337 -21.407 -19.848  0.00  0.00    +0.002 C 
ATOM     23  C   UNL     1      35.199 -20.529 -20.505  0.00  0.00    +0.011 C 
ENDBRANCH   2  18
BRANCH  13  25
ATOM     24  O   UNL     1      29.179 -22.995 -14.563  0.00  0.00    -0.245 OA
ATOM     25  C   UNL     1      29.794 -24.004 -14.201  0.00  0.00    +0.338 C 
BRANCH  25  26
ATOM     26  O   UNL     1      29.153 -25.142 -13.817  0.00  0.00    -0.477 OA
ATOM     27  H   UNL     1      29.234 -25.450 -12.936  0.00  0.00    +0.295 HD
ENDBRANCH  25  26
ENDBRANCH  13  25
TORSDOF 3
ENDMDL
