MODEL 1
REMARK VINA RESULT:     -11.4      0.000      0.000
REMARK  Name = 42627769
REMARK  10 active torsions:
REMARK  status: ('A' for Active; 'I' for Inactive)
REMARK    1  A    between atoms: C_1  and  C_3
REMARK    2  A    between atoms: C_1  and  N_6
REMARK    3  A    between atoms: C_1  and  C_22
REMARK    4  A    between atoms: C_3  and  O_4
REMARK    5  A    between atoms: N_6  and  S_8
REMARK    6  A    between atoms: S_8  and  C_11
REMARK    7  A    between atoms: C_16  and  O_17
REMARK    8  A    between atoms: O_17  and  C_18
REMARK    9  A    between atoms: C_18  and  C_19
REMARK   10  A    between atoms: C_22  and  C_24
REMARK                            x       y       z     vdW  Elec       q    Type
REMARK                         _______ _______ _______ _____ _____    ______ ____
ROOT
ATOM      1  C   UNL     1      34.684 -23.398 -15.872  0.00  0.00    +0.178 C 
ENDROOT
BRANCH   1   3
ATOM      2  O   UNL     1      36.873 -22.851 -14.957  0.00  0.00    -0.249 OA
ATOM      3  C   UNL     1      36.015 -23.685 -15.214  0.00  0.00    +0.330 C 
BRANCH   3   4
ATOM      4  O   UNL     1      36.161 -25.005 -14.924  0.00  0.00    -0.479 OA
ATOM      5  H   UNL     1      37.010 -25.350 -14.726  0.00  0.00    +0.295 HD
ENDBRANCH   3   4
ENDBRANCH   1   3
BRANCH   1   6
ATOM      6  N   UNL     1      34.948 -22.466 -16.993  0.00  0.00    -0.170 NA
ATOM      7  H   UNL     1      34.899 -21.522 -16.611  0.00  0.00    +0.149 HD
BRANCH   6   8
ATOM      8  S   UNL     1      33.948 -22.490 -18.366  0.00  0.00    +0.061 S 
ATOM      9  O   UNL     1      32.599 -22.113 -17.989  0.00  0.00    -0.153 OA
ATOM     10  O   UNL     1      34.184 -23.723 -19.094  0.00  0.00    -0.153 OA
BRANCH   8  11
ATOM     11  C   UNL     1      34.629 -21.180 -19.337  0.00  0.00    +0.122 C 
ATOM     12  C   UNL     1      36.000 -20.927 -19.301  0.00  0.00    +0.023 C 
ATOM     13  C   UNL     1      33.796 -20.397 -20.136  0.00  0.00    +0.023 C 
ATOM     14  C   UNL     1      36.538 -19.891 -20.065  0.00  0.00    +0.038 C 
ATOM     15  C   UNL     1      34.334 -19.362 -20.899  0.00  0.00    +0.038 C 
ATOM     16  C   UNL     1      35.705 -19.109 -20.865  0.00  0.00    +0.140 C 
BRANCH  16  17
ATOM     17  O   UNL     1      36.230 -18.098 -21.609  0.00  0.00    -0.461 OA
BRANCH  17  18
ATOM     18  C   UNL     1      35.449 -17.623 -22.704  0.00  0.00    +0.281 C 
BRANCH  18  19
ATOM     19  C   UNL     1      35.128 -16.211 -22.506  0.00  0.00    -0.044 C 
ATOM     20  C   UNL     1      34.863 -15.051 -22.340  0.00  0.00    -0.086 C 
ATOM     21  C   UNL     1      34.542 -13.639 -22.139  0.00  0.00    +0.090 C 
ENDBRANCH  18  19
ENDBRANCH  17  18
ENDBRANCH  16  17
ENDBRANCH   8  11
ENDBRANCH   6   8
ENDBRANCH   1   6
BRANCH   1  22
ATOM     22  C   UNL     1      33.683 -22.752 -14.891  0.00  0.00    +0.056 C 
BRANCH  22  24
ATOM     23  N   UNL     1      31.896 -25.314 -12.999  0.00  0.00    -0.312 N 
ATOM     24  C   UNL     1      32.737 -23.711 -14.283  0.00  0.00    -0.004 C 
ATOM     25  C   UNL     1      31.364 -23.873 -14.618  0.00  0.00    +0.010 C 
ATOM     26  C   UNL     1      30.860 -24.885 -13.797  0.00  0.00    +0.048 C 
ATOM     27  C   UNL     1      33.035 -24.610 -13.285  0.00  0.00    +0.058 C 
ATOM     28  C   UNL     1      30.499 -23.256 -15.542  0.00  0.00    -0.003 C 
ATOM     29  C   UNL     1      29.528 -25.312 -13.856  0.00  0.00    +0.014 C 
ATOM     30  C   UNL     1      29.165 -23.672 -15.612  0.00  0.00    -0.022 C 
ATOM     31  C   UNL     1      28.689 -24.684 -14.781  0.00  0.00    -0.003 C 
ATOM     32  C   UNL     1      28.242 -23.021 -16.589  0.00  0.00    +0.031 C 
ATOM     33  H   UNL     1      31.828 -26.024 -12.320  0.00  0.00    +0.152 HD
ENDBRANCH  22  24
ENDBRANCH   1  22
TORSDOF 10
ENDMDL
MODEL 2
REMARK VINA RESULT:     -10.6      3.002      5.654
REMARK  Name = 42627769
REMARK  10 active torsions:
REMARK  status: ('A' for Active; 'I' for Inactive)
REMARK    1  A    between atoms: C_1  and  C_3
REMARK    2  A    between atoms: C_1  and  N_6
REMARK    3  A    between atoms: C_1  and  C_22
REMARK    4  A    between atoms: C_3  and  O_4
REMARK    5  A    between atoms: N_6  and  S_8
REMARK    6  A    between atoms: S_8  and  C_11
REMARK    7  A    between atoms: C_16  and  O_17
REMARK    8  A    between atoms: O_17  and  C_18
REMARK    9  A    between atoms: C_18  and  C_19
REMARK   10  A    between atoms: C_22  and  C_24
REMARK                            x       y       z     vdW  Elec       q    Type
REMARK                         _______ _______ _______ _____ _____    ______ ____
ROOT
ATOM      1  C   UNL     1      34.329 -20.144 -19.923  0.00  0.00    +0.178 C 
ENDROOT
BRANCH   1   3
ATOM      2  O   UNL     1      32.071 -20.571 -19.117  0.00  0.00    -0.249 OA
ATOM      3  C   UNL     1      32.824 -20.238 -20.024  0.00  0.00    +0.330 C 
BRANCH   3   4
ATOM      4  O   UNL     1      32.378 -19.898 -21.262  0.00  0.00    -0.479 OA
ATOM      5  H   UNL     1      31.687 -20.388 -21.663  0.00  0.00    +0.295 HD
ENDBRANCH   3   4
ENDBRANCH   1   3
BRANCH   1   6
ATOM      6  N   UNL     1      34.808 -19.508 -21.172  0.00  0.00    -0.170 NA
ATOM      7  H   UNL     1      35.019 -20.262 -21.826  0.00  0.00    +0.149 HD
BRANCH   6   8
ATOM      8  S   UNL     1      36.171 -18.495 -21.137  0.00  0.00    +0.061 S 
ATOM      9  O   UNL     1      37.005 -18.765 -22.292  0.00  0.00    -0.153 OA
ATOM     10  O   UNL     1      36.740 -18.525 -19.802  0.00  0.00    -0.153 OA
BRANCH   8  11
ATOM     11  C   UNL     1      35.444 -16.899 -21.352  0.00  0.00    +0.122 C 
ATOM     12  C   UNL     1      35.287 -16.371 -22.633  0.00  0.00    +0.023 C 
ATOM     13  C   UNL     1      35.030 -16.165 -20.240  0.00  0.00    +0.023 C 
ATOM     14  C   UNL     1      34.715 -15.110 -22.803  0.00  0.00    +0.038 C 
ATOM     15  C   UNL     1      34.458 -14.904 -20.410  0.00  0.00    +0.038 C 
ATOM     16  C   UNL     1      34.300 -14.377 -21.692  0.00  0.00    +0.140 C 
BRANCH  16  17
ATOM     17  O   UNL     1      33.744 -13.147 -21.858  0.00  0.00    -0.461 OA
BRANCH  17  18
ATOM     18  C   UNL     1      32.332 -13.042 -21.681  0.00  0.00    +0.281 C 
BRANCH  18  19
ATOM     19  C   UNL     1      32.033 -11.993 -20.708  0.00  0.00    -0.044 C 
ATOM     20  C   UNL     1      31.788 -11.128 -19.911  0.00  0.00    -0.086 C 
ATOM     21  C   UNL     1      31.489 -10.076 -18.941  0.00  0.00    +0.090 C 
ENDBRANCH  18  19
ENDBRANCH  17  18
ENDBRANCH  16  17
ENDBRANCH   8  11
ENDBRANCH   6   8
ENDBRANCH   1   6
BRANCH   1  22
ATOM     22  C   UNL     1      34.984 -21.533 -19.769  0.00  0.00    +0.056 C 
BRANCH  22  24
ATOM     23  N   UNL     1      36.851 -21.965 -16.660  0.00  0.00    -0.312 N 
ATOM     24  C   UNL     1      35.494 -21.807 -18.410  0.00  0.00    -0.004 C 
ATOM     25  C   UNL     1      34.754 -22.345 -17.320  0.00  0.00    +0.010 C 
ATOM     26  C   UNL     1      35.628 -22.433 -16.235  0.00  0.00    +0.048 C 
ATOM     27  C   UNL     1      36.779 -21.583 -17.973  0.00  0.00    +0.058 C 
ATOM     28  C   UNL     1      33.420 -22.767 -17.153  0.00  0.00    -0.003 C 
ATOM     29  C   UNL     1      35.234 -22.925 -14.986  0.00  0.00    +0.014 C 
ATOM     30  C   UNL     1      33.012 -23.261 -15.909  0.00  0.00    -0.022 C 
ATOM     31  C   UNL     1      33.906 -23.337 -14.843  0.00  0.00    -0.003 C 
ATOM     32  C   UNL     1      31.599 -23.709 -15.723  0.00  0.00    +0.031 C 
ATOM     33  H   UNL     1      37.659 -21.910 -16.101  0.00  0.00    +0.152 HD
ENDBRANCH  22  24
ENDBRANCH   1  22
TORSDOF 10
ENDMDL
MODEL 3
REMARK VINA RESULT:     -10.6      5.953     11.762
REMARK  Name = 42627769
REMARK  10 active torsions:
REMARK  status: ('A' for Active; 'I' for Inactive)
REMARK    1  A    between atoms: C_1  and  C_3
REMARK    2  A    between atoms: C_1  and  N_6
REMARK    3  A    between atoms: C_1  and  C_22
REMARK    4  A    between atoms: C_3  and  O_4
REMARK    5  A    between atoms: N_6  and  S_8
REMARK    6  A    between atoms: S_8  and  C_11
REMARK    7  A    between atoms: C_16  and  O_17
REMARK    8  A    between atoms: O_17  and  C_18
REMARK    9  A    between atoms: C_18  and  C_19
REMARK   10  A    between atoms: C_22  and  C_24
REMARK                            x       y       z     vdW  Elec       q    Type
REMARK                         _______ _______ _______ _____ _____    ______ ____
ROOT
ATOM      1  C   UNL     1      34.197 -13.756 -24.235  0.00  0.00    +0.178 C 
ENDROOT
BRANCH   1   3
ATOM      2  O   UNL     1      33.520 -11.797 -25.513  0.00  0.00    -0.249 OA
ATOM      3  C   UNL     1      33.289 -12.934 -25.122  0.00  0.00    +0.330 C 
BRANCH   3   4
ATOM      4  O   UNL     1      32.158 -13.611 -25.454  0.00  0.00    -0.479 OA
ATOM      5  H   UNL     1      31.791 -14.232 -24.856  0.00  0.00    +0.295 HD
ENDBRANCH   3   4
ENDBRANCH   1   3
BRANCH   1   6
ATOM      6  N   UNL     1      33.487 -15.024 -23.946  0.00  0.00    -0.170 NA
ATOM      7  H   UNL     1      33.509 -15.152 -22.935  0.00  0.00    +0.149 HD
BRANCH   6   8
ATOM      8  S   UNL     1      34.036 -16.476 -24.635  0.00  0.00    +0.061 S 
ATOM      9  O   UNL     1      35.151 -16.199 -25.521  0.00  0.00    -0.153 OA
ATOM     10  O   UNL     1      32.891 -17.227 -25.116  0.00  0.00    -0.153 OA
BRANCH   8  11
ATOM     11  C   UNL     1      34.662 -17.336 -23.224  0.00  0.00    +0.122 C 
ATOM     12  C   UNL     1      35.272 -16.628 -22.190  0.00  0.00    +0.023 C 
ATOM     13  C   UNL     1      34.547 -18.724 -23.146  0.00  0.00    +0.023 C 
ATOM     14  C   UNL     1      35.769 -17.306 -21.077  0.00  0.00    +0.038 C 
ATOM     15  C   UNL     1      35.044 -19.403 -22.033  0.00  0.00    +0.038 C 
ATOM     16  C   UNL     1      35.654 -18.694 -20.998  0.00  0.00    +0.140 C 
BRANCH  16  17
ATOM     17  O   UNL     1      36.139 -19.356 -19.913  0.00  0.00    -0.461 OA
BRANCH  17  18
ATOM     18  C   UNL     1      35.832 -20.745 -19.808  0.00  0.00    +0.281 C 
BRANCH  18  19
ATOM     19  C   UNL     1      36.283 -21.253 -18.514  0.00  0.00    -0.044 C 
ATOM     20  C   UNL     1      36.654 -21.668 -17.449  0.00  0.00    -0.086 C 
ATOM     21  C   UNL     1      37.104 -22.175 -16.153  0.00  0.00    +0.090 C 
ENDBRANCH  18  19
ENDBRANCH  17  18
ENDBRANCH  16  17
ENDBRANCH   8  11
ENDBRANCH   6   8
ENDBRANCH   1   6
BRANCH   1  22
ATOM     22  C   UNL     1      34.518 -13.033 -22.910  0.00  0.00    +0.056 C 
BRANCH  22  24
ATOM     23  N   UNL     1      31.556 -12.724 -20.796  0.00  0.00    -0.312 N 
ATOM     24  C   UNL     1      33.321 -12.638 -22.139  0.00  0.00    -0.004 C 
ATOM     25  C   UNL     1      32.731 -11.343 -22.096  0.00  0.00    +0.010 C 
ATOM     26  C   UNL     1      31.626 -11.426 -21.246  0.00  0.00    +0.048 C 
ATOM     27  C   UNL     1      32.577 -13.464 -21.330  0.00  0.00    +0.058 C 
ATOM     28  C   UNL     1      33.031 -10.107 -22.701  0.00  0.00    -0.003 C 
ATOM     29  C   UNL     1      30.802 -10.329 -20.970  0.00  0.00    +0.014 C 
ATOM     30  C   UNL     1      32.216  -9.001 -22.434  0.00  0.00    -0.022 C 
ATOM     31  C   UNL     1      31.120  -9.112 -21.581  0.00  0.00    -0.003 C 
ATOM     32  C   UNL     1      32.529  -7.687 -23.070  0.00  0.00    +0.031 C 
ATOM     33  H   UNL     1      30.872 -13.071 -20.178  0.00  0.00    +0.152 HD
ENDBRANCH  22  24
ENDBRANCH   1  22
TORSDOF 10
ENDMDL
MODEL 4
REMARK VINA RESULT:     -10.5      3.286     10.829
REMARK  Name = 42627769
REMARK  10 active torsions:
REMARK  status: ('A' for Active; 'I' for Inactive)
REMARK    1  A    between atoms: C_1  and  C_3
REMARK    2  A    between atoms: C_1  and  N_6
REMARK    3  A    between atoms: C_1  and  C_22
REMARK    4  A    between atoms: C_3  and  O_4
REMARK    5  A    between atoms: N_6  and  S_8
REMARK    6  A    between atoms: S_8  and  C_11
REMARK    7  A    between atoms: C_16  and  O_17
REMARK    8  A    between atoms: O_17  and  C_18
REMARK    9  A    between atoms: C_18  and  C_19
REMARK   10  A    between atoms: C_22  and  C_24
REMARK                            x       y       z     vdW  Elec       q    Type
REMARK                         _______ _______ _______ _____ _____    ______ ____
ROOT
ATOM      1  C   UNL     1      34.691 -16.279 -21.169  0.00  0.00    +0.178 C 
ENDROOT
BRANCH   1   3
ATOM      2  O   UNL     1      33.267 -15.046 -19.627  0.00  0.00    -0.249 OA
ATOM      3  C   UNL     1      34.301 -15.122 -20.277  0.00  0.00    +0.330 C 
BRANCH   3   4
ATOM      4  O   UNL     1      35.249 -14.148 -20.269  0.00  0.00    -0.479 OA
ATOM      5  H   UNL     1      35.177 -13.419 -20.854  0.00  0.00    +0.295 HD
ENDBRANCH   3   4
ENDBRANCH   1   3
BRANCH   1   6
ATOM      6  N   UNL     1      35.504 -17.205 -20.346  0.00  0.00    -0.170 NA
ATOM      7  H   UNL     1      36.287 -16.665 -19.979  0.00  0.00    +0.149 HD
BRANCH   6   8
ATOM      8  S   UNL     1      36.160 -18.606 -21.048  0.00  0.00    +0.061 S 
ATOM      9  O   UNL     1      37.556 -18.726 -20.673  0.00  0.00    -0.153 OA
ATOM     10  O   UNL     1      35.772 -18.654 -22.445  0.00  0.00    -0.153 OA
BRANCH   8  11
ATOM     11  C   UNL     1      35.262 -19.883 -20.220  0.00  0.00    +0.122 C 
ATOM     12  C   UNL     1      33.869 -19.906 -20.279  0.00  0.00    +0.023 C 
ATOM     13  C   UNL     1      35.946 -20.866 -19.504  0.00  0.00    +0.023 C 
ATOM     14  C   UNL     1      33.159 -20.913 -19.624  0.00  0.00    +0.038 C 
ATOM     15  C   UNL     1      35.236 -21.872 -18.849  0.00  0.00    +0.038 C 
ATOM     16  C   UNL     1      33.843 -21.896 -18.909  0.00  0.00    +0.140 C 
BRANCH  16  17
ATOM     17  O   UNL     1      33.151 -22.877 -18.269  0.00  0.00    -0.461 OA
BRANCH  17  18
ATOM     18  C   UNL     1      33.493 -23.133 -16.908  0.00  0.00    +0.281 C 
BRANCH  18  19
ATOM     19  C   UNL     1      32.288 -23.096 -16.081  0.00  0.00    -0.044 C 
ATOM     20  C   UNL     1      31.300 -23.066 -15.398  0.00  0.00    -0.086 C 
ATOM     21  C   UNL     1      30.096 -23.028 -14.569  0.00  0.00    +0.090 C 
ENDBRANCH  18  19
ENDBRANCH  17  18
ENDBRANCH  16  17
ENDBRANCH   8  11
ENDBRANCH   6   8
ENDBRANCH   1   6
BRANCH   1  22
ATOM     22  C   UNL     1      35.517 -15.815 -22.388  0.00  0.00    +0.056 C 
BRANCH  22  24
ATOM     23  N   UNL     1      33.518 -15.652 -25.440  0.00  0.00    -0.312 N 
ATOM     24  C   UNL     1      34.699 -15.471 -23.569  0.00  0.00    -0.004 C 
ATOM     25  C   UNL     1      34.251 -14.172 -23.939  0.00  0.00    +0.010 C 
ATOM     26  C   UNL     1      33.513 -14.314 -25.116  0.00  0.00    +0.048 C 
ATOM     27  C   UNL     1      34.232 -16.360 -24.510  0.00  0.00    +0.058 C 
ATOM     28  C   UNL     1      34.404 -12.886 -23.385  0.00  0.00    -0.003 C 
ATOM     29  C   UNL     1      32.918 -13.230 -25.770  0.00  0.00    +0.014 C 
ATOM     30  C   UNL     1      33.814 -11.792 -24.028  0.00  0.00    -0.022 C 
ATOM     31  C   UNL     1      33.082 -11.963 -25.201  0.00  0.00    -0.003 C 
ATOM     32  C   UNL     1      33.971 -10.426 -23.446  0.00  0.00    +0.031 C 
ATOM     33  H   UNL     1      33.073 -16.045 -26.225  0.00  0.00    +0.152 HD
ENDBRANCH  22  24
ENDBRANCH   1  22
TORSDOF 10
ENDMDL
MODEL 5
REMARK VINA RESULT:     -10.4      2.061      4.349
REMARK  Name = 42627769
REMARK  10 active torsions:
REMARK  status: ('A' for Active; 'I' for Inactive)
REMARK    1  A    between atoms: C_1  and  C_3
REMARK    2  A    between atoms: C_1  and  N_6
REMARK    3  A    between atoms: C_1  and  C_22
REMARK    4  A    between atoms: C_3  and  O_4
REMARK    5  A    between atoms: N_6  and  S_8
REMARK    6  A    between atoms: S_8  and  C_11
REMARK    7  A    between atoms: C_16  and  O_17
REMARK    8  A    between atoms: O_17  and  C_18
REMARK    9  A    between atoms: C_18  and  C_19
REMARK   10  A    between atoms: C_22  and  C_24
REMARK                            x       y       z     vdW  Elec       q    Type
REMARK                         _______ _______ _______ _____ _____    ______ ____
ROOT
ATOM      1  C   UNL     1      31.836 -22.766 -16.067  0.00  0.00    +0.178 C 
ENDROOT
BRANCH   1   3
ATOM      2  O   UNL     1      29.523 -22.299 -16.666  0.00  0.00    -0.249 OA
ATOM      3  C   UNL     1      30.343 -23.003 -16.092  0.00  0.00    +0.330 C 
BRANCH   3   4
ATOM      4  O   UNL     1      29.996 -24.115 -15.392  0.00  0.00    -0.479 OA
ATOM      5  H   UNL     1      29.142 -24.183 -15.012  0.00  0.00    +0.295 HD
ENDBRANCH   3   4
ENDBRANCH   1   3
BRANCH   1   6
ATOM      6  N   UNL     1      32.243 -22.427 -17.451  0.00  0.00    -0.170 NA
ATOM      7  H   UNL     1      31.602 -22.915 -18.076  0.00  0.00    +0.149 HD
BRANCH   6   8
ATOM      8  S   UNL     1      33.815 -22.787 -17.982  0.00  0.00    +0.061 S 
ATOM      9  O   UNL     1      33.801 -24.031 -18.728  0.00  0.00    -0.153 OA
ATOM     10  O   UNL     1      34.735 -22.611 -16.874  0.00  0.00    -0.153 OA
BRANCH   8  11
ATOM     11  C   UNL     1      34.125 -21.473 -19.122  0.00  0.00    +0.122 C 
ATOM     12  C   UNL     1      33.058 -20.801 -19.718  0.00  0.00    +0.023 C 
ATOM     13  C   UNL     1      35.437 -21.109 -19.429  0.00  0.00    +0.023 C 
ATOM     14  C   UNL     1      33.302 -19.765 -20.620  0.00  0.00    +0.038 C 
ATOM     15  C   UNL     1      35.680 -20.073 -20.330  0.00  0.00    +0.038 C 
ATOM     16  C   UNL     1      34.613 -19.401 -20.926  0.00  0.00    +0.140 C 
BRANCH  16  17
ATOM     17  O   UNL     1      34.851 -18.391 -21.806  0.00  0.00    -0.461 OA
BRANCH  17  18
ATOM     18  C   UNL     1      34.738 -18.699 -23.195  0.00  0.00    +0.281 C 
BRANCH  18  19
ATOM     19  C   UNL     1      34.421 -17.485 -23.945  0.00  0.00    -0.044 C 
ATOM     20  C   UNL     1      34.158 -16.489 -24.563  0.00  0.00    -0.086 C 
ATOM     21  C   UNL     1      33.839 -15.276 -25.313  0.00  0.00    +0.090 C 
ENDBRANCH  18  19
ENDBRANCH  17  18
ENDBRANCH  16  17
ENDBRANCH   8  11
ENDBRANCH   6   8
ENDBRANCH   1   6
BRANCH   1  22
ATOM     22  C   UNL     1      32.611 -24.015 -15.596  0.00  0.00    +0.056 C 
BRANCH  22  24
ATOM     23  N   UNL     1      33.523 -23.304 -12.132  0.00  0.00    -0.312 N 
ATOM     24  C   UNL     1      33.215 -23.873 -14.255  0.00  0.00    -0.004 C 
ATOM     25  C   UNL     1      34.470 -24.395 -13.833  0.00  0.00    +0.010 C 
ATOM     26  C   UNL     1      34.639 -24.023 -12.497  0.00  0.00    +0.048 C 
ATOM     27  C   UNL     1      32.657 -23.208 -13.188  0.00  0.00    +0.058 C 
ATOM     28  C   UNL     1      35.481 -25.148 -14.460  0.00  0.00    -0.003 C 
ATOM     29  C   UNL     1      35.773 -24.369 -11.755  0.00  0.00    +0.014 C 
ATOM     30  C   UNL     1      36.622 -25.501 -13.730  0.00  0.00    -0.022 C 
ATOM     31  C   UNL     1      36.763 -25.118 -12.398  0.00  0.00    -0.003 C 
ATOM     32  C   UNL     1      37.697 -26.302 -14.388  0.00  0.00    +0.031 C 
ATOM     33  H   UNL     1      33.370 -22.915 -11.241  0.00  0.00    +0.152 HD
ENDBRANCH  22  24
ENDBRANCH   1  22
TORSDOF 10
ENDMDL
MODEL 6
REMARK VINA RESULT:     -10.2      3.082      5.726
REMARK  Name = 42627769
REMARK  10 active torsions:
REMARK  status: ('A' for Active; 'I' for Inactive)
REMARK    1  A    between atoms: C_1  and  C_3
REMARK    2  A    between atoms: C_1  and  N_6
REMARK    3  A    between atoms: C_1  and  C_22
REMARK    4  A    between atoms: C_3  and  O_4
REMARK    5  A    between atoms: N_6  and  S_8
REMARK    6  A    between atoms: S_8  and  C_11
REMARK    7  A    between atoms: C_16  and  O_17
REMARK    8  A    between atoms: O_17  and  C_18
REMARK    9  A    between atoms: C_18  and  C_19
REMARK   10  A    between atoms: C_22  and  C_24
REMARK                            x       y       z     vdW  Elec       q    Type
REMARK                         _______ _______ _______ _____ _____    ______ ____
ROOT
ATOM      1  C   UNL     1      34.466 -20.085 -20.057  0.00  0.00    +0.178 C 
ENDROOT
BRANCH   1   3
ATOM      2  O   UNL     1      32.214 -20.552 -19.256  0.00  0.00    -0.249 OA
ATOM      3  C   UNL     1      32.960 -20.182 -20.154  0.00  0.00    +0.330 C 
BRANCH   3   4
ATOM      4  O   UNL     1      32.506 -19.800 -21.377  0.00  0.00    -0.479 OA
ATOM      5  H   UNL     1      33.065 -19.865 -22.126  0.00  0.00    +0.295 HD
ENDBRANCH   3   4
ENDBRANCH   1   3
BRANCH   1   6
ATOM      6  N   UNL     1      34.942 -19.475 -21.321  0.00  0.00    -0.170 NA
ATOM      7  H   UNL     1      35.290 -20.236 -21.904  0.00  0.00    +0.149 HD
BRANCH   6   8
ATOM      8  S   UNL     1      36.159 -18.291 -21.282  0.00  0.00    +0.061 S 
ATOM      9  O   UNL     1      37.218 -18.655 -22.203  0.00  0.00    -0.153 OA
ATOM     10  O   UNL     1      36.469 -17.985 -19.898  0.00  0.00    -0.153 OA
BRANCH   8  11
ATOM     11  C   UNL     1      35.320 -16.884 -21.945  0.00  0.00    +0.122 C 
ATOM     12  C   UNL     1      34.989 -15.815 -21.114  0.00  0.00    +0.023 C 
ATOM     13  C   UNL     1      34.986 -16.845 -23.299  0.00  0.00    +0.023 C 
ATOM     14  C   UNL     1      34.324 -14.705 -21.636  0.00  0.00    +0.038 C 
ATOM     15  C   UNL     1      34.321 -15.735 -23.821  0.00  0.00    +0.038 C 
ATOM     16  C   UNL     1      33.991 -14.665 -22.990  0.00  0.00    +0.140 C 
BRANCH  16  17
ATOM     17  O   UNL     1      33.342 -13.583 -23.499  0.00  0.00    -0.461 OA
BRANCH  17  18
ATOM     18  C   UNL     1      33.579 -12.326 -22.867  0.00  0.00    +0.281 C 
BRANCH  18  19
ATOM     19  C   UNL     1      34.281 -11.435 -23.788  0.00  0.00    -0.044 C 
ATOM     20  C   UNL     1      34.855 -10.702 -24.547  0.00  0.00    -0.086 C 
ATOM     21  C   UNL     1      35.555  -9.810 -25.470  0.00  0.00    +0.090 C 
ENDBRANCH  18  19
ENDBRANCH  17  18
ENDBRANCH  16  17
ENDBRANCH   8  11
ENDBRANCH   6   8
ENDBRANCH   1   6
BRANCH   1  22
ATOM     22  C   UNL     1      35.123 -21.470 -19.875  0.00  0.00    +0.056 C 
BRANCH  22  24
ATOM     23  N   UNL     1      36.945 -21.841 -16.732  0.00  0.00    -0.312 N 
ATOM     24  C   UNL     1      35.615 -21.723 -18.505  0.00  0.00    -0.004 C 
ATOM     25  C   UNL     1      34.866 -22.265 -17.423  0.00  0.00    +0.010 C 
ATOM     26  C   UNL     1      35.725 -22.328 -16.323  0.00  0.00    +0.048 C 
ATOM     27  C   UNL     1      36.889 -21.472 -18.050  0.00  0.00    +0.058 C 
ATOM     28  C   UNL     1      33.538 -22.710 -17.274  0.00  0.00    -0.003 C 
ATOM     29  C   UNL     1      35.319 -22.817 -15.076  0.00  0.00    +0.014 C 
ATOM     30  C   UNL     1      33.118 -23.200 -16.032  0.00  0.00    -0.022 C 
ATOM     31  C   UNL     1      33.996 -23.251 -14.952  0.00  0.00    -0.003 C 
ATOM     32  C   UNL     1      31.712 -23.672 -15.866  0.00  0.00    +0.031 C 
ATOM     33  H   UNL     1      37.744 -21.767 -16.161  0.00  0.00    +0.152 HD
ENDBRANCH  22  24
ENDBRANCH   1  22
TORSDOF 10
ENDMDL
MODEL 7
REMARK VINA RESULT:     -10.1      6.367     13.764
REMARK  Name = 42627769
REMARK  10 active torsions:
REMARK  status: ('A' for Active; 'I' for Inactive)
REMARK    1  A    between atoms: C_1  and  C_3
REMARK    2  A    between atoms: C_1  and  N_6
REMARK    3  A    between atoms: C_1  and  C_22
REMARK    4  A    between atoms: C_3  and  O_4
REMARK    5  A    between atoms: N_6  and  S_8
REMARK    6  A    between atoms: S_8  and  C_11
REMARK    7  A    between atoms: C_16  and  O_17
REMARK    8  A    between atoms: O_17  and  C_18
REMARK    9  A    between atoms: C_18  and  C_19
REMARK   10  A    between atoms: C_22  and  C_24
REMARK                            x       y       z     vdW  Elec       q    Type
REMARK                         _______ _______ _______ _____ _____    ______ ____
ROOT
ATOM      1  C   UNL     1      34.271 -10.709 -23.443  0.00  0.00    +0.178 C 
ENDROOT
BRANCH   1   3
ATOM      2  O   UNL     1      35.623 -10.032 -25.352  0.00  0.00    -0.249 OA
ATOM      3  C   UNL     1      34.691 -10.681 -24.895  0.00  0.00    +0.330 C 
BRANCH   3   4
ATOM      4  O   UNL     1      33.905 -11.480 -25.665  0.00  0.00    -0.479 OA
ATOM      5  H   UNL     1      32.972 -11.424 -25.598  0.00  0.00    +0.295 HD
ENDBRANCH   3   4
ENDBRANCH   1   3
BRANCH   1   6
ATOM      6  N   UNL     1      34.565 -12.070 -22.934  0.00  0.00    -0.170 NA
ATOM      7  H   UNL     1      35.319 -12.444 -23.508  0.00  0.00    +0.149 HD
BRANCH   6   8
ATOM      8  S   UNL     1      33.339 -13.245 -22.908  0.00  0.00    +0.061 S 
ATOM      9  O   UNL     1      33.019 -13.640 -24.266  0.00  0.00    -0.153 OA
ATOM     10  O   UNL     1      32.288 -12.804 -22.010  0.00  0.00    -0.153 OA
BRANCH   8  11
ATOM     11  C   UNL     1      34.152 -14.603 -22.123  0.00  0.00    +0.122 C 
ATOM     12  C   UNL     1      34.657 -15.652 -22.891  0.00  0.00    +0.023 C 
ATOM     13  C   UNL     1      34.287 -14.628 -20.734  0.00  0.00    +0.023 C 
ATOM     14  C   UNL     1      35.297 -16.725 -22.272  0.00  0.00    +0.038 C 
ATOM     15  C   UNL     1      34.927 -15.702 -20.115  0.00  0.00    +0.038 C 
ATOM     16  C   UNL     1      35.432 -16.750 -20.884  0.00  0.00    +0.140 C 
BRANCH  16  17
ATOM     17  O   UNL     1      36.056 -17.798 -20.280  0.00  0.00    -0.461 OA
BRANCH  17  18
ATOM     18  C   UNL     1      35.983 -19.063 -20.935  0.00  0.00    +0.281 C 
BRANCH  18  19
ATOM     19  C   UNL     1      34.942 -19.881 -20.315  0.00  0.00    -0.044 C 
ATOM     20  C   UNL     1      34.086 -20.554 -19.808  0.00  0.00    -0.086 C 
ATOM     21  C   UNL     1      33.046 -21.374 -19.190  0.00  0.00    +0.090 C 
ENDBRANCH  18  19
ENDBRANCH  17  18
ENDBRANCH  16  17
ENDBRANCH   8  11
ENDBRANCH   6   8
ENDBRANCH   1   6
BRANCH   1  22
ATOM     22  C   UNL     1      32.767 -10.410 -23.271  0.00  0.00    +0.056 C 
BRANCH  22  24
ATOM     23  N   UNL     1      31.827  -8.352 -20.405  0.00  0.00    -0.312 N 
ATOM     24  C   UNL     1      32.477  -9.362 -22.272  0.00  0.00    -0.004 C 
ATOM     25  C   UNL     1      32.698  -7.964 -22.422  0.00  0.00    +0.010 C 
ATOM     26  C   UNL     1      32.282  -7.354 -21.236  0.00  0.00    +0.048 C 
ATOM     27  C   UNL     1      31.941  -9.569 -21.022  0.00  0.00    +0.058 C 
ATOM     28  C   UNL     1      33.212  -7.157 -23.455  0.00  0.00    -0.003 C 
ATOM     29  C   UNL     1      32.354  -5.972 -21.032  0.00  0.00    +0.014 C 
ATOM     30  C   UNL     1      33.292  -5.772 -23.265  0.00  0.00    -0.022 C 
ATOM     31  C   UNL     1      32.869  -5.191 -22.072  0.00  0.00    -0.003 C 
ATOM     32  C   UNL     1      33.838  -4.911 -24.356  0.00  0.00    +0.031 C 
ATOM     33  H   UNL     1      31.471  -8.212 -19.497  0.00  0.00    +0.152 HD
ENDBRANCH  22  24
ENDBRANCH   1  22
TORSDOF 10
ENDMDL
MODEL 8
REMARK VINA RESULT:     -10.1      3.647     10.814
REMARK  Name = 42627769
REMARK  10 active torsions:
REMARK  status: ('A' for Active; 'I' for Inactive)
REMARK    1  A    between atoms: C_1  and  C_3
REMARK    2  A    between atoms: C_1  and  N_6
REMARK    3  A    between atoms: C_1  and  C_22
REMARK    4  A    between atoms: C_3  and  O_4
REMARK    5  A    between atoms: N_6  and  S_8
REMARK    6  A    between atoms: S_8  and  C_11
REMARK    7  A    between atoms: C_16  and  O_17
REMARK    8  A    between atoms: O_17  and  C_18
REMARK    9  A    between atoms: C_18  and  C_19
REMARK   10  A    between atoms: C_22  and  C_24
REMARK                            x       y       z     vdW  Elec       q    Type
REMARK                         _______ _______ _______ _____ _____    ______ ____
ROOT
ATOM      1  C   UNL     1      34.707 -16.234 -21.158  0.00  0.00    +0.178 C 
ENDROOT
BRANCH   1   3
ATOM      2  O   UNL     1      35.215 -14.071 -20.162  0.00  0.00    -0.249 OA
ATOM      3  C   UNL     1      34.455 -15.022 -20.289  0.00  0.00    +0.330 C 
BRANCH   3   4
ATOM      4  O   UNL     1      33.259 -15.099 -19.648  0.00  0.00    -0.479 OA
ATOM      5  H   UNL     1      32.591 -14.467 -19.825  0.00  0.00    +0.295 HD
ENDBRANCH   3   4
ENDBRANCH   1   3
BRANCH   1   6
ATOM      6  N   UNL     1      35.469 -17.204 -20.338  0.00  0.00    -0.170 NA
ATOM      7  H   UNL     1      36.239 -16.691 -19.911  0.00  0.00    +0.149 HD
BRANCH   6   8
ATOM      8  S   UNL     1      36.142 -18.582 -21.067  0.00  0.00    +0.061 S 
ATOM      9  O   UNL     1      37.543 -18.687 -20.702  0.00  0.00    -0.153 OA
ATOM     10  O   UNL     1      35.748 -18.613 -22.463  0.00  0.00    -0.153 OA
BRANCH   8  11
ATOM     11  C   UNL     1      35.270 -19.888 -20.255  0.00  0.00    +0.122 C 
ATOM     12  C   UNL     1      33.876 -19.910 -20.274  0.00  0.00    +0.023 C 
ATOM     13  C   UNL     1      35.975 -20.893 -19.594  0.00  0.00    +0.023 C 
ATOM     14  C   UNL     1      33.186 -20.939 -19.631  0.00  0.00    +0.038 C 
ATOM     15  C   UNL     1      35.286 -21.922 -18.952  0.00  0.00    +0.038 C 
ATOM     16  C   UNL     1      33.891 -21.945 -18.971  0.00  0.00    +0.140 C 
BRANCH  16  17
ATOM     17  O   UNL     1      33.218 -22.947 -18.344  0.00  0.00    -0.461 OA
BRANCH  17  18
ATOM     18  C   UNL     1      32.748 -22.687 -17.022  0.00  0.00    +0.281 C 
BRANCH  18  19
ATOM     19  C   UNL     1      33.705 -23.208 -16.047  0.00  0.00    -0.044 C 
ATOM     20  C   UNL     1      34.493 -23.636 -15.248  0.00  0.00    -0.086 C 
ATOM     21  C   UNL     1      35.452 -24.157 -14.275  0.00  0.00    +0.090 C 
ENDBRANCH  18  19
ENDBRANCH  17  18
ENDBRANCH  16  17
ENDBRANCH   8  11
ENDBRANCH   6   8
ENDBRANCH   1   6
BRANCH   1  22
ATOM     22  C   UNL     1      35.520 -15.879 -22.421  0.00  0.00    +0.056 C 
BRANCH  22  24
ATOM     23  N   UNL     1      33.473 -15.660 -25.437  0.00  0.00    -0.312 N 
ATOM     24  C   UNL     1      34.688 -15.513 -23.585  0.00  0.00    -0.004 C 
ATOM     25  C   UNL     1      34.255 -14.204 -23.938  0.00  0.00    +0.010 C 
ATOM     26  C   UNL     1      33.494 -14.325 -25.104  0.00  0.00    +0.048 C 
ATOM     27  C   UNL     1      34.191 -16.386 -24.525  0.00  0.00    +0.058 C 
ATOM     28  C   UNL     1      34.438 -12.925 -23.378  0.00  0.00    -0.003 C 
ATOM     29  C   UNL     1      32.906 -13.226 -25.739  0.00  0.00    +0.014 C 
ATOM     30  C   UNL     1      33.855 -11.816 -24.002  0.00  0.00    -0.022 C 
ATOM     31  C   UNL     1      33.100 -11.967 -25.164  0.00  0.00    -0.003 C 
ATOM     32  C   UNL     1      34.043 -10.457 -23.413  0.00  0.00    +0.031 C 
ATOM     33  H   UNL     1      33.008 -16.039 -26.218  0.00  0.00    +0.152 HD
ENDBRANCH  22  24
ENDBRANCH   1  22
TORSDOF 10
ENDMDL
MODEL 9
REMARK VINA RESULT:      -9.9      5.307     12.637
REMARK  Name = 42627769
REMARK  10 active torsions:
REMARK  status: ('A' for Active; 'I' for Inactive)
REMARK    1  A    between atoms: C_1  and  C_3
REMARK    2  A    between atoms: C_1  and  N_6
REMARK    3  A    between atoms: C_1  and  C_22
REMARK    4  A    between atoms: C_3  and  O_4
REMARK    5  A    between atoms: N_6  and  S_8
REMARK    6  A    between atoms: S_8  and  C_11
REMARK    7  A    between atoms: C_16  and  O_17
REMARK    8  A    between atoms: O_17  and  C_18
REMARK    9  A    between atoms: C_18  and  C_19
REMARK   10  A    between atoms: C_22  and  C_24
REMARK                            x       y       z     vdW  Elec       q    Type
REMARK                         _______ _______ _______ _____ _____    ______ ____
ROOT
ATOM      1  C   UNL     1      33.658 -13.626 -24.450  0.00  0.00    +0.178 C 
ENDROOT
BRANCH   1   3
ATOM      2  O   UNL     1      33.830 -13.057 -26.811  0.00  0.00    -0.249 OA
ATOM      3  C   UNL     1      33.137 -13.305 -25.833  0.00  0.00    +0.330 C 
BRANCH   3   4
ATOM      4  O   UNL     1      31.779 -13.327 -25.880  0.00  0.00    -0.479 OA
ATOM      5  H   UNL     1      31.281 -12.799 -25.288  0.00  0.00    +0.295 HD
ENDBRANCH   3   4
ENDBRANCH   1   3
BRANCH   1   6
ATOM      6  N   UNL     1      33.221 -15.006 -24.132  0.00  0.00    -0.170 NA
ATOM      7  H   UNL     1      33.262 -15.104 -23.119  0.00  0.00    +0.149 HD
BRANCH   6   8
ATOM      8  S   UNL     1      34.060 -16.330 -24.787  0.00  0.00    +0.061 S 
ATOM      9  O   UNL     1      35.243 -15.858 -25.480  0.00  0.00    -0.153 OA
ATOM     10  O   UNL     1      33.112 -17.194 -25.466  0.00  0.00    -0.153 OA
BRANCH   8  11
ATOM     11  C   UNL     1      34.585 -17.184 -23.332  0.00  0.00    +0.122 C 
ATOM     12  C   UNL     1      35.104 -16.469 -22.253  0.00  0.00    +0.023 C 
ATOM     13  C   UNL     1      34.484 -18.574 -23.263  0.00  0.00    +0.023 C 
ATOM     14  C   UNL     1      35.521 -17.142 -21.105  0.00  0.00    +0.038 C 
ATOM     15  C   UNL     1      34.901 -19.247 -22.115  0.00  0.00    +0.038 C 
ATOM     16  C   UNL     1      35.419 -18.532 -21.036  0.00  0.00    +0.140 C 
BRANCH  16  17
ATOM     17  O   UNL     1      35.827 -19.189 -19.917  0.00  0.00    -0.461 OA
BRANCH  17  18
ATOM     18  C   UNL     1      36.029 -20.597 -20.026  0.00  0.00    +0.281 C 
BRANCH  18  19
ATOM     19  C   UNL     1      35.037 -21.302 -19.216  0.00  0.00    -0.044 C 
ATOM     20  C   UNL     1      34.220 -21.881 -18.552  0.00  0.00    -0.086 C 
ATOM     21  C   UNL     1      33.227 -22.587 -17.744  0.00  0.00    +0.090 C 
ENDBRANCH  18  19
ENDBRANCH  17  18
ENDBRANCH  16  17
ENDBRANCH   8  11
ENDBRANCH   6   8
ENDBRANCH   1   6
BRANCH   1  22
ATOM     22  C   UNL     1      33.105 -12.654 -23.386  0.00  0.00    +0.056 C 
BRANCH  22  24
ATOM     23  N   UNL     1      34.703  -9.491 -24.264  0.00  0.00    -0.312 N 
ATOM     24  C   UNL     1      33.606 -11.271 -23.521  0.00  0.00    -0.004 C 
ATOM     25  C   UNL     1      33.262 -10.162 -22.698  0.00  0.00    +0.010 C 
ATOM     26  C   UNL     1      33.965  -9.058 -23.186  0.00  0.00    +0.048 C 
ATOM     27  C   UNL     1      34.492 -10.827 -24.475  0.00  0.00    +0.058 C 
ATOM     28  C   UNL     1      32.421  -9.992 -21.582  0.00  0.00    -0.003 C 
ATOM     29  C   UNL     1      33.867  -7.786 -22.610  0.00  0.00    +0.014 C 
ATOM     30  C   UNL     1      32.313  -8.725 -20.996  0.00  0.00    -0.022 C 
ATOM     31  C   UNL     1      33.025  -7.641 -21.504  0.00  0.00    -0.003 C 
ATOM     32  C   UNL     1      31.421  -8.537 -19.813  0.00  0.00    +0.031 C 
ATOM     33  H   UNL     1      35.297  -8.922 -24.806  0.00  0.00    +0.152 HD
ENDBRANCH  22  24
ENDBRANCH   1  22
TORSDOF 10
ENDMDL
