MODEL 1
REMARK VINA RESULT:     -11.6      0.000      0.000
REMARK  Name = 8969
REMARK  3 active torsions:
REMARK  status: ('A' for Active; 'I' for Inactive)
REMARK    1  A    between atoms: C_7  and  C_27
REMARK    2  A    between atoms: C_10  and  O_24
REMARK    3  A    between atoms: C_27  and  O_28
REMARK                            x       y       z     vdW  Elec       q    Type
REMARK                         _______ _______ _______ _____ _____    ______ ____
ROOT
ATOM      1  N   UNL     1      34.112 -23.079 -15.821  0.00  0.00    +0.392 N 
ATOM      2  N   UNL     1      32.957 -21.633 -19.074  0.00  0.00    -0.358 N 
ATOM      3  C   UNL     1      31.286 -23.718 -15.401  0.00  0.00    +0.009 C 
ATOM      4  C   UNL     1      32.331 -23.762 -14.265  0.00  0.00    -0.020 C 
ATOM      5  C   UNL     1      31.753 -22.722 -16.479  0.00  0.00    -0.015 C 
ATOM      6  C   UNL     1      33.166 -23.079 -16.971  0.00  0.00    -0.019 C 
ATOM      7  C   UNL     1      29.897 -23.371 -14.829  0.00  0.00    +0.126 C 
ATOM      8  C   UNL     1      33.728 -24.082 -14.820  0.00  0.00    -0.077 C 
ATOM      9  C   UNL     1      31.921 -24.760 -13.175  0.00  0.00    +0.000 C 
ATOM     10  C   UNL     1      29.478 -24.359 -13.727  0.00  0.00    +0.121 C 
ATOM     11  C   UNL     1      30.532 -24.433 -12.621  0.00  0.00    +0.030 C 
ATOM     12  C   UNL     1      33.667 -22.132 -18.019  0.00  0.00    +0.010 A 
ATOM     13  C   UNL     1      35.512 -23.261 -16.261  0.00  0.00    -0.072 C 
ATOM     14  C   UNL     1      34.964 -21.675 -18.115  0.00  0.00    -0.013 A 
ATOM     15  C   UNL     1      35.993 -22.061 -17.111  0.00  0.00    +0.005 C 
ATOM     16  C   UNL     1      35.043 -20.835 -19.258  0.00  0.00    +0.013 A 
ATOM     17  C   UNL     1      33.771 -20.826 -19.841  0.00  0.00    +0.056 A 
ATOM     18  C   UNL     1      36.070 -20.083 -19.861  0.00  0.00    +0.001 C 
ATOM     19  C   UNL     1      33.479 -20.098 -21.001  0.00  0.00    +0.017 C 
ATOM     20  C   UNL     1      35.791 -19.349 -21.020  0.00  0.00    +0.000 C 
ATOM     21  C   UNL     1      34.515 -19.358 -21.579  0.00  0.00    +0.001 C 
ATOM     22  H   UNL     1      34.056 -22.161 -15.380  0.00  0.00    -0.079 HD
ATOM     23  H   UNL     1      32.008 -21.820 -19.259  0.00  0.00    +0.166 HD
ENDROOT
BRANCH  10  24
ATOM     24  O   UNL     1      29.309 -25.662 -14.288  0.00  0.00    -0.384 OA
ATOM     25  H   UNL     1      29.608 -26.330 -13.651  0.00  0.00    +0.210 HD
ENDBRANCH  10  24
BRANCH   7  27
ATOM     26  O   UNL     1      28.535 -24.354 -16.558  0.00  0.00    -0.250 OA
ATOM     27  C   UNL     1      28.847 -23.369 -15.902  0.00  0.00    +0.319 C 
BRANCH  27  28
ATOM     28  O   UNL     1      28.315 -22.119 -16.017  0.00  0.00    -0.444 OA
ATOM     29  C   UNL     1      26.886 -22.059 -16.052  0.00  0.00    +0.256 C 
ENDBRANCH  27  28
ENDBRANCH   7  27
TORSDOF 3
ENDMDL
MODEL 2
REMARK VINA RESULT:      -8.7     12.416     15.667
REMARK  Name = 8969
REMARK  3 active torsions:
REMARK  status: ('A' for Active; 'I' for Inactive)
REMARK    1  A    between atoms: C_7  and  C_27
REMARK    2  A    between atoms: C_10  and  O_24
REMARK    3  A    between atoms: C_27  and  O_28
REMARK                            x       y       z     vdW  Elec       q    Type
REMARK                         _______ _______ _______ _____ _____    ______ ____
ROOT
ATOM      1  N   UNL     1      31.707  -8.265 -20.896  0.00  0.00    +0.392 N 
ATOM      2  N   UNL     1      32.935  -6.683 -24.058  0.00  0.00    -0.358 N 
ATOM      3  C   UNL     1      32.856 -10.726 -21.990  0.00  0.00    +0.009 C 
ATOM      4  C   UNL     1      31.877 -10.719 -20.796  0.00  0.00    -0.020 C 
ATOM      5  C   UNL     1      32.603  -9.479 -22.858  0.00  0.00    -0.015 C 
ATOM      6  C   UNL     1      32.694  -8.200 -22.009  0.00  0.00    -0.019 C 
ATOM      7  C   UNL     1      32.717 -12.042 -22.780  0.00  0.00    +0.126 C 
ATOM      8  C   UNL     1      31.983  -9.403 -20.009  0.00  0.00    -0.077 C 
ATOM      9  C   UNL     1      32.104 -11.932 -19.887  0.00  0.00    +0.000 C 
ATOM     10  C   UNL     1      32.933 -13.269 -21.877  0.00  0.00    +0.121 C 
ATOM     11  C   UNL     1      31.991 -13.242 -20.673  0.00  0.00    +0.030 C 
ATOM     12  C   UNL     1      32.450  -6.958 -22.810  0.00  0.00    +0.010 A 
ATOM     13  C   UNL     1      31.642  -6.994 -20.142  0.00  0.00    -0.072 C 
ATOM     14  C   UNL     1      31.744  -5.859 -22.368  0.00  0.00    -0.013 A 
ATOM     15  C   UNL     1      31.101  -5.846 -21.026  0.00  0.00    +0.005 C 
ATOM     16  C   UNL     1      31.772  -4.883 -23.400  0.00  0.00    +0.013 A 
ATOM     17  C   UNL     1      32.525  -5.425 -24.448  0.00  0.00    +0.056 A 
ATOM     18  C   UNL     1      31.236  -3.589 -23.550  0.00  0.00    +0.001 C 
ATOM     19  C   UNL     1      32.767  -4.730 -25.639  0.00  0.00    +0.017 C 
ATOM     20  C   UNL     1      31.469  -2.885 -24.737  0.00  0.00    +0.000 C 
ATOM     21  C   UNL     1      32.223  -3.448 -25.764  0.00  0.00    +0.001 C 
ATOM     22  H   UNL     1      30.788  -8.411 -21.313  0.00  0.00    -0.079 HD
ATOM     23  H   UNL     1      33.493  -7.289 -24.596  0.00  0.00    +0.166 HD
ENDROOT
BRANCH  10  24
ATOM     24  O   UNL     1      34.282 -13.286 -21.405  0.00  0.00    -0.384 OA
ATOM     25  H   UNL     1      34.604 -12.376 -21.313  0.00  0.00    +0.210 HD
ENDBRANCH  10  24
BRANCH   7  27
ATOM     26  O   UNL     1      34.706 -11.422 -23.992  0.00  0.00    -0.250 OA
ATOM     27  C   UNL     1      33.691 -12.103 -23.921  0.00  0.00    +0.319 C 
BRANCH  27  28
ATOM     28  O   UNL     1      33.265 -13.018 -24.837  0.00  0.00    -0.444 OA
ATOM     29  C   UNL     1      33.390 -12.622 -26.206  0.00  0.00    +0.256 C 
ENDBRANCH  27  28
ENDBRANCH   7  27
TORSDOF 3
ENDMDL
