MODEL 1
REMARK VINA RESULT:     -11.9      0.000      0.000
REMARK  Name = 491941
REMARK  5 active torsions:
REMARK  status: ('A' for Active; 'I' for Inactive)
REMARK    1  A    between atoms: C_5  and  C_17
REMARK    2  A    between atoms: C_7  and  S_11
REMARK    3  A    between atoms: S_11  and  N_14
REMARK    4  A    between atoms: C_17  and  C_18
REMARK    5  A    between atoms: C_21  and  C_25
REMARK                            x       y       z     vdW  Elec       q    Type
REMARK                         _______ _______ _______ _____ _____    ______ ____
ROOT
ATOM      1  S   UNL     1      34.591 -24.477 -13.287  0.00  0.00    -0.035 S 
ATOM      2  O   UNL     1      35.799 -22.481 -17.019  0.00  0.00    -0.274 OA
ATOM      3  N   UNL     1      34.127 -23.178 -15.516  0.00  0.00    -0.227 N 
ATOM      4  N   UNL     1      36.089 -22.599 -14.242  0.00  0.00    -0.386 NA
ATOM      5  C   UNL     1      34.622 -22.762 -16.776  0.00  0.00    +0.236 C 
ATOM      6  C   UNL     1      35.029 -23.296 -14.415  0.00  0.00    +0.217 C 
ATOM      7  C   UNL     1      35.995 -24.042 -12.404  0.00  0.00    +0.247 C 
ATOM      8  C   UNL     1      36.662 -23.031 -13.063  0.00  0.00    +0.123 C 
ATOM      9  C   UNL     1      32.703 -23.493 -15.316  0.00  0.00    +0.123 C 
ATOM     10  C   UNL     1      37.914 -22.387 -12.617  0.00  0.00    +0.064 C 
ENDROOT
BRANCH   7  11
ATOM     11  S   UNL     1      36.262 -24.937 -10.920  0.00  0.00    +0.052 S 
ATOM     12  O   UNL     1      37.282 -24.200 -10.180  0.00  0.00    -0.157 OA
ATOM     13  O   UNL     1      34.935 -25.136 -10.348  0.00  0.00    -0.157 OA
BRANCH  11  14
ATOM     14  N   UNL     1      36.916 -26.478 -11.311  0.00  0.00    -0.206 NA
ATOM     15  H   UNL     1      36.156 -27.144 -11.452  0.00  0.00    +0.144 HD
ATOM     16  H   UNL     1      37.512 -26.798 -10.548  0.00  0.00    +0.144 HD
ENDBRANCH  11  14
ENDBRANCH   7  11
BRANCH   5  17
ATOM     17  C   UNL     1      33.598 -22.702 -17.918  0.00  0.00    +0.112 C 
BRANCH  17  18
ATOM     18  C   UNL     1      33.864 -21.628 -18.916  0.00  0.00    -0.013 C 
ATOM     19  C   UNL     1      35.169 -21.380 -19.344  0.00  0.00    -0.004 C 
ATOM     20  C   UNL     1      32.808 -20.870 -19.424  0.00  0.00    -0.004 C 
ATOM     21  C   UNL     1      34.363 -19.617 -20.785  0.00  0.00    +0.018 C 
ATOM     22  C   UNL     1      35.418 -20.374 -20.278  0.00  0.00    +0.001 C 
ATOM     23  C   UNL     1      33.058 -19.864 -20.358  0.00  0.00    +0.001 C 
BRANCH  21  25
ATOM     24  N   UNL     1      35.162 -17.447 -21.245  0.00  0.00    -0.244 NA
ATOM     25  C   UNL     1      34.620 -18.574 -21.754  0.00  0.00    +0.081 C 
ATOM     26  C   UNL     1      34.320 -18.759 -23.092  0.00  0.00    +0.019 C 
ATOM     27  C   UNL     1      34.594 -17.715 -23.969  0.00  0.00    +0.003 C 
ATOM     28  C   UNL     1      35.414 -16.453 -22.127  0.00  0.00    +0.099 C 
ATOM     29  C   UNL     1      35.152 -16.536 -23.485  0.00  0.00    +0.021 C 
ENDBRANCH  21  25
ENDBRANCH  17  18
ENDBRANCH   5  17
TORSDOF 5
ENDMDL
MODEL 2
REMARK VINA RESULT:     -10.9      8.947     13.583
REMARK  Name = 491941
REMARK  5 active torsions:
REMARK  status: ('A' for Active; 'I' for Inactive)
REMARK    1  A    between atoms: C_5  and  C_17
REMARK    2  A    between atoms: C_7  and  S_11
REMARK    3  A    between atoms: S_11  and  N_14
REMARK    4  A    between atoms: C_17  and  C_18
REMARK    5  A    between atoms: C_21  and  C_25
REMARK                            x       y       z     vdW  Elec       q    Type
REMARK                         _______ _______ _______ _____ _____    ______ ____
ROOT
ATOM      1  S   UNL     1      32.995  -8.560 -23.255  0.00  0.00    -0.035 S 
ATOM      2  O   UNL     1      32.323 -12.787 -22.225  0.00  0.00    -0.274 OA
ATOM      3  N   UNL     1      33.629 -11.104 -23.226  0.00  0.00    -0.227 N 
ATOM      4  N   UNL     1      32.563 -10.169 -21.277  0.00  0.00    -0.386 NA
ATOM      5  C   UNL     1      33.195 -12.437 -23.026  0.00  0.00    +0.236 C 
ATOM      6  C   UNL     1      33.037 -10.053 -22.461  0.00  0.00    +0.217 C 
ATOM      7  C   UNL     1      32.237  -7.925 -21.855  0.00  0.00    +0.247 C 
ATOM      8  C   UNL     1      32.091  -8.923 -20.914  0.00  0.00    +0.123 C 
ATOM      9  C   UNL     1      34.679 -10.777 -24.205  0.00  0.00    +0.123 C 
ATOM     10  C   UNL     1      31.484  -8.768 -19.577  0.00  0.00    +0.064 C 
ENDROOT
BRANCH   7  11
ATOM     11  S   UNL     1      31.834  -6.221 -21.922  0.00  0.00    +0.052 S 
ATOM     12  O   UNL     1      30.376  -6.148 -21.912  0.00  0.00    -0.157 OA
ATOM     13  O   UNL     1      32.612  -5.600 -20.855  0.00  0.00    -0.157 OA
BRANCH  11  14
ATOM     14  N   UNL     1      32.375  -5.581 -23.424  0.00  0.00    -0.206 NA
ATOM     15  H   UNL     1      32.635  -4.603 -23.303  0.00  0.00    +0.144 HD
ATOM     16  H   UNL     1      31.626  -5.652 -24.113  0.00  0.00    +0.144 HD
ENDBRANCH  11  14
ENDBRANCH   7  11
BRANCH   5  17
ATOM     17  C   UNL     1      33.850 -13.502 -23.915  0.00  0.00    +0.112 C 
BRANCH  17  18
ATOM     18  C   UNL     1      34.265 -14.732 -23.183  0.00  0.00    -0.013 C 
ATOM     19  C   UNL     1      34.553 -14.670 -21.819  0.00  0.00    -0.004 C 
ATOM     20  C   UNL     1      34.366 -15.947 -23.862  0.00  0.00    -0.004 C 
ATOM     21  C   UNL     1      35.043 -17.035 -21.814  0.00  0.00    +0.018 C 
ATOM     22  C   UNL     1      34.941 -15.821 -21.135  0.00  0.00    +0.001 C 
ATOM     23  C   UNL     1      34.756 -17.099 -23.178  0.00  0.00    +0.001 C 
BRANCH  21  25
ATOM     24  N   UNL     1      36.757 -18.285 -20.783  0.00  0.00    -0.244 NA
ATOM     25  C   UNL     1      35.447 -18.230 -21.105  0.00  0.00    +0.081 C 
ATOM     26  C   UNL     1      34.527 -19.217 -20.798  0.00  0.00    +0.019 C 
ATOM     27  C   UNL     1      34.983 -20.339 -20.114  0.00  0.00    +0.003 C 
ATOM     28  C   UNL     1      37.164 -19.390 -20.119  0.00  0.00    +0.099 C 
ATOM     29  C   UNL     1      36.326 -20.434 -19.764  0.00  0.00    +0.021 C 
ENDBRANCH  21  25
ENDBRANCH  17  18
ENDBRANCH   5  17
TORSDOF 5
ENDMDL
MODEL 3
REMARK VINA RESULT:     -10.8      2.383      3.357
REMARK  Name = 491941
REMARK  5 active torsions:
REMARK  status: ('A' for Active; 'I' for Inactive)
REMARK    1  A    between atoms: C_5  and  C_17
REMARK    2  A    between atoms: C_7  and  S_11
REMARK    3  A    between atoms: S_11  and  N_14
REMARK    4  A    between atoms: C_17  and  C_18
REMARK    5  A    between atoms: C_21  and  C_25
REMARK                            x       y       z     vdW  Elec       q    Type
REMARK                         _______ _______ _______ _____ _____    ______ ____
ROOT
ATOM      1  S   UNL     1      34.851 -22.779 -14.681  0.00  0.00    -0.035 S 
ATOM      2  O   UNL     1      34.003 -21.426 -18.783  0.00  0.00    -0.274 OA
ATOM      3  N   UNL     1      35.499 -22.255 -17.167  0.00  0.00    -0.227 N 
ATOM      4  N   UNL     1      33.322 -23.190 -16.726  0.00  0.00    -0.386 NA
ATOM      5  C   UNL     1      35.154 -21.601 -18.375  0.00  0.00    +0.236 C 
ATOM      6  C   UNL     1      34.463 -22.766 -16.327  0.00  0.00    +0.217 C 
ATOM      7  C   UNL     1      33.296 -23.442 -14.400  0.00  0.00    +0.247 C 
ATOM      8  C   UNL     1      32.631 -23.590 -15.599  0.00  0.00    +0.123 C 
ATOM      9  C   UNL     1      36.904 -22.421 -16.757  0.00  0.00    +0.123 C 
ATOM     10  C   UNL     1      31.267 -24.130 -15.771  0.00  0.00    +0.064 C 
ENDROOT
BRANCH   7  11
ATOM     11  S   UNL     1      32.909 -23.777 -12.723  0.00  0.00    +0.052 S 
ATOM     12  O   UNL     1      34.187 -23.878 -12.024  0.00  0.00    -0.157 OA
ATOM     13  O   UNL     1      31.939 -22.757 -12.342  0.00  0.00    -0.157 OA
BRANCH  11  14
ATOM     14  N   UNL     1      32.141 -25.313 -12.626  0.00  0.00    -0.206 NA
ATOM     15  H   UNL     1      31.977 -25.549 -11.649  0.00  0.00    +0.144 HD
ATOM     16  H   UNL     1      32.741 -26.020 -13.052  0.00  0.00    +0.144 HD
ENDBRANCH  11  14
ENDBRANCH   7  11
BRANCH   5  17
ATOM     17  C   UNL     1      36.322 -21.044 -19.199  0.00  0.00    +0.112 C 
BRANCH  17  18
ATOM     18  C   UNL     1      35.922 -20.010 -20.197  0.00  0.00    -0.013 C 
ATOM     19  C   UNL     1      36.829 -19.020 -20.577  0.00  0.00    -0.004 C 
ATOM     20  C   UNL     1      34.642 -20.033 -20.750  0.00  0.00    -0.004 C 
ATOM     21  C   UNL     1      35.175 -18.076 -22.063  0.00  0.00    +0.018 C 
ATOM     22  C   UNL     1      36.456 -18.054 -21.510  0.00  0.00    +0.001 C 
ATOM     23  C   UNL     1      34.268 -19.065 -21.683  0.00  0.00    +0.001 C 
BRANCH  21  25
ATOM     24  N   UNL     1      34.931 -15.797 -22.616  0.00  0.00    -0.244 NA
ATOM     25  C   UNL     1      34.787 -17.073 -23.031  0.00  0.00    +0.081 C 
ATOM     26  C   UNL     1      34.310 -17.438 -24.278  0.00  0.00    +0.019 C 
ATOM     27  C   UNL     1      33.956 -16.422 -25.159  0.00  0.00    +0.003 C 
ATOM     28  C   UNL     1      34.576 -14.836 -23.499  0.00  0.00    +0.099 C 
ATOM     29  C   UNL     1      34.089 -15.094 -24.770  0.00  0.00    +0.021 C 
ENDBRANCH  21  25
ENDBRANCH  17  18
ENDBRANCH   5  17
TORSDOF 5
ENDMDL
MODEL 4
REMARK VINA RESULT:     -10.3      6.071     11.034
REMARK  Name = 491941
REMARK  5 active torsions:
REMARK  status: ('A' for Active; 'I' for Inactive)
REMARK    1  A    between atoms: C_5  and  C_17
REMARK    2  A    between atoms: C_7  and  S_11
REMARK    3  A    between atoms: S_11  and  N_14
REMARK    4  A    between atoms: C_17  and  C_18
REMARK    5  A    between atoms: C_21  and  C_25
REMARK                            x       y       z     vdW  Elec       q    Type
REMARK                         _______ _______ _______ _____ _____    ______ ____
ROOT
ATOM      1  S   UNL     1      34.266 -16.463 -24.349  0.00  0.00    -0.035 S 
ATOM      2  O   UNL     1      34.833 -17.895 -20.225  0.00  0.00    -0.274 OA
ATOM      3  N   UNL     1      35.249 -18.080 -22.535  0.00  0.00    -0.227 N 
ATOM      4  N   UNL     1      35.048 -15.741 -21.992  0.00  0.00    -0.386 NA
ATOM      5  C   UNL     1      35.176 -18.563 -21.205  0.00  0.00    +0.236 C 
ATOM      6  C   UNL     1      34.906 -16.720 -22.805  0.00  0.00    +0.217 C 
ATOM      7  C   UNL     1      34.135 -14.805 -23.932  0.00  0.00    +0.247 C 
ATOM      8  C   UNL     1      34.597 -14.612 -22.647  0.00  0.00    +0.123 C 
ATOM      9  C   UNL     1      35.670 -18.950 -23.645  0.00  0.00    +0.123 C 
ATOM     10  C   UNL     1      34.648 -13.321 -21.931  0.00  0.00    +0.064 C 
ENDROOT
BRANCH   7  11
ATOM     11  S   UNL     1      33.474 -13.763 -25.177  0.00  0.00    +0.052 S 
ATOM     12  O   UNL     1      32.079 -14.160 -25.340  0.00  0.00    -0.157 OA
ATOM     13  O   UNL     1      33.813 -12.406 -24.763  0.00  0.00    -0.157 OA
BRANCH  11  14
ATOM     14  N   UNL     1      34.283 -14.089 -26.660  0.00  0.00    -0.206 NA
ATOM     15  H   UNL     1      33.776 -13.649 -27.427  0.00  0.00    +0.144 HD
ATOM     16  H   UNL     1      34.322 -15.097 -26.811  0.00  0.00    +0.144 HD
ENDBRANCH  11  14
ENDBRANCH   7  11
BRANCH   5  17
ATOM     17  C   UNL     1      35.518 -20.045 -21.004  0.00  0.00    +0.112 C 
BRANCH  17  18
ATOM     18  C   UNL     1      34.727 -20.711 -19.931  0.00  0.00    -0.013 C 
ATOM     19  C   UNL     1      35.375 -21.464 -18.951  0.00  0.00    -0.004 C 
ATOM     20  C   UNL     1      33.338 -20.582 -19.907  0.00  0.00    -0.004 C 
ATOM     21  C   UNL     1      33.245 -21.959 -17.923  0.00  0.00    +0.018 C 
ATOM     22  C   UNL     1      34.634 -22.087 -17.947  0.00  0.00    +0.001 C 
ATOM     23  C   UNL     1      32.597 -21.206 -18.902  0.00  0.00    +0.001 C 
BRANCH  21  25
ATOM     24  N   UNL     1      31.140 -22.444 -16.980  0.00  0.00    -0.244 NA
ATOM     25  C   UNL     1      32.476 -22.605 -16.882  0.00  0.00    +0.081 C 
ATOM     26  C   UNL     1      33.103 -23.325 -15.880  0.00  0.00    +0.019 C 
ATOM     27  C   UNL     1      32.303 -23.921 -14.912  0.00  0.00    +0.003 C 
ATOM     28  C   UNL     1      30.393 -23.036 -16.020  0.00  0.00    +0.099 C 
ATOM     29  C   UNL     1      30.921 -23.779 -14.976  0.00  0.00    +0.021 C 
ENDBRANCH  21  25
ENDBRANCH  17  18
ENDBRANCH   5  17
TORSDOF 5
ENDMDL
MODEL 5
REMARK VINA RESULT:     -10.2      5.762     11.008
REMARK  Name = 491941
REMARK  5 active torsions:
REMARK  status: ('A' for Active; 'I' for Inactive)
REMARK    1  A    between atoms: C_5  and  C_17
REMARK    2  A    between atoms: C_7  and  S_11
REMARK    3  A    between atoms: S_11  and  N_14
REMARK    4  A    between atoms: C_17  and  C_18
REMARK    5  A    between atoms: C_21  and  C_25
REMARK                            x       y       z     vdW  Elec       q    Type
REMARK                         _______ _______ _______ _____ _____    ______ ____
ROOT
ATOM      1  S   UNL     1      33.977 -15.414 -23.781  0.00  0.00    -0.035 S 
ATOM      2  O   UNL     1      34.758 -17.833 -20.187  0.00  0.00    -0.274 OA
ATOM      3  N   UNL     1      34.909 -17.511 -22.514  0.00  0.00    -0.227 N 
ATOM      4  N   UNL     1      35.084 -15.359 -21.445  0.00  0.00    -0.386 NA
ATOM      5  C   UNL     1      34.907 -18.284 -21.326  0.00  0.00    +0.236 C 
ATOM      6  C   UNL     1      34.729 -16.098 -22.429  0.00  0.00    +0.217 C 
ATOM      7  C   UNL     1      34.115 -13.898 -22.994  0.00  0.00    +0.247 C 
ATOM      8  C   UNL     1      34.727 -14.065 -21.769  0.00  0.00    +0.123 C 
ATOM      9  C   UNL     1      35.094 -18.135 -23.835  0.00  0.00    +0.123 C 
ATOM     10  C   UNL     1      35.024 -12.993 -20.798  0.00  0.00    +0.064 C 
ENDROOT
BRANCH   7  11
ATOM     11  S   UNL     1      33.480 -12.526 -23.881  0.00  0.00    +0.052 S 
ATOM     12  O   UNL     1      33.159 -13.020 -25.217  0.00  0.00    -0.157 OA
ATOM     13  O   UNL     1      32.435 -11.968 -23.029  0.00  0.00    -0.157 OA
BRANCH  11  14
ATOM     14  N   UNL     1      34.723 -11.349 -24.048  0.00  0.00    -0.206 NA
ATOM     15  H   UNL     1      34.470 -10.511 -23.524  0.00  0.00    +0.144 HD
ATOM     16  H   UNL     1      34.837 -11.113 -25.034  0.00  0.00    +0.144 HD
ENDBRANCH  11  14
ENDBRANCH   7  11
BRANCH   5  17
ATOM     17  C   UNL     1      35.063 -19.799 -21.505  0.00  0.00    +0.112 C 
BRANCH  17  18
ATOM     18  C   UNL     1      34.864 -20.582 -20.253  0.00  0.00    -0.013 C 
ATOM     19  C   UNL     1      33.574 -20.905 -19.829  0.00  0.00    -0.004 C 
ATOM     20  C   UNL     1      35.967 -20.994 -19.504  0.00  0.00    -0.004 C 
ATOM     21  C   UNL     1      34.490 -22.048 -17.908  0.00  0.00    +0.018 C 
ATOM     22  C   UNL     1      33.387 -21.638 -18.657  0.00  0.00    +0.001 C 
ATOM     23  C   UNL     1      35.780 -21.726 -18.332  0.00  0.00    +0.001 C 
BRANCH  21  25
ATOM     24  N   UNL     1      35.436 -23.173 -16.064  0.00  0.00    -0.244 NA
ATOM     25  C   UNL     1      34.298 -22.809 -16.693  0.00  0.00    +0.081 C 
ATOM     26  C   UNL     1      33.026 -23.116 -16.243  0.00  0.00    +0.019 C 
ATOM     27  C   UNL     1      32.914 -23.850 -15.066  0.00  0.00    +0.003 C 
ATOM     28  C   UNL     1      35.288 -23.885 -14.924  0.00  0.00    +0.099 C 
ATOM     29  C   UNL     1      34.062 -24.245 -14.388  0.00  0.00    +0.021 C 
ENDBRANCH  21  25
ENDBRANCH  17  18
ENDBRANCH   5  17
TORSDOF 5
ENDMDL
MODEL 6
REMARK VINA RESULT:      -9.9      3.559      6.183
REMARK  Name = 491941
REMARK  5 active torsions:
REMARK  status: ('A' for Active; 'I' for Inactive)
REMARK    1  A    between atoms: C_5  and  C_17
REMARK    2  A    between atoms: C_7  and  S_11
REMARK    3  A    between atoms: S_11  and  N_14
REMARK    4  A    between atoms: C_17  and  C_18
REMARK    5  A    between atoms: C_21  and  C_25
REMARK                            x       y       z     vdW  Elec       q    Type
REMARK                         _______ _______ _______ _____ _____    ______ ____
ROOT
ATOM      1  S   UNL     1      34.097 -21.624 -19.482  0.00  0.00    -0.035 S 
ATOM      2  O   UNL     1      37.646 -19.307 -20.669  0.00  0.00    -0.274 OA
ATOM      3  N   UNL     1      35.311 -19.599 -20.620  0.00  0.00    -0.227 N 
ATOM      4  N   UNL     1      36.221 -20.469 -18.565  0.00  0.00    -0.386 NA
ATOM      5  C   UNL     1      36.524 -19.067 -21.123  0.00  0.00    +0.236 C 
ATOM      6  C   UNL     1      35.347 -20.485 -19.501  0.00  0.00    +0.217 C 
ATOM      7  C   UNL     1      34.769 -22.221 -18.022  0.00  0.00    +0.247 C 
ATOM      8  C   UNL     1      35.888 -21.485 -17.692  0.00  0.00    +0.123 C 
ATOM      9  C   UNL     1      34.013 -19.257 -21.225  0.00  0.00    +0.123 C 
ATOM     10  C   UNL     1      36.740 -21.693 -16.504  0.00  0.00    +0.064 C 
ENDROOT
BRANCH   7  11
ATOM     11  S   UNL     1      33.922 -23.574 -17.298  0.00  0.00    +0.052 S 
ATOM     12  O   UNL     1      33.654 -24.513 -18.383  0.00  0.00    -0.157 OA
ATOM     13  O   UNL     1      34.740 -23.975 -16.159  0.00  0.00    -0.157 OA
BRANCH  11  14
ATOM     14  N   UNL     1      32.405 -23.024 -16.702  0.00  0.00    -0.206 NA
ATOM     15  H   UNL     1      31.807 -22.762 -17.485  0.00  0.00    +0.144 HD
ATOM     16  H   UNL     1      32.550 -22.215 -16.098  0.00  0.00    +0.144 HD
ENDBRANCH  11  14
ENDBRANCH   7  11
BRANCH   5  17
ATOM     17  C   UNL     1      36.405 -18.157 -22.353  0.00  0.00    +0.112 C 
BRANCH  17  18
ATOM     18  C   UNL     1      35.614 -16.916 -22.116  0.00  0.00    -0.013 C 
ATOM     19  C   UNL     1      35.392 -16.468 -20.813  0.00  0.00    -0.004 C 
ATOM     20  C   UNL     1      35.095 -16.203 -23.196  0.00  0.00    -0.004 C 
ATOM     21  C   UNL     1      34.133 -14.594 -21.672  0.00  0.00    +0.018 C 
ATOM     22  C   UNL     1      34.652 -15.307 -20.591  0.00  0.00    +0.001 C 
ATOM     23  C   UNL     1      34.354 -15.041 -22.974  0.00  0.00    +0.001 C 
BRANCH  21  25
ATOM     24  N   UNL     1      33.435 -12.474 -22.432  0.00  0.00    -0.244 NA
ATOM     25  C   UNL     1      33.365 -13.389 -21.442  0.00  0.00    +0.081 C 
ATOM     26  C   UNL     1      32.627 -13.228 -20.283  0.00  0.00    +0.019 C 
ATOM     27  C   UNL     1      31.913 -12.045 -20.128  0.00  0.00    +0.003 C 
ATOM     28  C   UNL     1      32.728 -11.336 -22.247  0.00  0.00    +0.099 C 
ATOM     29  C   UNL     1      31.958 -11.076 -21.125  0.00  0.00    +0.021 C 
ENDBRANCH  21  25
ENDBRANCH  17  18
ENDBRANCH   5  17
TORSDOF 5
ENDMDL
MODEL 7
REMARK VINA RESULT:      -9.8      3.074      4.200
REMARK  Name = 491941
REMARK  5 active torsions:
REMARK  status: ('A' for Active; 'I' for Inactive)
REMARK    1  A    between atoms: C_5  and  C_17
REMARK    2  A    between atoms: C_7  and  S_11
REMARK    3  A    between atoms: S_11  and  N_14
REMARK    4  A    between atoms: C_17  and  C_18
REMARK    5  A    between atoms: C_21  and  C_25
REMARK                            x       y       z     vdW  Elec       q    Type
REMARK                         _______ _______ _______ _____ _____    ______ ____
ROOT
ATOM      1  S   UNL     1      33.008 -23.587 -14.774  0.00  0.00    -0.035 S 
ATOM      2  O   UNL     1      32.869 -21.273 -18.515  0.00  0.00    -0.274 OA
ATOM      3  N   UNL     1      33.946 -22.810 -17.095  0.00  0.00    -0.227 N 
ATOM      4  N   UNL     1      31.566 -23.115 -16.867  0.00  0.00    -0.386 NA
ATOM      5  C   UNL     1      33.889 -21.861 -18.145  0.00  0.00    +0.236 C 
ATOM      6  C   UNL     1      32.752 -23.139 -16.384  0.00  0.00    +0.217 C 
ATOM      7  C   UNL     1      31.312 -23.794 -14.643  0.00  0.00    +0.247 C 
ATOM      8  C   UNL     1      30.715 -23.500 -15.851  0.00  0.00    +0.123 C 
ATOM      9  C   UNL     1      35.210 -23.466 -16.721  0.00  0.00    +0.123 C 
ATOM     10  C   UNL     1      29.267 -23.561 -16.138  0.00  0.00    +0.064 C 
ENDROOT
BRANCH   7  11
ATOM     11  S   UNL     1      30.733 -24.316 -13.073  0.00  0.00    +0.052 S 
ATOM     12  O   UNL     1      31.792 -25.146 -12.505  0.00  0.00    -0.157 OA
ATOM     13  O   UNL     1      30.307 -23.097 -12.396  0.00  0.00    -0.157 OA
BRANCH  11  14
ATOM     14  N   UNL     1      29.352 -25.318 -13.295  0.00  0.00    -0.206 NA
ATOM     15  H   UNL     1      29.126 -25.784 -12.418  0.00  0.00    +0.144 HD
ATOM     16  H   UNL     1      29.552 -26.017 -14.011  0.00  0.00    +0.144 HD
ENDBRANCH  11  14
ENDBRANCH   7  11
BRANCH   5  17
ATOM     17  C   UNL     1      35.221 -21.531 -18.831  0.00  0.00    +0.112 C 
BRANCH  17  18
ATOM     18  C   UNL     1      35.117 -20.486 -19.888  0.00  0.00    -0.013 C 
ATOM     19  C   UNL     1      33.915 -20.302 -20.573  0.00  0.00    -0.004 C 
ATOM     20  C   UNL     1      36.221 -19.690 -20.194  0.00  0.00    -0.004 C 
ATOM     21  C   UNL     1      34.922 -18.529 -21.868  0.00  0.00    +0.018 C 
ATOM     22  C   UNL     1      33.817 -19.324 -21.562  0.00  0.00    +0.001 C 
ATOM     23  C   UNL     1      36.124 -18.712 -21.184  0.00  0.00    +0.001 C 
BRANCH  21  25
ATOM     24  N   UNL     1      34.267 -17.931 -24.052  0.00  0.00    -0.244 NA
ATOM     25  C   UNL     1      34.822 -17.514 -22.894  0.00  0.00    +0.081 C 
ATOM     26  C   UNL     1      35.271 -16.226 -22.664  0.00  0.00    +0.019 C 
ATOM     27  C   UNL     1      35.143 -15.301 -23.694  0.00  0.00    +0.003 C 
ATOM     28  C   UNL     1      34.159 -17.004 -25.032  0.00  0.00    +0.099 C 
ATOM     29  C   UNL     1      34.577 -15.689 -24.904  0.00  0.00    +0.021 C 
ENDBRANCH  21  25
ENDBRANCH  17  18
ENDBRANCH   5  17
TORSDOF 5
ENDMDL
MODEL 8
REMARK VINA RESULT:      -9.7      1.840      2.637
REMARK  Name = 491941
REMARK  5 active torsions:
REMARK  status: ('A' for Active; 'I' for Inactive)
REMARK    1  A    between atoms: C_5  and  C_17
REMARK    2  A    between atoms: C_7  and  S_11
REMARK    3  A    between atoms: S_11  and  N_14
REMARK    4  A    between atoms: C_17  and  C_18
REMARK    5  A    between atoms: C_21  and  C_25
REMARK                            x       y       z     vdW  Elec       q    Type
REMARK                         _______ _______ _______ _____ _____    ______ ____
ROOT
ATOM      1  S   UNL     1      34.244 -23.702 -15.149  0.00  0.00    -0.035 S 
ATOM      2  O   UNL     1      37.163 -21.994 -17.967  0.00  0.00    -0.274 OA
ATOM      3  N   UNL     1      34.937 -22.391 -17.311  0.00  0.00    -0.227 N 
ATOM      4  N   UNL     1      36.268 -22.101 -15.322  0.00  0.00    -0.386 NA
ATOM      5  C   UNL     1      35.962 -22.082 -18.239  0.00  0.00    +0.236 C 
ATOM      6  C   UNL     1      35.279 -22.627 -15.945  0.00  0.00    +0.217 C 
ATOM      7  C   UNL     1      35.211 -23.475 -13.751  0.00  0.00    +0.247 C 
ATOM      8  C   UNL     1      36.234 -22.595 -14.033  0.00  0.00    +0.123 C 
ATOM      9  C   UNL     1      33.527 -22.474 -17.724  0.00  0.00    +0.123 C 
ATOM     10  C   UNL     1      37.275 -22.146 -13.086  0.00  0.00    +0.064 C 
ENDROOT
BRANCH   7  11
ATOM     11  S   UNL     1      34.707 -24.371 -12.331  0.00  0.00    +0.052 S 
ATOM     12  O   UNL     1      35.618 -25.507 -12.224  0.00  0.00    -0.157 OA
ATOM     13  O   UNL     1      34.630 -23.383 -11.261  0.00  0.00    -0.157 OA
BRANCH  11  14
ATOM     14  N   UNL     1      33.127 -24.996 -12.601  0.00  0.00    -0.206 NA
ATOM     15  H   UNL     1      33.072 -25.946 -12.237  0.00  0.00    +0.144 HD
ATOM     16  H   UNL     1      32.931 -25.001 -13.602  0.00  0.00    +0.144 HD
ENDBRANCH  11  14
ENDBRANCH   7  11
BRANCH   5  17
ATOM     17  C   UNL     1      35.518 -21.885 -19.694  0.00  0.00    +0.112 C 
BRANCH  17  18
ATOM     18  C   UNL     1      35.374 -20.457 -20.097  0.00  0.00    -0.013 C 
ATOM     19  C   UNL     1      34.103 -19.903 -20.260  0.00  0.00    -0.004 C 
ATOM     20  C   UNL     1      36.508 -19.675 -20.312  0.00  0.00    -0.004 C 
ATOM     21  C   UNL     1      35.102 -17.785 -20.852  0.00  0.00    +0.018 C 
ATOM     22  C   UNL     1      33.967 -18.568 -20.637  0.00  0.00    +0.001 C 
ATOM     23  C   UNL     1      36.372 -18.338 -20.689  0.00  0.00    +0.001 C 
BRANCH  21  25
ATOM     24  N   UNL     1      35.058 -16.171 -22.570  0.00  0.00    -0.244 NA
ATOM     25  C   UNL     1      34.962 -16.399 -21.243  0.00  0.00    +0.081 C 
ATOM     26  C   UNL     1      34.746 -15.414 -20.296  0.00  0.00    +0.019 C 
ATOM     27  C   UNL     1      34.621 -14.102 -20.742  0.00  0.00    +0.003 C 
ATOM     28  C   UNL     1      34.931 -14.884 -22.967  0.00  0.00    +0.099 C 
ATOM     29  C   UNL     1      34.714 -13.824 -22.102  0.00  0.00    +0.021 C 
ENDBRANCH  21  25
ENDBRANCH  17  18
ENDBRANCH   5  17
TORSDOF 5
ENDMDL
MODEL 9
REMARK VINA RESULT:      -9.6      1.641      2.387
REMARK  Name = 491941
REMARK  5 active torsions:
REMARK  status: ('A' for Active; 'I' for Inactive)
REMARK    1  A    between atoms: C_5  and  C_17
REMARK    2  A    between atoms: C_7  and  S_11
REMARK    3  A    between atoms: S_11  and  N_14
REMARK    4  A    between atoms: C_17  and  C_18
REMARK    5  A    between atoms: C_21  and  C_25
REMARK                            x       y       z     vdW  Elec       q    Type
REMARK                         _______ _______ _______ _____ _____    ______ ____
ROOT
ATOM      1  S   UNL     1      34.308 -23.859 -14.890  0.00  0.00    -0.035 S 
ATOM      2  O   UNL     1      37.089 -22.134 -17.834  0.00  0.00    -0.274 OA
ATOM      3  N   UNL     1      34.897 -22.561 -17.090  0.00  0.00    -0.227 N 
ATOM      4  N   UNL     1      36.295 -22.226 -15.156  0.00  0.00    -0.386 NA
ATOM      5  C   UNL     1      35.881 -22.245 -18.060  0.00  0.00    +0.236 C 
ATOM      6  C   UNL     1      35.294 -22.775 -15.736  0.00  0.00    +0.217 C 
ATOM      7  C   UNL     1      35.321 -23.600 -13.532  0.00  0.00    +0.247 C 
ATOM      8  C   UNL     1      36.318 -22.705 -13.862  0.00  0.00    +0.123 C 
ATOM      9  C   UNL     1      33.474 -22.673 -17.450  0.00  0.00    +0.123 C 
ATOM     10  C   UNL     1      37.385 -22.229 -12.959  0.00  0.00    +0.064 C 
ENDROOT
BRANCH   7  11
ATOM     11  S   UNL     1      34.886 -24.488 -12.085  0.00  0.00    +0.052 S 
ATOM     12  O   UNL     1      33.494 -24.890 -12.259  0.00  0.00    -0.157 OA
ATOM     13  O   UNL     1      35.930 -25.493 -11.923  0.00  0.00    -0.157 OA
BRANCH  11  14
ATOM     14  N   UNL     1      34.954 -23.420 -10.738  0.00  0.00    -0.206 NA
ATOM     15  H   UNL     1      34.567 -22.515 -11.002  0.00  0.00    +0.144 HD
ATOM     16  H   UNL     1      35.924 -23.304 -10.445  0.00  0.00    +0.144 HD
ENDBRANCH  11  14
ENDBRANCH   7  11
BRANCH   5  17
ATOM     17  C   UNL     1      35.380 -22.072 -19.500  0.00  0.00    +0.112 C 
BRANCH  17  18
ATOM     18  C   UNL     1      35.280 -20.652 -19.941  0.00  0.00    -0.013 C 
ATOM     19  C   UNL     1      34.037 -20.110 -20.271  0.00  0.00    -0.004 C 
ATOM     20  C   UNL     1      36.429 -19.865 -20.025  0.00  0.00    -0.004 C 
ATOM     21  C   UNL     1      35.092 -17.995 -20.769  0.00  0.00    +0.018 C 
ATOM     22  C   UNL     1      33.944 -18.781 -20.684  0.00  0.00    +0.001 C 
ATOM     23  C   UNL     1      36.335 -18.536 -20.439  0.00  0.00    +0.001 C 
BRANCH  21  25
ATOM     24  N   UNL     1      34.844 -15.720 -20.199  0.00  0.00    -0.244 NA
ATOM     25  C   UNL     1      34.996 -16.616 -21.197  0.00  0.00    +0.081 C 
ATOM     26  C   UNL     1      35.060 -16.284 -22.539  0.00  0.00    +0.019 C 
ATOM     27  C   UNL     1      34.961 -14.940 -22.880  0.00  0.00    +0.003 C 
ATOM     28  C   UNL     1      34.751 -14.422 -20.568  0.00  0.00    +0.099 C 
ATOM     29  C   UNL     1      34.804 -13.985 -21.881  0.00  0.00    +0.021 C 
ENDBRANCH  21  25
ENDBRANCH  17  18
ENDBRANCH   5  17
TORSDOF 5
ENDMDL
