MODEL 1
REMARK VINA RESULT:     -12.3      0.000      0.000
REMARK  Name = 23586146
REMARK  5 active torsions:
REMARK  status: ('A' for Active; 'I' for Inactive)
REMARK    1  A    between atoms: N_1  and  C_12
REMARK    2  A    between atoms: C_8  and  N_18
REMARK    3  A    between atoms: N_18  and  C_20
REMARK    4  A    between atoms: C_23  and  S_26
REMARK    5  A    between atoms: S_26  and  N_29
REMARK                            x       y       z     vdW  Elec       q    Type
REMARK                         _______ _______ _______ _____ _____    ______ ____
ROOT
ATOM      1  N   UNL     1      35.530 -24.146 -13.934  0.00  0.00    -0.309 N 
ATOM      2  N   UNL     1      33.270 -23.746 -13.913  0.00  0.00    -0.321 NA
ATOM      3  N   UNL     1      32.180 -23.148 -15.969  0.00  0.00    -0.106 N 
ATOM      4  N   UNL     1      30.926 -22.840 -16.396  0.00  0.00    -0.139 NA
ATOM      5  N   UNL     1      30.906 -23.275 -14.161  0.00  0.00    -0.145 NA
ATOM      6  C   UNL     1      34.399 -23.818 -14.578  0.00  0.00    +0.196 C 
ATOM      7  C   UNL     1      34.493 -23.544 -16.055  0.00  0.00    +0.081 C 
ATOM      8  C   UNL     1      33.366 -23.215 -16.704  0.00  0.00    +0.140 C 
ATOM      9  C   UNL     1      32.143 -23.410 -14.598  0.00  0.00    +0.176 C 
ATOM     10  C   UNL     1      30.214 -22.932 -15.277  0.00  0.00    +0.230 C 
ATOM     11  H   UNL     1      36.371 -24.180 -14.444  0.00  0.00    +0.149 HD
ENDROOT
BRANCH   1  12
ATOM     12  C   UNL     1      35.566 -24.454 -12.516  0.00  0.00    +0.071 C 
ATOM     13  C   UNL     1      36.513 -25.629 -12.256  0.00  0.00    +0.020 C 
ATOM     14  C   UNL     1      35.980 -23.212 -11.719  0.00  0.00    +0.020 C 
ATOM     15  C   UNL     1      37.984 -25.257 -12.447  0.00  0.00    +0.002 C 
ATOM     16  C   UNL     1      37.452 -22.849 -11.911  0.00  0.00    +0.002 C 
ATOM     17  C   UNL     1      38.367 -24.034 -11.620  0.00  0.00    +0.000 C 
ENDBRANCH   1  12
BRANCH   8  18
ATOM     18  N   UNL     1      33.301 -22.940 -18.039  0.00  0.00    -0.299 N 
ATOM     19  H   UNL     1      32.704 -23.517 -18.567  0.00  0.00    +0.153 HD
BRANCH  18  20
ATOM     20  C   UNL     1      33.973 -21.942 -18.753  0.00  0.00    +0.049 C 
ATOM     21  C   UNL     1      33.249 -20.982 -19.461  0.00  0.00    +0.016 C 
ATOM     22  C   UNL     1      35.367 -21.907 -18.759  0.00  0.00    +0.016 C 
ATOM     23  C   UNL     1      35.314 -19.953 -20.177  0.00  0.00    +0.122 C 
ATOM     24  C   UNL     1      33.919 -19.987 -20.173  0.00  0.00    +0.021 C 
ATOM     25  C   UNL     1      36.037 -20.912 -19.470  0.00  0.00    +0.021 C 
BRANCH  23  26
ATOM     26  S   UNL     1      36.152 -18.707 -21.068  0.00  0.00    +0.057 S 
ATOM     27  O   UNL     1      37.571 -18.791 -20.751  0.00  0.00    -0.153 OA
ATOM     28  O   UNL     1      35.717 -18.758 -22.457  0.00  0.00    -0.153 OA
BRANCH  26  29
ATOM     29  N   UNL     1      35.508 -17.299 -20.344  0.00  0.00    -0.203 NA
ATOM     30  H   UNL     1      34.966 -16.780 -21.032  0.00  0.00    +0.144 HD
ATOM     31  H   UNL     1      36.271 -16.715 -20.001  0.00  0.00    +0.144 HD
ENDBRANCH  26  29
ENDBRANCH  23  26
ENDBRANCH  18  20
ENDBRANCH   8  18
TORSDOF 5
ENDMDL
MODEL 2
REMARK VINA RESULT:     -10.6      1.927      4.771
REMARK  Name = 23586146
REMARK  5 active torsions:
REMARK  status: ('A' for Active; 'I' for Inactive)
REMARK    1  A    between atoms: N_1  and  C_12
REMARK    2  A    between atoms: C_8  and  N_18
REMARK    3  A    between atoms: N_18  and  C_20
REMARK    4  A    between atoms: C_23  and  S_26
REMARK    5  A    between atoms: S_26  and  N_29
REMARK                            x       y       z     vdW  Elec       q    Type
REMARK                         _______ _______ _______ _____ _____    ______ ____
ROOT
ATOM      1  N   UNL     1      31.229 -22.965 -15.445  0.00  0.00    -0.309 N 
ATOM      2  N   UNL     1      33.334 -23.040 -14.531  0.00  0.00    -0.321 NA
ATOM      3  N   UNL     1      35.237 -22.847 -15.985  0.00  0.00    -0.106 N 
ATOM      4  N   UNL     1      36.592 -22.840 -15.880  0.00  0.00    -0.139 NA
ATOM      5  N   UNL     1      35.650 -23.091 -13.822  0.00  0.00    -0.145 NA
ATOM      6  C   UNL     1      32.564 -22.929 -15.588  0.00  0.00    +0.196 C 
ATOM      7  C   UNL     1      33.111 -22.762 -16.980  0.00  0.00    +0.081 C 
ATOM      8  C   UNL     1      34.444 -22.726 -17.128  0.00  0.00    +0.140 C 
ATOM      9  C   UNL     1      34.682 -23.001 -14.712  0.00  0.00    +0.176 C 
ATOM     10  C   UNL     1      36.777 -22.988 -14.571  0.00  0.00    +0.230 C 
ATOM     11  H   UNL     1      30.667 -22.896 -16.249  0.00  0.00    +0.149 HD
ENDROOT
BRANCH   1  12
ATOM     12  C   UNL     1      30.581 -23.100 -14.154  0.00  0.00    +0.071 C 
ATOM     13  C   UNL     1      29.084 -22.800 -14.283  0.00  0.00    +0.020 C 
ATOM     14  C   UNL     1      30.826 -24.502 -13.587  0.00  0.00    +0.020 C 
ATOM     15  C   UNL     1      28.324 -23.892 -15.036  0.00  0.00    +0.002 C 
ATOM     16  C   UNL     1      30.060 -25.588 -14.342  0.00  0.00    +0.002 C 
ATOM     17  C   UNL     1      28.570 -25.269 -14.430  0.00  0.00    +0.000 C 
ENDBRANCH   1  12
BRANCH   8  18
ATOM     18  N   UNL     1      35.079 -22.580 -18.328  0.00  0.00    -0.299 N 
ATOM     19  H   UNL     1      35.545 -23.378 -18.666  0.00  0.00    +0.153 HD
BRANCH  18  20
ATOM     20  C   UNL     1      35.152 -21.442 -19.138  0.00  0.00    +0.049 C 
ATOM     21  C   UNL     1      36.387 -20.844 -19.393  0.00  0.00    +0.016 C 
ATOM     22  C   UNL     1      33.991 -20.903 -19.691  0.00  0.00    +0.016 C 
ATOM     23  C   UNL     1      35.297 -19.172 -20.754  0.00  0.00    +0.122 C 
ATOM     24  C   UNL     1      36.460 -19.710 -20.201  0.00  0.00    +0.021 C 
ATOM     25  C   UNL     1      34.063 -19.769 -20.499  0.00  0.00    +0.021 C 
BRANCH  23  26
ATOM     26  S   UNL     1      35.389 -17.752 -21.765  0.00  0.00    +0.057 S 
ATOM     27  O   UNL     1      34.506 -17.943 -22.907  0.00  0.00    -0.153 OA
ATOM     28  O   UNL     1      35.238 -16.573 -20.923  0.00  0.00    -0.153 OA
BRANCH  26  29
ATOM     29  N   UNL     1      37.009 -17.838 -22.302  0.00  0.00    -0.203 NA
ATOM     30  H   UNL     1      37.177 -17.111 -22.996  0.00  0.00    +0.144 HD
ATOM     31  H   UNL     1      37.180 -18.753 -22.720  0.00  0.00    +0.144 HD
ENDBRANCH  26  29
ENDBRANCH  23  26
ENDBRANCH  18  20
ENDBRANCH   8  18
TORSDOF 5
ENDMDL
MODEL 3
REMARK VINA RESULT:     -10.4      5.708     11.316
REMARK  Name = 23586146
REMARK  5 active torsions:
REMARK  status: ('A' for Active; 'I' for Inactive)
REMARK    1  A    between atoms: N_1  and  C_12
REMARK    2  A    between atoms: C_8  and  N_18
REMARK    3  A    between atoms: N_18  and  C_20
REMARK    4  A    between atoms: C_23  and  S_26
REMARK    5  A    between atoms: S_26  and  N_29
REMARK                            x       y       z     vdW  Elec       q    Type
REMARK                         _______ _______ _______ _____ _____    ______ ____
ROOT
ATOM      1  N   UNL     1      34.222 -13.384 -23.141  0.00  0.00    -0.309 N 
ATOM      2  N   UNL     1      33.670 -15.333 -24.221  0.00  0.00    -0.321 NA
ATOM      3  N   UNL     1      34.581 -17.404 -23.414  0.00  0.00    -0.106 N 
ATOM      4  N   UNL     1      34.524 -18.725 -23.731  0.00  0.00    -0.139 NA
ATOM      5  N   UNL     1      33.247 -17.518 -25.179  0.00  0.00    -0.145 NA
ATOM      6  C   UNL     1      34.318 -14.718 -23.260  0.00  0.00    +0.196 C 
ATOM      7  C   UNL     1      35.183 -15.445 -22.266  0.00  0.00    +0.081 C 
ATOM      8  C   UNL     1      35.283 -16.777 -22.381  0.00  0.00    +0.140 C 
ATOM      9  C   UNL     1      33.791 -16.685 -24.313  0.00  0.00    +0.176 C 
ATOM     10  C   UNL     1      33.717 -18.729 -24.787  0.00  0.00    +0.230 C 
ATOM     11  H   UNL     1      34.727 -12.936 -22.425  0.00  0.00    +0.149 HD
ENDROOT
BRANCH   1  12
ATOM     12  C   UNL     1      33.404 -12.573 -24.024  0.00  0.00    +0.071 C 
ATOM     13  C   UNL     1      32.390 -11.765 -23.208  0.00  0.00    +0.020 C 
ATOM     14  C   UNL     1      34.294 -11.661 -24.875  0.00  0.00    +0.020 C 
ATOM     15  C   UNL     1      33.040 -10.640 -22.402  0.00  0.00    +0.002 C 
ATOM     16  C   UNL     1      34.937 -10.537 -24.063  0.00  0.00    +0.002 C 
ATOM     17  C   UNL     1      33.896  -9.738 -23.283  0.00  0.00    +0.000 C 
ENDBRANCH   1  12
BRANCH   8  18
ATOM     18  N   UNL     1      36.029 -17.566 -21.553  0.00  0.00    -0.299 N 
ATOM     19  H   UNL     1      36.970 -17.300 -21.439  0.00  0.00    +0.153 HD
BRANCH  18  20
ATOM     20  C   UNL     1      35.627 -18.703 -20.844  0.00  0.00    +0.049 C 
ATOM     21  C   UNL     1      34.271 -19.016 -20.736  0.00  0.00    +0.016 C 
ATOM     22  C   UNL     1      36.581 -19.525 -20.244  0.00  0.00    +0.016 C 
ATOM     23  C   UNL     1      34.826 -20.971 -19.430  0.00  0.00    +0.122 C 
ATOM     24  C   UNL     1      33.871 -20.150 -20.029  0.00  0.00    +0.021 C 
ATOM     25  C   UNL     1      36.181 -20.659 -19.538  0.00  0.00    +0.021 C 
BRANCH  23  26
ATOM     26  S   UNL     1      34.324 -22.390 -18.546  0.00  0.00    +0.057 S 
ATOM     27  O   UNL     1      34.385 -23.536 -19.443  0.00  0.00    -0.153 OA
ATOM     28  O   UNL     1      35.042 -22.425 -17.279  0.00  0.00    -0.153 OA
BRANCH  26  29
ATOM     29  N   UNL     1      32.685 -22.019 -18.237  0.00  0.00    -0.203 NA
ATOM     30  H   UNL     1      32.610 -21.061 -17.900  0.00  0.00    +0.144 HD
ATOM     31  H   UNL     1      32.319 -22.658 -17.530  0.00  0.00    +0.144 HD
ENDBRANCH  26  29
ENDBRANCH  23  26
ENDBRANCH  18  20
ENDBRANCH   8  18
TORSDOF 5
ENDMDL
MODEL 4
REMARK VINA RESULT:      -9.5      4.549      8.531
REMARK  Name = 23586146
REMARK  5 active torsions:
REMARK  status: ('A' for Active; 'I' for Inactive)
REMARK    1  A    between atoms: N_1  and  C_12
REMARK    2  A    between atoms: C_8  and  N_18
REMARK    3  A    between atoms: N_18  and  C_20
REMARK    4  A    between atoms: C_23  and  S_26
REMARK    5  A    between atoms: S_26  and  N_29
REMARK                            x       y       z     vdW  Elec       q    Type
REMARK                         _______ _______ _______ _____ _____    ______ ____
ROOT
ATOM      1  N   UNL     1      35.715 -19.890 -20.184  0.00  0.00    -0.309 N 
ATOM      2  N   UNL     1      34.275 -21.280 -19.059  0.00  0.00    -0.321 NA
ATOM      3  N   UNL     1      35.108 -22.552 -17.200  0.00  0.00    -0.106 N 
ATOM      4  N   UNL     1      34.633 -23.451 -16.296  0.00  0.00    -0.139 NA
ATOM      5  N   UNL     1      32.969 -22.812 -17.712  0.00  0.00    -0.145 NA
ATOM      6  C   UNL     1      35.478 -20.776 -19.203  0.00  0.00    +0.196 C 
ATOM      7  C   UNL     1      36.630 -21.148 -18.309  0.00  0.00    +0.081 C 
ATOM      8  C   UNL     1      36.399 -22.034 -17.328  0.00  0.00    +0.140 C 
ATOM      9  C   UNL     1      34.071 -22.175 -18.056  0.00  0.00    +0.176 C 
ATOM     10  C   UNL     1      33.357 -23.564 -16.652  0.00  0.00    +0.230 C 
ATOM     11  H   UNL     1      36.626 -19.534 -20.288  0.00  0.00    +0.149 HD
ENDROOT
BRANCH   1  12
ATOM     12  C   UNL     1      34.683 -19.435 -21.098  0.00  0.00    +0.071 C 
ATOM     13  C   UNL     1      34.163 -18.062 -20.662  0.00  0.00    +0.020 C 
ATOM     14  C   UNL     1      35.227 -19.400 -22.529  0.00  0.00    +0.020 C 
ATOM     15  C   UNL     1      35.180 -16.943 -20.890  0.00  0.00    +0.002 C 
ATOM     16  C   UNL     1      36.240 -18.277 -22.751  0.00  0.00    +0.002 C 
ATOM     17  C   UNL     1      35.680 -16.922 -22.330  0.00  0.00    +0.000 C 
ENDBRANCH   1  12
BRANCH   8  18
ATOM     18  N   UNL     1      37.345 -22.464 -16.443  0.00  0.00    -0.299 N 
ATOM     19  H   UNL     1      38.281 -22.345 -16.724  0.00  0.00    +0.153 HD
BRANCH  18  20
ATOM     20  C   UNL     1      37.156 -23.051 -15.187  0.00  0.00    +0.049 C 
ATOM     21  C   UNL     1      36.452 -22.365 -14.195  0.00  0.00    +0.016 C 
ATOM     22  C   UNL     1      37.670 -24.321 -14.925  0.00  0.00    +0.016 C 
ATOM     23  C   UNL     1      36.778 -24.221 -12.683  0.00  0.00    +0.122 C 
ATOM     24  C   UNL     1      36.263 -22.951 -12.944  0.00  0.00    +0.021 C 
ATOM     25  C   UNL     1      37.480 -24.905 -13.674  0.00  0.00    +0.021 C 
BRANCH  23  26
ATOM     26  S   UNL     1      36.541 -24.953 -11.116  0.00  0.00    +0.057 S 
ATOM     27  O   UNL     1      37.012 -26.329 -11.175  0.00  0.00    -0.153 OA
ATOM     28  O   UNL     1      37.066 -24.052 -10.099  0.00  0.00    -0.153 OA
BRANCH  26  29
ATOM     29  N   UNL     1      34.834 -24.959 -11.014  0.00  0.00    -0.203 NA
ATOM     30  H   UNL     1      34.441 -25.245 -11.909  0.00  0.00    +0.144 HD
ATOM     31  H   UNL     1      34.504 -24.022 -10.781  0.00  0.00    +0.144 HD
ENDBRANCH  26  29
ENDBRANCH  23  26
ENDBRANCH  18  20
ENDBRANCH   8  18
TORSDOF 5
ENDMDL
MODEL 5
REMARK VINA RESULT:      -9.5      5.855      9.165
REMARK  Name = 23586146
REMARK  5 active torsions:
REMARK  status: ('A' for Active; 'I' for Inactive)
REMARK    1  A    between atoms: N_1  and  C_12
REMARK    2  A    between atoms: C_8  and  N_18
REMARK    3  A    between atoms: N_18  and  C_20
REMARK    4  A    between atoms: C_23  and  S_26
REMARK    5  A    between atoms: S_26  and  N_29
REMARK                            x       y       z     vdW  Elec       q    Type
REMARK                         _______ _______ _______ _____ _____    ______ ____
ROOT
ATOM      1  N   UNL     1      35.151 -19.538 -20.192  0.00  0.00    -0.309 N 
ATOM      2  N   UNL     1      34.580 -19.035 -22.358  0.00  0.00    -0.321 NA
ATOM      3  N   UNL     1      34.652 -16.743 -23.073  0.00  0.00    -0.106 N 
ATOM      4  N   UNL     1      34.410 -16.028 -24.204  0.00  0.00    -0.139 NA
ATOM      5  N   UNL     1      34.027 -18.241 -24.579  0.00  0.00    -0.145 NA
ATOM      6  C   UNL     1      34.976 -18.637 -21.172  0.00  0.00    +0.196 C 
ATOM      7  C   UNL     1      35.248 -17.193 -20.846  0.00  0.00    +0.081 C 
ATOM      8  C   UNL     1      35.074 -16.288 -21.821  0.00  0.00    +0.140 C 
ATOM      9  C   UNL     1      34.412 -18.094 -23.327  0.00  0.00    +0.176 C 
ATOM     10  C   UNL     1      34.042 -16.974 -25.063  0.00  0.00    +0.230 C 
ATOM     11  H   UNL     1      35.433 -19.221 -19.304  0.00  0.00    +0.149 HD
ENDROOT
BRANCH   1  12
ATOM     12  C   UNL     1      34.942 -20.961 -20.387  0.00  0.00    +0.071 C 
ATOM     13  C   UNL     1      35.991 -21.759 -19.607  0.00  0.00    +0.020 C 
ATOM     14  C   UNL     1      33.519 -21.345 -19.968  0.00  0.00    +0.020 C 
ATOM     15  C   UNL     1      35.775 -21.701 -18.094  0.00  0.00    +0.002 C 
ATOM     16  C   UNL     1      33.311 -21.290 -18.455  0.00  0.00    +0.002 C 
ATOM     17  C   UNL     1      34.358 -22.114 -17.712  0.00  0.00    +0.000 C 
ENDBRANCH   1  12
BRANCH   8  18
ATOM     18  N   UNL     1      35.283 -14.947 -21.670  0.00  0.00    -0.299 N 
ATOM     19  H   UNL     1      36.223 -14.657 -21.667  0.00  0.00    +0.153 HD
BRANCH  18  20
ATOM     20  C   UNL     1      34.330 -13.933 -21.521  0.00  0.00    +0.049 C 
ATOM     21  C   UNL     1      33.518 -13.900 -20.387  0.00  0.00    +0.016 C 
ATOM     22  C   UNL     1      34.192 -12.955 -22.506  0.00  0.00    +0.016 C 
ATOM     23  C   UNL     1      32.431 -11.910 -21.224  0.00  0.00    +0.122 C 
ATOM     24  C   UNL     1      32.569 -12.888 -20.238  0.00  0.00    +0.021 C 
ATOM     25  C   UNL     1      33.243 -11.944 -22.357  0.00  0.00    +0.021 C 
BRANCH  23  26
ATOM     26  S   UNL     1      31.243 -10.645 -21.037  0.00  0.00    +0.057 S 
ATOM     27  O   UNL     1      31.549  -9.584 -21.987  0.00  0.00    -0.153 OA
ATOM     28  O   UNL     1      29.919 -11.250 -21.030  0.00  0.00    -0.153 OA
BRANCH  26  29
ATOM     29  N   UNL     1      31.602 -10.092 -19.461  0.00  0.00    -0.203 NA
ATOM     30  H   UNL     1      30.738  -9.832 -18.987  0.00  0.00    +0.144 HD
ATOM     31  H   UNL     1      32.217  -9.279 -19.517  0.00  0.00    +0.144 HD
ENDBRANCH  26  29
ENDBRANCH  23  26
ENDBRANCH  18  20
ENDBRANCH   8  18
TORSDOF 5
ENDMDL
MODEL 6
REMARK VINA RESULT:      -9.5      9.291     14.075
REMARK  Name = 23586146
REMARK  5 active torsions:
REMARK  status: ('A' for Active; 'I' for Inactive)
REMARK    1  A    between atoms: N_1  and  C_12
REMARK    2  A    between atoms: C_8  and  N_18
REMARK    3  A    between atoms: N_18  and  C_20
REMARK    4  A    between atoms: C_23  and  S_26
REMARK    5  A    between atoms: S_26  and  N_29
REMARK                            x       y       z     vdW  Elec       q    Type
REMARK                         _______ _______ _______ _____ _____    ______ ____
ROOT
ATOM      1  N   UNL     1      33.187  -8.379 -23.253  0.00  0.00    -0.309 N 
ATOM      2  N   UNL     1      32.421  -9.926 -21.739  0.00  0.00    -0.321 NA
ATOM      3  N   UNL     1      32.728 -12.261 -22.210  0.00  0.00    -0.106 N 
ATOM      4  N   UNL     1      32.447 -13.456 -21.626  0.00  0.00    -0.139 NA
ATOM      5  N   UNL     1      31.708 -11.749 -20.312  0.00  0.00    -0.145 NA
ATOM      6  C   UNL     1      33.019  -9.657 -22.876  0.00  0.00    +0.196 C 
ATOM      7  C   UNL     1      33.534 -10.729 -23.799  0.00  0.00    +0.081 C 
ATOM      8  C   UNL     1      33.367 -12.007 -23.426  0.00  0.00    +0.140 C 
ATOM      9  C   UNL     1      32.267 -11.231 -21.388  0.00  0.00    +0.176 C 
ATOM     10  C   UNL     1      31.841 -13.086 -20.501  0.00  0.00    +0.230 C 
ATOM     11  H   UNL     1      33.623  -8.196 -24.116  0.00  0.00    +0.149 HD
ENDROOT
BRANCH   1  12
ATOM     12  C   UNL     1      32.754  -7.257 -22.441  0.00  0.00    +0.071 C 
ATOM     13  C   UNL     1      33.725  -6.083 -22.606  0.00  0.00    +0.020 C 
ATOM     14  C   UNL     1      31.323  -6.859 -22.816  0.00  0.00    +0.020 C 
ATOM     15  C   UNL     1      33.627  -5.422 -23.981  0.00  0.00    +0.002 C 
ATOM     16  C   UNL     1      31.233  -6.195 -24.190  0.00  0.00    +0.002 C 
ATOM     17  C   UNL     1      32.194  -5.016 -24.310  0.00  0.00    +0.000 C 
ENDBRANCH   1  12
BRANCH   8  18
ATOM     18  N   UNL     1      33.782 -13.081 -24.161  0.00  0.00    -0.299 N 
ATOM     19  H   UNL     1      33.829 -12.943 -25.134  0.00  0.00    +0.153 HD
BRANCH  18  20
ATOM     20  C   UNL     1      34.150 -14.352 -23.707  0.00  0.00    +0.049 C 
ATOM     21  C   UNL     1      33.795 -15.485 -24.440  0.00  0.00    +0.016 C 
ATOM     22  C   UNL     1      34.872 -14.488 -22.521  0.00  0.00    +0.016 C 
ATOM     23  C   UNL     1      34.885 -16.887 -22.801  0.00  0.00    +0.122 C 
ATOM     24  C   UNL     1      34.163 -16.752 -23.988  0.00  0.00    +0.021 C 
ATOM     25  C   UNL     1      35.239 -15.755 -22.069  0.00  0.00    +0.021 C 
BRANCH  23  26
ATOM     26  S   UNL     1      35.345 -18.473 -22.236  0.00  0.00    +0.057 S 
ATOM     27  O   UNL     1      34.791 -18.664 -20.902  0.00  0.00    -0.153 OA
ATOM     28  O   UNL     1      35.055 -19.441 -23.285  0.00  0.00    -0.153 OA
BRANCH  26  29
ATOM     29  N   UNL     1      37.040 -18.295 -22.107  0.00  0.00    -0.203 NA
ATOM     30  H   UNL     1      37.499 -18.926 -22.763  0.00  0.00    +0.144 HD
ATOM     31  H   UNL     1      37.334 -18.520 -21.156  0.00  0.00    +0.144 HD
ENDBRANCH  26  29
ENDBRANCH  23  26
ENDBRANCH  18  20
ENDBRANCH   8  18
TORSDOF 5
ENDMDL
