MODEL 1
REMARK VINA RESULT:     -11.3      0.000      0.000
REMARK  Name = 46207586
REMARK  7 active torsions:
REMARK  status: ('A' for Active; 'I' for Inactive)
REMARK    1  A    between atoms: C_6  and  C_13
REMARK    2  A    between atoms: C_7  and  C_34
REMARK    3  A    between atoms: C_16  and  N_20
REMARK    4  A    between atoms: N_21  and  C_26
REMARK    5  A    between atoms: N_32  and  C_37
REMARK    6  A    between atoms: C_37  and  C_38
REMARK    7  A    between atoms: C_38  and  O_39
REMARK                            x       y       z     vdW  Elec       q    Type
REMARK                         _______ _______ _______ _____ _____    ______ ____
ROOT
ATOM      1  S   UNL     1      34.945 -15.527 -20.014  0.00  0.00    -0.086 S 
ATOM      2  N   UNL     1      34.426 -16.432 -24.371  0.00  0.00    -0.230 NA
ATOM      3  N   UNL     1      33.668 -14.216 -24.695  0.00  0.00    -0.343 N 
ATOM      4  C   UNL     1      34.319 -14.977 -22.462  0.00  0.00    +0.038 C 
ATOM      5  C   UNL     1      34.796 -16.017 -21.660  0.00  0.00    +0.034 C 
ATOM      6  C   UNL     1      34.087 -13.790 -21.688  0.00  0.00    +0.010 C 
ATOM      7  C   UNL     1      35.092 -17.274 -22.201  0.00  0.00    +0.028 C 
ATOM      8  C   UNL     1      34.144 -15.224 -23.832  0.00  0.00    +0.126 C 
ATOM      9  C   UNL     1      34.385 -13.953 -20.356  0.00  0.00    +0.036 C 
ATOM     10  C   UNL     1      34.883 -17.408 -23.562  0.00  0.00    +0.101 C 
ATOM     11  H   UNL     1      33.550 -14.405 -25.655  0.00  0.00    +0.144 HD
ATOM     12  H   UNL     1      33.453 -13.324 -24.339  0.00  0.00    +0.144 HD
ENDROOT
BRANCH   6  13
ATOM     13  C   UNL     1      33.600 -12.511 -22.141  0.00  0.00    +0.001 C 
ATOM     14  C   UNL     1      34.265 -11.832 -23.162  0.00  0.00    +0.001 C 
ATOM     15  C   UNL     1      32.463 -11.951 -21.558  0.00  0.00    +0.001 C 
ATOM     16  C   UNL     1      32.657 -10.035 -23.016  0.00  0.00    +0.052 C 
ATOM     17  C   UNL     1      33.794 -10.594 -23.600  0.00  0.00    +0.015 C 
ATOM     18  C   UNL     1      31.991 -10.713 -21.995  0.00  0.00    +0.015 C 
BRANCH  16  20
ATOM     19  O   UNL     1      32.924  -7.325 -21.790  0.00  0.00    -0.252 OA
ATOM     20  N   UNL     1      32.184  -8.798 -23.455  0.00  0.00    -0.268 N 
ATOM     21  N   UNL     1      31.699  -6.546 -23.623  0.00  0.00    -0.268 N 
ATOM     22  C   UNL     1      32.331  -7.529 -22.844  0.00  0.00    +0.308 C 
ATOM     23  H   UNL     1      31.682  -8.809 -24.302  0.00  0.00    +0.156 HD
ATOM     24  H   UNL     1      31.263  -6.862 -24.447  0.00  0.00    +0.156 HD
BRANCH  21  26
ATOM     25  F   UNL     1      29.917  -2.860 -21.114  0.00  0.00    -0.204 F 
ATOM     26  C   UNL     1      31.612  -5.156 -23.370  0.00  0.00    +0.054 C 
ATOM     27  C   UNL     1      30.791  -4.685 -22.346  0.00  0.00    +0.044 C 
ATOM     28  C   UNL     1      32.346  -4.259 -24.146  0.00  0.00    +0.015 C 
ATOM     29  C   UNL     1      30.704  -3.314 -22.097  0.00  0.00    +0.141 C 
ATOM     30  C   UNL     1      32.260  -2.889 -23.897  0.00  0.00    +0.004 C 
ATOM     31  C   UNL     1      31.438  -2.417 -22.873  0.00  0.00    +0.030 C 
ENDBRANCH  21  26
ENDBRANCH  16  20
ENDBRANCH   6  13
BRANCH   7  34
ATOM     32  N   UNL     1      35.635 -20.176 -20.197  0.00  0.00    -0.208 N 
ATOM     33  N   UNL     1      36.914 -19.762 -20.190  0.00  0.00    -0.176 NA
ATOM     34  C   UNL     1      35.582 -18.351 -21.396  0.00  0.00    +0.039 C 
ATOM     35  C   UNL     1      34.797 -19.365 -20.904  0.00  0.00    +0.086 C 
ATOM     36  C   UNL     1      36.875 -18.648 -20.924  0.00  0.00    +0.119 C 
BRANCH  32  37
ATOM     37  C   UNL     1      35.269 -21.381 -19.491  0.00  0.00    +0.148 C 
BRANCH  37  38
ATOM     38  C   UNL     1      36.136 -21.619 -18.260  0.00  0.00    +0.161 C 
BRANCH  38  39
ATOM     39  O   UNL     1      35.412 -22.384 -17.305  0.00  0.00    -0.380 OA
ATOM     40  H   UNL     1      34.463 -22.322 -17.493  0.00  0.00    +0.211 HD
ENDBRANCH  38  39
ENDBRANCH  37  38
ENDBRANCH  32  37
ENDBRANCH   7  34
TORSDOF 7
ENDMDL
MODEL 2
REMARK VINA RESULT:     -10.6      4.132     12.660
REMARK  Name = 46207586
REMARK  7 active torsions:
REMARK  status: ('A' for Active; 'I' for Inactive)
REMARK    1  A    between atoms: C_6  and  C_13
REMARK    2  A    between atoms: C_7  and  C_34
REMARK    3  A    between atoms: C_16  and  N_20
REMARK    4  A    between atoms: N_21  and  C_26
REMARK    5  A    between atoms: N_32  and  C_37
REMARK    6  A    between atoms: C_37  and  C_38
REMARK    7  A    between atoms: C_38  and  O_39
REMARK                            x       y       z     vdW  Elec       q    Type
REMARK                         _______ _______ _______ _____ _____    ______ ____
ROOT
ATOM      1  S   UNL     1      34.434  -9.019 -24.276  0.00  0.00    -0.086 S 
ATOM      2  N   UNL     1      31.074  -9.735 -21.401  0.00  0.00    -0.230 NA
ATOM      3  N   UNL     1      31.711 -12.009 -21.292  0.00  0.00    -0.343 N 
ATOM      4  C   UNL     1      32.957 -10.452 -22.710  0.00  0.00    +0.038 C 
ATOM      5  C   UNL     1      33.108  -9.145 -23.182  0.00  0.00    +0.034 C 
ATOM      6  C   UNL     1      33.951 -11.323 -23.269  0.00  0.00    +0.010 C 
ATOM      7  C   UNL     1      32.246  -8.120 -22.772  0.00  0.00    +0.028 C 
ATOM      8  C   UNL     1      31.915 -10.713 -21.807  0.00  0.00    +0.126 C 
ATOM      9  C   UNL     1      34.809 -10.675 -24.127  0.00  0.00    +0.036 C 
ATOM     10  C   UNL     1      31.254  -8.489 -21.881  0.00  0.00    +0.101 C 
ATOM     11  H   UNL     1      30.975 -12.178 -20.660  0.00  0.00    +0.144 HD
ATOM     12  H   UNL     1      32.303 -12.746 -21.565  0.00  0.00    +0.144 HD
ENDROOT
BRANCH   6  13
ATOM     13  C   UNL     1      34.136 -12.733 -23.034  0.00  0.00    +0.001 C 
ATOM     14  C   UNL     1      34.630 -13.178 -21.808  0.00  0.00    +0.001 C 
ATOM     15  C   UNL     1      33.819 -13.653 -24.033  0.00  0.00    +0.001 C 
ATOM     16  C   UNL     1      34.490 -15.463 -22.581  0.00  0.00    +0.052 C 
ATOM     17  C   UNL     1      34.807 -14.544 -21.581  0.00  0.00    +0.015 C 
ATOM     18  C   UNL     1      33.996 -15.019 -23.807  0.00  0.00    +0.015 C 
BRANCH  16  20
ATOM     19  O   UNL     1      34.878 -16.958 -20.024  0.00  0.00    -0.252 OA
ATOM     20  N   UNL     1      34.667 -16.828 -22.354  0.00  0.00    -0.268 N 
ATOM     21  N   UNL     1      34.988 -18.882 -21.347  0.00  0.00    -0.268 N 
ATOM     22  C   UNL     1      34.849 -17.504 -21.122  0.00  0.00    +0.308 C 
ATOM     23  H   UNL     1      34.665 -17.398 -23.157  0.00  0.00    +0.156 HD
ATOM     24  H   UNL     1      34.943 -19.174 -22.287  0.00  0.00    +0.156 HD
BRANCH  21  26
ATOM     25  F   UNL     1      33.239 -22.288 -18.450  0.00  0.00    -0.204 F 
ATOM     26  C   UNL     1      35.187 -19.906 -20.390  0.00  0.00    +0.054 C 
ATOM     27  C   UNL     1      34.093 -20.606 -19.883  0.00  0.00    +0.044 C 
ATOM     28  C   UNL     1      36.476 -20.213 -19.955  0.00  0.00    +0.015 C 
ATOM     29  C   UNL     1      34.288 -21.615 -18.938  0.00  0.00    +0.141 C 
ATOM     30  C   UNL     1      36.671 -21.221 -19.011  0.00  0.00    +0.004 C 
ATOM     31  C   UNL     1      35.577 -21.922 -18.503  0.00  0.00    +0.030 C 
ENDBRANCH  21  26
ENDBRANCH  16  20
ENDBRANCH   6  13
BRANCH   7  34
ATOM     32  N   UNL     1      31.989  -4.906 -24.301  0.00  0.00    -0.208 N 
ATOM     33  N   UNL     1      33.130  -4.653 -23.638  0.00  0.00    -0.176 NA
ATOM     34  C   UNL     1      32.386  -6.776 -23.244  0.00  0.00    +0.039 C 
ATOM     35  C   UNL     1      31.502  -6.164 -24.099  0.00  0.00    +0.086 C 
ATOM     36  C   UNL     1      33.367  -5.799 -22.994  0.00  0.00    +0.119 C 
BRANCH  32  37
ATOM     37  C   UNL     1      31.401  -3.882 -25.131  0.00  0.00    +0.148 C 
BRANCH  37  38
ATOM     38  C   UNL     1      30.881  -2.702 -24.317  0.00  0.00    +0.161 C 
BRANCH  38  39
ATOM     39  O   UNL     1      30.334  -3.170 -23.090  0.00  0.00    -0.380 OA
ATOM     40  H   UNL     1      30.454  -2.494 -22.404  0.00  0.00    +0.211 HD
ENDBRANCH  38  39
ENDBRANCH  37  38
ENDBRANCH  32  37
ENDBRANCH   7  34
TORSDOF 7
ENDMDL
MODEL 3
REMARK VINA RESULT:     -10.4      5.515      9.265
REMARK  Name = 46207586
REMARK  7 active torsions:
REMARK  status: ('A' for Active; 'I' for Inactive)
REMARK    1  A    between atoms: C_6  and  C_13
REMARK    2  A    between atoms: C_7  and  C_34
REMARK    3  A    between atoms: C_16  and  N_20
REMARK    4  A    between atoms: N_21  and  C_26
REMARK    5  A    between atoms: N_32  and  C_37
REMARK    6  A    between atoms: C_37  and  C_38
REMARK    7  A    between atoms: C_38  and  O_39
REMARK                            x       y       z     vdW  Elec       q    Type
REMARK                         _______ _______ _______ _____ _____    ______ ____
ROOT
ATOM      1  S   UNL     1      37.252 -22.322 -16.436  0.00  0.00    -0.086 S 
ATOM      2  N   UNL     1      32.908 -23.244 -17.021  0.00  0.00    -0.230 NA
ATOM      3  N   UNL     1      32.882 -21.747 -18.851  0.00  0.00    -0.343 N 
ATOM      4  C   UNL     1      34.949 -22.113 -17.593  0.00  0.00    +0.038 C 
ATOM      5  C   UNL     1      35.592 -22.772 -16.541  0.00  0.00    +0.034 C 
ATOM      6  C   UNL     1      35.855 -21.245 -18.291  0.00  0.00    +0.010 C 
ATOM      7  C   UNL     1      34.902 -23.672 -15.718  0.00  0.00    +0.028 C 
ATOM      8  C   UNL     1      33.588 -22.377 -17.806  0.00  0.00    +0.126 C 
ATOM      9  C   UNL     1      37.126 -21.266 -17.768  0.00  0.00    +0.036 C 
ATOM     10  C   UNL     1      33.565 -23.857 -16.018  0.00  0.00    +0.101 C 
ATOM     11  H   UNL     1      31.927 -21.942 -18.988  0.00  0.00    +0.144 HD
ATOM     12  H   UNL     1      33.345 -21.111 -19.443  0.00  0.00    +0.144 HD
ENDROOT
BRANCH   6  13
ATOM     13  C   UNL     1      35.583 -20.399 -19.426  0.00  0.00    +0.001 C 
ATOM     14  C   UNL     1      34.290 -20.317 -19.943  0.00  0.00    +0.001 C 
ATOM     15  C   UNL     1      36.613 -19.661 -20.008  0.00  0.00    +0.001 C 
ATOM     16  C   UNL     1      35.058 -18.761 -21.622  0.00  0.00    +0.052 C 
ATOM     17  C   UNL     1      34.027 -19.498 -21.041  0.00  0.00    +0.015 C 
ATOM     18  C   UNL     1      36.351 -18.841 -21.107  0.00  0.00    +0.015 C 
BRANCH  16  20
ATOM     19  O   UNL     1      34.571 -15.817 -21.757  0.00  0.00    -0.252 OA
ATOM     20  N   UNL     1      34.796 -17.941 -22.720  0.00  0.00    -0.268 N 
ATOM     21  N   UNL     1      34.343 -16.118 -24.064  0.00  0.00    -0.268 N 
ATOM     22  C   UNL     1      34.568 -16.543 -22.745  0.00  0.00    +0.308 C 
ATOM     23  H   UNL     1      34.764 -18.394 -23.594  0.00  0.00    +0.156 HD
ATOM     24  H   UNL     1      34.372 -16.818 -24.755  0.00  0.00    +0.156 HD
BRANCH  21  26
ATOM     25  F   UNL     1      33.809 -11.422 -23.213  0.00  0.00    -0.204 F 
ATOM     26  C   UNL     1      34.078 -14.805 -24.523  0.00  0.00    +0.054 C 
ATOM     27  C   UNL     1      34.074 -13.740 -23.624  0.00  0.00    +0.044 C 
ATOM     28  C   UNL     1      33.818 -14.579 -25.875  0.00  0.00    +0.015 C 
ATOM     29  C   UNL     1      33.812 -12.446 -24.076  0.00  0.00    +0.141 C 
ATOM     30  C   UNL     1      33.556 -13.286 -26.327  0.00  0.00    +0.004 C 
ATOM     31  C   UNL     1      33.553 -12.219 -25.427  0.00  0.00    +0.030 C 
ENDBRANCH  21  26
ENDBRANCH  16  20
ENDBRANCH   6  13
BRANCH   7  34
ATOM     32  N   UNL     1      36.334 -24.796 -12.649  0.00  0.00    -0.208 N 
ATOM     33  N   UNL     1      36.650 -25.893 -13.359  0.00  0.00    -0.176 NA
ATOM     34  C   UNL     1      35.544 -24.357 -14.638  0.00  0.00    +0.039 C 
ATOM     35  C   UNL     1      35.672 -23.846 -13.369  0.00  0.00    +0.086 C 
ATOM     36  C   UNL     1      36.164 -25.619 -14.572  0.00  0.00    +0.119 C 
BRANCH  32  37
ATOM     37  C   UNL     1      36.704 -24.714 -11.257  0.00  0.00    +0.148 C 
BRANCH  37  38
ATOM     38  C   UNL     1      35.696 -23.917 -10.435  0.00  0.00    +0.161 C 
BRANCH  38  39
ATOM     39  O   UNL     1      35.319 -24.663  -9.284  0.00  0.00    -0.380 OA
ATOM     40  H   UNL     1      34.403 -24.450  -9.047  0.00  0.00    +0.211 HD
ENDBRANCH  38  39
ENDBRANCH  37  38
ENDBRANCH  32  37
ENDBRANCH   7  34
TORSDOF 7
ENDMDL
MODEL 4
REMARK VINA RESULT:     -10.1      4.346     12.711
REMARK  Name = 46207586
REMARK  7 active torsions:
REMARK  status: ('A' for Active; 'I' for Inactive)
REMARK    1  A    between atoms: C_6  and  C_13
REMARK    2  A    between atoms: C_7  and  C_34
REMARK    3  A    between atoms: C_16  and  N_20
REMARK    4  A    between atoms: N_21  and  C_26
REMARK    5  A    between atoms: N_32  and  C_37
REMARK    6  A    between atoms: C_37  and  C_38
REMARK    7  A    between atoms: C_38  and  O_39
REMARK                            x       y       z     vdW  Elec       q    Type
REMARK                         _______ _______ _______ _____ _____    ______ ____
ROOT
ATOM      1  S   UNL     1      32.081  -7.636 -23.401  0.00  0.00    -0.086 S 
ATOM      2  N   UNL     1      31.858  -8.495 -19.010  0.00  0.00    -0.230 NA
ATOM      3  N   UNL     1      32.551 -10.711 -19.453  0.00  0.00    -0.343 N 
ATOM      4  C   UNL     1      32.284  -9.118 -21.291  0.00  0.00    +0.038 C 
ATOM      5  C   UNL     1      31.951  -7.821 -21.692  0.00  0.00    +0.034 C 
ATOM      6  C   UNL     1      32.642  -9.932 -22.417  0.00  0.00    +0.010 C 
ATOM      7  C   UNL     1      31.568  -6.848 -20.760  0.00  0.00    +0.028 C 
ATOM      8  C   UNL     1      32.226  -9.423 -19.923  0.00  0.00    +0.126 C 
ATOM      9  C   UNL     1      32.574  -9.254 -23.611  0.00  0.00    +0.036 C 
ATOM     10  C   UNL     1      31.545  -7.257 -19.438  0.00  0.00    +0.101 C 
ATOM     11  H   UNL     1      32.505 -10.911 -18.490  0.00  0.00    +0.144 HD
ATOM     12  H   UNL     1      32.824 -11.412 -20.089  0.00  0.00    +0.144 HD
ENDROOT
BRANCH   6  13
ATOM     13  C   UNL     1      33.045 -11.316 -22.425  0.00  0.00    +0.001 C 
ATOM     14  C   UNL     1      34.133 -11.723 -23.197  0.00  0.00    +0.001 C 
ATOM     15  C   UNL     1      32.348 -12.250 -21.658  0.00  0.00    +0.001 C 
ATOM     16  C   UNL     1      33.826 -13.995 -22.437  0.00  0.00    +0.052 C 
ATOM     17  C   UNL     1      34.523 -13.062 -23.204  0.00  0.00    +0.015 C 
ATOM     18  C   UNL     1      32.738 -13.590 -21.664  0.00  0.00    +0.015 C 
BRANCH  16  20
ATOM     19  O   UNL     1      34.770 -15.736 -20.202  0.00  0.00    -0.252 OA
ATOM     20  N   UNL     1      34.217 -15.334 -22.442  0.00  0.00    -0.268 N 
ATOM     21  N   UNL     1      34.954 -17.428 -21.805  0.00  0.00    -0.268 N 
ATOM     22  C   UNL     1      34.661 -16.130 -21.358  0.00  0.00    +0.308 C 
ATOM     23  H   UNL     1      34.179 -15.786 -23.317  0.00  0.00    +0.156 HD
ATOM     24  H   UNL     1      34.816 -17.596 -22.765  0.00  0.00    +0.156 HD
BRANCH  21  26
ATOM     25  F   UNL     1      34.122 -21.482 -19.370  0.00  0.00    -0.204 F 
ATOM     26  C   UNL     1      35.423 -18.526 -21.045  0.00  0.00    +0.054 C 
ATOM     27  C   UNL     1      34.523 -19.482 -20.574  0.00  0.00    +0.044 C 
ATOM     28  C   UNL     1      36.784 -18.651 -20.767  0.00  0.00    +0.015 C 
ATOM     29  C   UNL     1      34.985 -20.564 -19.823  0.00  0.00    +0.141 C 
ATOM     30  C   UNL     1      37.246 -19.733 -20.017  0.00  0.00    +0.004 C 
ATOM     31  C   UNL     1      36.346 -20.689 -19.545  0.00  0.00    +0.030 C 
ENDBRANCH  21  26
ENDBRANCH  16  20
ENDBRANCH   6  13
BRANCH   7  34
ATOM     32  N   UNL     1      31.414  -3.406 -21.690  0.00  0.00    -0.208 N 
ATOM     33  N   UNL     1      30.092  -3.633 -21.778  0.00  0.00    -0.176 NA
ATOM     34  C   UNL     1      31.225  -5.515 -21.152  0.00  0.00    +0.039 C 
ATOM     35  C   UNL     1      32.137  -4.501 -21.317  0.00  0.00    +0.086 C 
ATOM     36  C   UNL     1      29.983  -4.922 -21.449  0.00  0.00    +0.119 C 
BRANCH  32  37
ATOM     37  C   UNL     1      31.936  -2.092 -21.978  0.00  0.00    +0.148 C 
BRANCH  37  38
ATOM     38  C   UNL     1      32.000  -1.809 -23.475  0.00  0.00    +0.161 C 
BRANCH  38  39
ATOM     39  O   UNL     1      31.338  -2.846 -24.188  0.00  0.00    -0.380 OA
ATOM     40  H   UNL     1      30.455  -2.544 -24.452  0.00  0.00    +0.211 HD
ENDBRANCH  38  39
ENDBRANCH  37  38
ENDBRANCH  32  37
ENDBRANCH   7  34
TORSDOF 7
ENDMDL
MODEL 5
REMARK VINA RESULT:     -10.1      5.474      9.063
REMARK  Name = 46207586
REMARK  7 active torsions:
REMARK  status: ('A' for Active; 'I' for Inactive)
REMARK    1  A    between atoms: C_6  and  C_13
REMARK    2  A    between atoms: C_7  and  C_34
REMARK    3  A    between atoms: C_16  and  N_20
REMARK    4  A    between atoms: N_21  and  C_26
REMARK    5  A    between atoms: N_32  and  C_37
REMARK    6  A    between atoms: C_37  and  C_38
REMARK    7  A    between atoms: C_38  and  O_39
REMARK                            x       y       z     vdW  Elec       q    Type
REMARK                         _______ _______ _______ _____ _____    ______ ____
ROOT
ATOM      1  S   UNL     1      37.054 -22.156 -16.463  0.00  0.00    -0.086 S 
ATOM      2  N   UNL     1      32.735 -23.093 -17.193  0.00  0.00    -0.230 NA
ATOM      3  N   UNL     1      32.775 -21.625 -19.046  0.00  0.00    -0.343 N 
ATOM      4  C   UNL     1      34.795 -21.968 -17.707  0.00  0.00    +0.038 C 
ATOM      5  C   UNL     1      35.399 -22.610 -16.622  0.00  0.00    +0.034 C 
ATOM      6  C   UNL     1      35.724 -21.110 -18.385  0.00  0.00    +0.010 C 
ATOM      7  C   UNL     1      34.681 -23.498 -15.812  0.00  0.00    +0.028 C 
ATOM      8  C   UNL     1      33.442 -22.238 -17.966  0.00  0.00    +0.126 C 
ATOM      9  C   UNL     1      36.976 -21.121 -17.816  0.00  0.00    +0.036 C 
ATOM     10  C   UNL     1      33.355 -23.690 -16.157  0.00  0.00    +0.101 C 
ATOM     11  H   UNL     1      31.826 -21.824 -19.215  0.00  0.00    +0.144 HD
ATOM     12  H   UNL     1      33.258 -20.998 -19.631  0.00  0.00    +0.144 HD
ENDROOT
BRANCH   6  13
ATOM     13  C   UNL     1      35.493 -20.282 -19.543  0.00  0.00    +0.001 C 
ATOM     14  C   UNL     1      36.531 -19.515 -20.071  0.00  0.00    +0.001 C 
ATOM     15  C   UNL     1      34.231 -20.250 -20.135  0.00  0.00    +0.001 C 
ATOM     16  C   UNL     1      35.044 -18.682 -21.783  0.00  0.00    +0.052 C 
ATOM     17  C   UNL     1      36.307 -18.714 -21.191  0.00  0.00    +0.015 C 
ATOM     18  C   UNL     1      34.006 -19.450 -21.256  0.00  0.00    +0.015 C 
BRANCH  16  20
ATOM     19  O   UNL     1      34.468 -15.758 -21.982  0.00  0.00    -0.252 OA
ATOM     20  N   UNL     1      34.820 -17.882 -22.905  0.00  0.00    -0.268 N 
ATOM     21  N   UNL     1      34.387 -16.090 -24.295  0.00  0.00    -0.268 N 
ATOM     22  C   UNL     1      34.548 -16.493 -22.960  0.00  0.00    +0.308 C 
ATOM     23  H   UNL     1      34.855 -18.346 -23.773  0.00  0.00    +0.156 HD
ATOM     24  H   UNL     1      34.481 -16.796 -24.975  0.00  0.00    +0.156 HD
BRANCH  21  26
ATOM     25  F   UNL     1      33.441 -11.446 -23.520  0.00  0.00    -0.204 F 
ATOM     26  C   UNL     1      34.107 -14.792 -24.785  0.00  0.00    +0.054 C 
ATOM     27  C   UNL     1      33.909 -13.738 -23.893  0.00  0.00    +0.044 C 
ATOM     28  C   UNL     1      34.027 -14.567 -26.160  0.00  0.00    +0.015 C 
ATOM     29  C   UNL     1      33.631 -12.459 -24.376  0.00  0.00    +0.141 C 
ATOM     30  C   UNL     1      33.749 -13.289 -26.642  0.00  0.00    +0.004 C 
ATOM     31  C   UNL     1      33.551 -12.234 -25.750  0.00  0.00    +0.030 C 
ENDBRANCH  21  26
ENDBRANCH  16  20
ENDBRANCH   6  13
BRANCH   7  34
ATOM     32  N   UNL     1      36.587 -25.474 -13.532  0.00  0.00    -0.208 N 
ATOM     33  N   UNL     1      35.824 -24.881 -12.597  0.00  0.00    -0.176 NA
ATOM     34  C   UNL     1      35.283 -24.165 -14.698  0.00  0.00    +0.039 C 
ATOM     35  C   UNL     1      36.302 -25.080 -14.806  0.00  0.00    +0.086 C 
ATOM     36  C   UNL     1      35.031 -24.082 -13.316  0.00  0.00    +0.119 C 
BRANCH  32  37
ATOM     37  C   UNL     1      37.591 -26.431 -13.135  0.00  0.00    +0.148 C 
BRANCH  37  38
ATOM     38  C   UNL     1      38.989 -25.824 -13.098  0.00  0.00    +0.161 C 
BRANCH  38  39
ATOM     39  O   UNL     1      38.921 -24.492 -12.604  0.00  0.00    -0.380 OA
ATOM     40  H   UNL     1      39.438 -24.423 -11.786  0.00  0.00    +0.211 HD
ENDBRANCH  38  39
ENDBRANCH  37  38
ENDBRANCH  32  37
ENDBRANCH   7  34
TORSDOF 7
ENDMDL
MODEL 6
REMARK VINA RESULT:      -9.6      4.165     12.610
REMARK  Name = 46207586
REMARK  7 active torsions:
REMARK  status: ('A' for Active; 'I' for Inactive)
REMARK    1  A    between atoms: C_6  and  C_13
REMARK    2  A    between atoms: C_7  and  C_34
REMARK    3  A    between atoms: C_16  and  N_20
REMARK    4  A    between atoms: N_21  and  C_26
REMARK    5  A    between atoms: N_32  and  C_37
REMARK    6  A    between atoms: C_37  and  C_38
REMARK    7  A    between atoms: C_38  and  O_39
REMARK                            x       y       z     vdW  Elec       q    Type
REMARK                         _______ _______ _______ _____ _____    ______ ____
ROOT
ATOM      1  S   UNL     1      33.944  -8.594 -23.916  0.00  0.00    -0.086 S 
ATOM      2  N   UNL     1      31.261  -9.469 -20.437  0.00  0.00    -0.230 NA
ATOM      3  N   UNL     1      31.963 -11.725 -20.519  0.00  0.00    -0.343 N 
ATOM      4  C   UNL     1      32.854 -10.102 -22.120  0.00  0.00    +0.038 C 
ATOM      5  C   UNL     1      32.872  -8.782 -22.579  0.00  0.00    +0.034 C 
ATOM      6  C   UNL     1      33.736 -10.931 -22.892  0.00  0.00    +0.010 C 
ATOM      7  C   UNL     1      32.087  -7.792 -21.975  0.00  0.00    +0.028 C 
ATOM      8  C   UNL     1      32.025 -10.413 -21.031  0.00  0.00    +0.126 C 
ATOM      9  C   UNL     1      34.383 -10.241 -23.889  0.00  0.00    +0.036 C 
ATOM     10  C   UNL     1      31.307  -8.209 -20.911  0.00  0.00    +0.101 C 
ATOM     11  H   UNL     1      31.376 -11.928 -19.755  0.00  0.00    +0.144 HD
ATOM     12  H   UNL     1      32.506 -12.438 -20.926  0.00  0.00    +0.144 HD
ENDROOT
BRANCH   6  13
ATOM     13  C   UNL     1      34.000 -12.340 -22.736  0.00  0.00    +0.001 C 
ATOM     14  C   UNL     1      33.629 -13.236 -23.738  0.00  0.00    +0.001 C 
ATOM     15  C   UNL     1      34.627 -12.808 -21.581  0.00  0.00    +0.001 C 
ATOM     16  C   UNL     1      34.512 -15.065 -22.432  0.00  0.00    +0.052 C 
ATOM     17  C   UNL     1      33.885 -14.599 -23.587  0.00  0.00    +0.015 C 
ATOM     18  C   UNL     1      34.884 -14.171 -21.429  0.00  0.00    +0.015 C 
BRANCH  16  20
ATOM     19  O   UNL     1      34.861 -16.698 -19.955  0.00  0.00    -0.252 OA
ATOM     20  N   UNL     1      34.769 -16.429 -22.281  0.00  0.00    -0.268 N 
ATOM     21  N   UNL     1      35.176 -18.519 -21.387  0.00  0.00    -0.268 N 
ATOM     22  C   UNL     1      34.930 -17.171 -21.085  0.00  0.00    +0.308 C 
ATOM     23  H   UNL     1      34.851 -16.943 -23.116  0.00  0.00    +0.156 HD
ATOM     24  H   UNL     1      35.202 -18.750 -22.344  0.00  0.00    +0.156 HD
BRANCH  21  26
ATOM     25  F   UNL     1      33.508 -22.212 -18.811  0.00  0.00    -0.204 F 
ATOM     26  C   UNL     1      35.392 -19.589 -20.486  0.00  0.00    +0.054 C 
ATOM     27  C   UNL     1      34.322 -20.389 -20.086  0.00  0.00    +0.044 C 
ATOM     28  C   UNL     1      36.674 -19.842 -19.998  0.00  0.00    +0.015 C 
ATOM     29  C   UNL     1      34.534 -21.443 -19.196  0.00  0.00    +0.141 C 
ATOM     30  C   UNL     1      36.886 -20.896 -19.109  0.00  0.00    +0.004 C 
ATOM     31  C   UNL     1      35.816 -21.696 -18.708  0.00  0.00    +0.030 C 
ENDBRANCH  21  26
ENDBRANCH  16  20
ENDBRANCH   6  13
BRANCH   7  34
ATOM     32  N   UNL     1      31.695  -4.661 -23.642  0.00  0.00    -0.208 N 
ATOM     33  N   UNL     1      32.463  -4.192 -22.643  0.00  0.00    -0.176 NA
ATOM     34  C   UNL     1      32.093  -6.436 -22.431  0.00  0.00    +0.039 C 
ATOM     35  C   UNL     1      31.445  -5.999 -23.561  0.00  0.00    +0.086 C 
ATOM     36  C   UNL     1      32.702  -5.280 -21.907  0.00  0.00    +0.119 C 
BRANCH  32  37
ATOM     37  C   UNL     1      31.223  -3.761 -24.666  0.00  0.00    +0.148 C 
BRANCH  37  38
ATOM     38  C   UNL     1      32.304  -3.426 -25.688  0.00  0.00    +0.161 C 
BRANCH  38  39
ATOM     39  O   UNL     1      33.569  -3.868 -25.210  0.00  0.00    -0.380 OA
ATOM     40  H   UNL     1      34.261  -3.608 -25.838  0.00  0.00    +0.211 HD
ENDBRANCH  38  39
ENDBRANCH  37  38
ENDBRANCH  32  37
ENDBRANCH   7  34
TORSDOF 7
ENDMDL
MODEL 7
REMARK VINA RESULT:      -9.5      1.609      1.986
REMARK  Name = 46207586
REMARK  7 active torsions:
REMARK  status: ('A' for Active; 'I' for Inactive)
REMARK    1  A    between atoms: C_6  and  C_13
REMARK    2  A    between atoms: C_7  and  C_34
REMARK    3  A    between atoms: C_16  and  N_20
REMARK    4  A    between atoms: N_21  and  C_26
REMARK    5  A    between atoms: N_32  and  C_37
REMARK    6  A    between atoms: C_37  and  C_38
REMARK    7  A    between atoms: C_38  and  O_39
REMARK                            x       y       z     vdW  Elec       q    Type
REMARK                         _______ _______ _______ _____ _____    ______ ____
ROOT
ATOM      1  S   UNL     1      34.518 -15.130 -20.611  0.00  0.00    -0.086 S 
ATOM      2  N   UNL     1      33.855 -15.346 -25.036  0.00  0.00    -0.230 NA
ATOM      3  N   UNL     1      33.111 -13.102 -24.990  0.00  0.00    -0.343 N 
ATOM      4  C   UNL     1      33.822 -14.203 -22.923  0.00  0.00    +0.038 C 
ATOM      5  C   UNL     1      34.313 -15.358 -22.307  0.00  0.00    +0.034 C 
ATOM      6  C   UNL     1      33.627 -13.150 -21.968  0.00  0.00    +0.010 C 
ATOM      7  C   UNL     1      34.579 -16.518 -23.046  0.00  0.00    +0.028 C 
ATOM      8  C   UNL     1      33.602 -14.234 -24.308  0.00  0.00    +0.126 C 
ATOM      9  C   UNL     1      33.965 -13.520 -20.687  0.00  0.00    +0.036 C 
ATOM     10  C   UNL     1      34.326 -16.437 -24.404  0.00  0.00    +0.101 C 
ATOM     11  H   UNL     1      32.961 -13.139 -25.962  0.00  0.00    +0.144 HD
ATOM     12  H   UNL     1      32.917 -12.275 -24.493  0.00  0.00    +0.144 HD
ENDROOT
BRANCH   6  13
ATOM     13  C   UNL     1      33.140 -11.813 -22.201  0.00  0.00    +0.001 C 
ATOM     14  C   UNL     1      33.801 -10.976 -23.099  0.00  0.00    +0.001 C 
ATOM     15  C   UNL     1      32.007 -11.357 -21.528  0.00  0.00    +0.001 C 
ATOM     16  C   UNL     1      32.196  -9.227 -22.652  0.00  0.00    +0.052 C 
ATOM     17  C   UNL     1      33.330  -9.682 -23.325  0.00  0.00    +0.015 C 
ATOM     18  C   UNL     1      31.534 -10.063 -21.754  0.00  0.00    +0.015 C 
BRANCH  16  20
ATOM     19  O   UNL     1      33.628  -6.794 -23.628  0.00  0.00    -0.252 OA
ATOM     20  N   UNL     1      31.723  -7.934 -22.878  0.00  0.00    -0.268 N 
ATOM     21  N   UNL     1      31.574  -5.696 -23.428  0.00  0.00    -0.268 N 
ATOM     22  C   UNL     1      32.435  -6.801 -23.343  0.00  0.00    +0.308 C 
ATOM     23  H   UNL     1      30.768  -7.789 -22.689  0.00  0.00    +0.156 HD
ATOM     24  H   UNL     1      30.639  -5.855 -23.165  0.00  0.00    +0.156 HD
BRANCH  21  26
ATOM     25  F   UNL     1      32.842  -2.595 -26.869  0.00  0.00    -0.204 F 
ATOM     26  C   UNL     1      31.884  -4.379 -23.846  0.00  0.00    +0.054 C 
ATOM     27  C   UNL     1      32.216  -4.132 -25.178  0.00  0.00    +0.044 C 
ATOM     28  C   UNL     1      31.858  -3.331 -22.926  0.00  0.00    +0.015 C 
ATOM     29  C   UNL     1      32.523  -2.834 -25.590  0.00  0.00    +0.141 C 
ATOM     30  C   UNL     1      32.164  -2.034 -23.339  0.00  0.00    +0.004 C 
ATOM     31  C   UNL     1      32.497  -1.786 -24.671  0.00  0.00    +0.030 C 
ENDBRANCH  21  26
ENDBRANCH  16  20
ENDBRANCH   6  13
BRANCH   7  34
ATOM     32  N   UNL     1      36.183 -19.035 -21.090  0.00  0.00    -0.208 N 
ATOM     33  N   UNL     1      35.525 -19.885 -21.897  0.00  0.00    -0.176 NA
ATOM     34  C   UNL     1      35.083 -17.709 -22.433  0.00  0.00    +0.039 C 
ATOM     35  C   UNL     1      35.953 -17.720 -21.370  0.00  0.00    +0.086 C 
ATOM     36  C   UNL     1      34.855 -19.069 -22.714  0.00  0.00    +0.119 C 
BRANCH  32  37
ATOM     37  C   UNL     1      37.037 -19.552 -20.049  0.00  0.00    +0.148 C 
BRANCH  37  38
ATOM     38  C   UNL     1      36.457 -20.797 -19.386  0.00  0.00    +0.161 C 
BRANCH  38  39
ATOM     39  O   UNL     1      35.066 -20.612 -19.154  0.00  0.00    -0.380 OA
ATOM     40  H   UNL     1      34.776 -19.785 -19.570  0.00  0.00    +0.211 HD
ENDBRANCH  38  39
ENDBRANCH  37  38
ENDBRANCH  32  37
ENDBRANCH   7  34
TORSDOF 7
ENDMDL
MODEL 8
REMARK VINA RESULT:      -9.4      5.766     13.544
REMARK  Name = 46207586
REMARK  7 active torsions:
REMARK  status: ('A' for Active; 'I' for Inactive)
REMARK    1  A    between atoms: C_6  and  C_13
REMARK    2  A    between atoms: C_7  and  C_34
REMARK    3  A    between atoms: C_16  and  N_20
REMARK    4  A    between atoms: N_21  and  C_26
REMARK    5  A    between atoms: N_32  and  C_37
REMARK    6  A    between atoms: C_37  and  C_38
REMARK    7  A    between atoms: C_38  and  O_39
REMARK                            x       y       z     vdW  Elec       q    Type
REMARK                         _______ _______ _______ _____ _____    ______ ____
ROOT
ATOM      1  S   UNL     1      34.903 -14.974 -22.105  0.00  0.00    -0.086 S 
ATOM      2  N   UNL     1      33.960 -18.296 -24.958  0.00  0.00    -0.230 NA
ATOM      3  N   UNL     1      34.566 -19.849 -23.282  0.00  0.00    -0.343 N 
ATOM      4  C   UNL     1      34.688 -17.446 -22.832  0.00  0.00    +0.038 C 
ATOM      5  C   UNL     1      34.502 -16.144 -23.305  0.00  0.00    +0.034 C 
ATOM      6  C   UNL     1      35.161 -17.442 -21.477  0.00  0.00    +0.010 C 
ATOM      7  C   UNL     1      34.045 -15.902 -24.607  0.00  0.00    +0.028 C 
ATOM      8  C   UNL     1      34.402 -18.512 -23.698  0.00  0.00    +0.126 C 
ATOM      9  C   UNL     1      35.317 -16.175 -20.968  0.00  0.00    +0.036 C 
ATOM     10  C   UNL     1      33.795 -17.026 -25.375  0.00  0.00    +0.101 C 
ATOM     11  H   UNL     1      34.362 -20.587 -23.901  0.00  0.00    +0.144 HD
ATOM     12  H   UNL     1      34.886 -20.044 -22.371  0.00  0.00    +0.144 HD
ENDROOT
BRANCH   6  13
ATOM     13  C   UNL     1      35.470 -18.573 -20.637  0.00  0.00    +0.001 C 
ATOM     14  C   UNL     1      36.786 -18.809 -20.240  0.00  0.00    +0.001 C 
ATOM     15  C   UNL     1      34.452 -19.431 -20.220  0.00  0.00    +0.001 C 
ATOM     16  C   UNL     1      36.066 -20.760 -19.011  0.00  0.00    +0.052 C 
ATOM     17  C   UNL     1      37.085 -19.903 -19.427  0.00  0.00    +0.015 C 
ATOM     18  C   UNL     1      34.750 -20.525 -19.407  0.00  0.00    +0.015 C 
BRANCH  16  20
ATOM     19  O   UNL     1      36.837 -20.863 -16.127  0.00  0.00    -0.252 OA
ATOM     20  N   UNL     1      36.365 -21.854 -18.197  0.00  0.00    -0.268 N 
ATOM     21  N   UNL     1      36.942 -23.183 -16.399  0.00  0.00    -0.268 N 
ATOM     22  C   UNL     1      36.728 -21.864 -16.828  0.00  0.00    +0.308 C 
ATOM     23  H   UNL     1      36.317 -22.736 -18.632  0.00  0.00    +0.156 HD
ATOM     24  H   UNL     1      36.815 -23.885 -17.078  0.00  0.00    +0.156 HD
BRANCH  21  26
ATOM     25  F   UNL     1      40.109 -25.281 -13.462  0.00  0.00    -0.204 F 
ATOM     26  C   UNL     1      37.317 -23.630 -15.109  0.00  0.00    +0.054 C 
ATOM     27  C   UNL     1      38.552 -24.247 -14.918  0.00  0.00    +0.044 C 
ATOM     28  C   UNL     1      36.449 -23.454 -14.031  0.00  0.00    +0.015 C 
ATOM     29  C   UNL     1      38.922 -24.689 -13.647  0.00  0.00    +0.141 C 
ATOM     30  C   UNL     1      36.819 -23.896 -12.760  0.00  0.00    +0.004 C 
ATOM     31  C   UNL     1      38.055 -24.513 -12.569  0.00  0.00    +0.030 C 
ENDBRANCH  21  26
ENDBRANCH  16  20
ENDBRANCH   6  13
BRANCH   7  34
ATOM     32  N   UNL     1      33.442 -12.431 -25.171  0.00  0.00    -0.208 N 
ATOM     33  N   UNL     1      33.654 -12.746 -26.460  0.00  0.00    -0.176 NA
ATOM     34  C   UNL     1      33.848 -14.576 -25.108  0.00  0.00    +0.039 C 
ATOM     35  C   UNL     1      33.546 -13.492 -24.320  0.00  0.00    +0.086 C 
ATOM     36  C   UNL     1      33.902 -14.057 -26.415  0.00  0.00    +0.119 C 
BRANCH  32  37
ATOM     37  C   UNL     1      33.136 -11.068 -24.808  0.00  0.00    +0.148 C 
BRANCH  37  38
ATOM     38  C   UNL     1      33.976 -10.577 -23.633  0.00  0.00    +0.161 C 
BRANCH  38  39
ATOM     39  O   UNL     1      35.328 -10.420 -24.044  0.00  0.00    -0.380 OA
ATOM     40  H   UNL     1      35.354 -10.146 -24.975  0.00  0.00    +0.211 HD
ENDBRANCH  38  39
ENDBRANCH  37  38
ENDBRANCH  32  37
ENDBRANCH   7  34
TORSDOF 7
ENDMDL
MODEL 9
REMARK VINA RESULT:      -9.2      5.507     13.437
REMARK  Name = 46207586
REMARK  7 active torsions:
REMARK  status: ('A' for Active; 'I' for Inactive)
REMARK    1  A    between atoms: C_6  and  C_13
REMARK    2  A    between atoms: C_7  and  C_34
REMARK    3  A    between atoms: C_16  and  N_20
REMARK    4  A    between atoms: N_21  and  C_26
REMARK    5  A    between atoms: N_32  and  C_37
REMARK    6  A    between atoms: C_37  and  C_38
REMARK    7  A    between atoms: C_38  and  O_39
REMARK                            x       y       z     vdW  Elec       q    Type
REMARK                         _______ _______ _______ _____ _____    ______ ____
ROOT
ATOM      1  S   UNL     1      34.918 -14.953 -22.087  0.00  0.00    -0.086 S 
ATOM      2  N   UNL     1      33.942 -18.246 -24.963  0.00  0.00    -0.230 NA
ATOM      3  N   UNL     1      34.532 -19.816 -23.297  0.00  0.00    -0.343 N 
ATOM      4  C   UNL     1      34.678 -17.418 -22.831  0.00  0.00    +0.038 C 
ATOM      5  C   UNL     1      34.506 -16.111 -23.296  0.00  0.00    +0.034 C 
ATOM      6  C   UNL     1      35.150 -17.428 -21.476  0.00  0.00    +0.010 C 
ATOM      7  C   UNL     1      34.051 -15.856 -24.596  0.00  0.00    +0.028 C 
ATOM      8  C   UNL     1      34.382 -18.475 -23.705  0.00  0.00    +0.126 C 
ATOM      9  C   UNL     1      35.319 -16.165 -20.959  0.00  0.00    +0.036 C 
ATOM     10  C   UNL     1      33.790 -16.971 -25.371  0.00  0.00    +0.101 C 
ATOM     11  H   UNL     1      34.321 -20.548 -23.921  0.00  0.00    +0.144 HD
ATOM     12  H   UNL     1      34.849 -20.021 -22.388  0.00  0.00    +0.144 HD
ENDROOT
BRANCH   6  13
ATOM     13  C   UNL     1      35.447 -18.567 -20.643  0.00  0.00    +0.001 C 
ATOM     14  C   UNL     1      36.762 -18.823 -20.253  0.00  0.00    +0.001 C 
ATOM     15  C   UNL     1      34.420 -19.413 -20.227  0.00  0.00    +0.001 C 
ATOM     16  C   UNL     1      36.021 -20.771 -19.032  0.00  0.00    +0.052 C 
ATOM     17  C   UNL     1      37.049 -19.925 -19.447  0.00  0.00    +0.015 C 
ATOM     18  C   UNL     1      34.706 -20.516 -19.421  0.00  0.00    +0.015 C 
BRANCH  16  20
ATOM     19  O   UNL     1      36.687 -20.909 -16.123  0.00  0.00    -0.252 OA
ATOM     20  N   UNL     1      36.308 -21.873 -18.225  0.00  0.00    -0.268 N 
ATOM     21  N   UNL     1      36.840 -23.222 -16.428  0.00  0.00    -0.268 N 
ATOM     22  C   UNL     1      36.621 -21.899 -16.844  0.00  0.00    +0.308 C 
ATOM     23  H   UNL     1      36.290 -22.748 -18.676  0.00  0.00    +0.156 HD
ATOM     24  H   UNL     1      36.751 -23.914 -17.122  0.00  0.00    +0.156 HD
BRANCH  21  26
ATOM     25  F   UNL     1      35.673 -23.983 -11.833  0.00  0.00    -0.204 F 
ATOM     26  C   UNL     1      37.175 -23.684 -15.133  0.00  0.00    +0.054 C 
ATOM     27  C   UNL     1      36.240 -23.605 -14.102  0.00  0.00    +0.044 C 
ATOM     28  C   UNL     1      38.441 -24.217 -14.888  0.00  0.00    +0.015 C 
ATOM     29  C   UNL     1      36.570 -24.059 -12.824  0.00  0.00    +0.141 C 
ATOM     30  C   UNL     1      38.771 -24.672 -13.611  0.00  0.00    +0.004 C 
ATOM     31  C   UNL     1      37.836 -24.592 -12.579  0.00  0.00    +0.030 C 
ENDBRANCH  21  26
ENDBRANCH  16  20
ENDBRANCH   6  13
BRANCH   7  34
ATOM     32  N   UNL     1      33.428 -12.385 -25.146  0.00  0.00    -0.208 N 
ATOM     33  N   UNL     1      33.743 -12.674 -26.421  0.00  0.00    -0.176 NA
ATOM     34  C   UNL     1      33.868 -14.525 -25.088  0.00  0.00    +0.039 C 
ATOM     35  C   UNL     1      33.488 -13.460 -24.308  0.00  0.00    +0.086 C 
ATOM     36  C   UNL     1      34.011 -13.981 -26.378  0.00  0.00    +0.119 C 
BRANCH  32  37
ATOM     37  C   UNL     1      33.070 -11.035 -24.784  0.00  0.00    +0.148 C 
BRANCH  37  38
ATOM     38  C   UNL     1      34.154 -10.348 -23.961  0.00  0.00    +0.161 C 
BRANCH  38  39
ATOM     39  O   UNL     1      35.399 -10.428 -24.645  0.00  0.00    -0.380 OA
ATOM     40  H   UNL     1      35.275 -10.893 -25.487  0.00  0.00    +0.211 HD
ENDBRANCH  38  39
ENDBRANCH  37  38
ENDBRANCH  32  37
ENDBRANCH   7  34
TORSDOF 7
ENDMDL
