MODEL 1
REMARK VINA RESULT:     -11.7      0.000      0.000
REMARK  Name = 24780387
REMARK  3 active torsions:
REMARK  status: ('A' for Active; 'I' for Inactive)
REMARK    1  A    between atoms: N_3  and  C_25
REMARK    2  A    between atoms: C_18  and  O_23
REMARK    3  A    between atoms: C_25  and  N_26
REMARK                            x       y       z     vdW  Elec       q    Type
REMARK                         _______ _______ _______ _____ _____    ______ ____
ROOT
ATOM      1  O   UNL     1      32.436 -22.317 -18.554  0.00  0.00    -0.270 OA
ATOM      2  O   UNL     1      36.582 -22.732 -16.556  0.00  0.00    -0.270 OA
ATOM      3  N   UNL     1      34.694 -22.436 -17.908  0.00  0.00    -0.244 N 
ATOM      4  N   UNL     1      33.598 -23.789 -12.366  0.00  0.00    -0.353 N 
ATOM      5  C   UNL     1      31.955 -22.991 -15.634  0.00  0.00    -0.020 A 
ATOM      6  C   UNL     1      32.028 -23.327 -14.274  0.00  0.00    -0.010 A 
ATOM      7  C   UNL     1      33.116 -22.818 -16.337  0.00  0.00    +0.054 A 
ATOM      8  C   UNL     1      30.534 -22.926 -16.093  0.00  0.00    +0.027 C 
ATOM      9  C   UNL     1      30.650 -23.522 -13.705  0.00  0.00    +0.028 C 
ATOM     10  C   UNL     1      33.280 -23.466 -13.659  0.00  0.00    +0.052 A 
ATOM     11  C   UNL     1      34.360 -22.950 -15.721  0.00  0.00    +0.059 A 
ATOM     12  C   UNL     1      29.792 -22.802 -14.754  0.00  0.00    +0.009 C 
ATOM     13  C   UNL     1      34.487 -23.279 -14.358  0.00  0.00    +0.024 A 
ATOM     14  C   UNL     1      33.330 -22.490 -17.746  0.00  0.00    +0.253 C 
ATOM     15  C   UNL     1      35.380 -22.701 -16.740  0.00  0.00    +0.253 C 
ATOM     16  C   UNL     1      35.550 -23.496 -13.416  0.00  0.00    +0.051 A 
ATOM     17  C   UNL     1      34.960 -23.811 -12.188  0.00  0.00    +0.060 A 
ATOM     18  C   UNL     1      36.960 -23.460 -13.472  0.00  0.00    +0.140 C 
ATOM     19  C   UNL     1      35.700 -24.088 -11.031  0.00  0.00    +0.017 C 
ATOM     20  C   UNL     1      37.715 -23.734 -12.324  0.00  0.00    +0.037 C 
ATOM     21  C   UNL     1      37.091 -24.044 -11.120  0.00  0.00    +0.005 C 
ATOM     22  H   UNL     1      32.940 -23.979 -11.658  0.00  0.00    +0.166 HD
ENDROOT
BRANCH  18  23
ATOM     23  O   UNL     1      37.696 -23.162 -14.584  0.00  0.00    -0.471 OA
ATOM     24  C   UNL     1      38.849 -23.963 -14.828  0.00  0.00    +0.252 C 
ENDBRANCH  18  23
BRANCH   3  25
ATOM     25  C   UNL     1      35.355 -22.138 -19.164  0.00  0.00    +0.028 C 
BRANCH  25  26
ATOM     26  N   UNL     1      35.274 -20.701 -19.417  0.00  0.00    +0.396 N 
ATOM     27  N   UNL     1      35.480 -18.368 -21.113  0.00  0.00    +0.383 N 
ATOM     28  C   UNL     1      36.580 -20.169 -19.829  0.00  0.00    -0.098 C 
ATOM     29  C   UNL     1      34.258 -20.407 -20.436  0.00  0.00    -0.098 C 
ATOM     30  C   UNL     1      36.496 -18.663 -20.096  0.00  0.00    -0.101 C 
ATOM     31  C   UNL     1      34.174 -18.900 -20.702  0.00  0.00    -0.101 C 
ATOM     32  C   UNL     1      35.399 -16.930 -21.364  0.00  0.00    -0.101 C 
ATOM     33  H   UNL     1      35.001 -20.243 -18.548  0.00  0.00    -0.077 HD
ATOM     34  H   UNL     1      35.753 -18.825 -21.983  0.00  0.00    -0.080 HD
ENDBRANCH  25  26
ENDBRANCH   3  25
TORSDOF 3
ENDMDL
MODEL 2
REMARK VINA RESULT:     -10.8      2.582      6.772
REMARK  Name = 24780387
REMARK  3 active torsions:
REMARK  status: ('A' for Active; 'I' for Inactive)
REMARK    1  A    between atoms: N_3  and  C_25
REMARK    2  A    between atoms: C_18  and  O_23
REMARK    3  A    between atoms: C_25  and  N_26
REMARK                            x       y       z     vdW  Elec       q    Type
REMARK                         _______ _______ _______ _____ _____    ______ ____
ROOT
ATOM      1  O   UNL     1      32.310 -25.051 -12.347  0.00  0.00    -0.270 OA
ATOM      2  O   UNL     1      32.033 -23.471 -16.680  0.00  0.00    -0.270 OA
ATOM      3  N   UNL     1      31.784 -24.386 -14.540  0.00  0.00    -0.244 N 
ATOM      4  N   UNL     1      37.009 -22.120 -15.684  0.00  0.00    -0.353 N 
ATOM      5  C   UNL     1      34.999 -23.813 -13.017  0.00  0.00    -0.020 A 
ATOM      6  C   UNL     1      36.123 -23.206 -13.597  0.00  0.00    -0.010 A 
ATOM      7  C   UNL     1      33.857 -23.940 -13.761  0.00  0.00    +0.054 A 
ATOM      8  C   UNL     1      35.296 -24.272 -11.627  0.00  0.00    +0.027 C 
ATOM      9  C   UNL     1      37.279 -23.214 -12.637  0.00  0.00    +0.028 C 
ATOM     10  C   UNL     1      36.054 -22.733 -14.915  0.00  0.00    +0.052 A 
ATOM     11  C   UNL     1      33.790 -23.462 -15.069  0.00  0.00    +0.059 A 
ATOM     12  C   UNL     1      36.557 -23.455 -11.305  0.00  0.00    +0.009 C 
ATOM     13  C   UNL     1      34.887 -22.839 -15.694  0.00  0.00    +0.024 A 
ATOM     14  C   UNL     1      32.567 -24.538 -13.420  0.00  0.00    +0.253 C 
ATOM     15  C   UNL     1      32.445 -23.751 -15.571  0.00  0.00    +0.253 C 
ATOM     16  C   UNL     1      35.185 -22.250 -16.970  0.00  0.00    +0.051 A 
ATOM     17  C   UNL     1      36.512 -21.813 -16.928  0.00  0.00    +0.060 A 
ATOM     18  C   UNL     1      34.466 -22.037 -18.167  0.00  0.00    +0.140 C 
ATOM     19  C   UNL     1      37.148 -21.185 -18.007  0.00  0.00    +0.017 C 
ATOM     20  C   UNL     1      35.086 -21.410 -19.255  0.00  0.00    +0.037 C 
ATOM     21  C   UNL     1      36.410 -20.990 -19.174  0.00  0.00    +0.005 C 
ATOM     22  H   UNL     1      37.928 -21.925 -15.387  0.00  0.00    +0.166 HD
ENDROOT
BRANCH  18  23
ATOM     23  O   UNL     1      33.163 -22.391 -18.375  0.00  0.00    -0.471 OA
ATOM     24  C   UNL     1      32.306 -21.397 -18.929  0.00  0.00    +0.252 C 
ENDBRANCH  18  23
BRANCH   3  25
ATOM     25  C   UNL     1      30.410 -24.842 -14.643  0.00  0.00    +0.028 C 
BRANCH  25  26
ATOM     26  N   UNL     1      29.620 -23.826 -15.334  0.00  0.00    +0.396 N 
ATOM     27  N   UNL     1      27.132 -22.520 -16.014  0.00  0.00    +0.383 N 
ATOM     28  C   UNL     1      28.658 -24.448 -16.253  0.00  0.00    -0.098 C 
ATOM     29  C   UNL     1      28.924 -22.963 -14.371  0.00  0.00    -0.098 C 
ATOM     30  C   UNL     1      27.827 -23.383 -16.976  0.00  0.00    -0.101 C 
ATOM     31  C   UNL     1      28.093 -21.897 -15.095  0.00  0.00    -0.101 C 
ATOM     32  C   UNL     1      26.343 -21.503 -16.707  0.00  0.00    -0.101 C 
ATOM     33  H   UNL     1      30.258 -23.248 -15.880  0.00  0.00    -0.077 HD
ATOM     34  H   UNL     1      26.493 -23.096 -15.469  0.00  0.00    -0.080 HD
ENDBRANCH  25  26
ENDBRANCH   3  25
TORSDOF 3
ENDMDL
MODEL 3
REMARK VINA RESULT:      -9.6      2.560      7.217
REMARK  Name = 24780387
REMARK  3 active torsions:
REMARK  status: ('A' for Active; 'I' for Inactive)
REMARK    1  A    between atoms: N_3  and  C_25
REMARK    2  A    between atoms: C_18  and  O_23
REMARK    3  A    between atoms: C_25  and  N_26
REMARK                            x       y       z     vdW  Elec       q    Type
REMARK                         _______ _______ _______ _____ _____    ______ ____
ROOT
ATOM      1  O   UNL     1      37.143 -22.898 -15.593  0.00  0.00    -0.270 OA
ATOM      2  O   UNL     1      33.394 -23.959 -13.110  0.00  0.00    -0.270 OA
ATOM      3  N   UNL     1      35.502 -23.541 -14.037  0.00  0.00    -0.244 N 
ATOM      4  N   UNL     1      30.986 -22.370 -17.498  0.00  0.00    -0.353 N 
ATOM      5  C   UNL     1      34.725 -22.280 -17.322  0.00  0.00    -0.020 A 
ATOM      6  C   UNL     1      33.456 -22.113 -17.894  0.00  0.00    -0.010 A 
ATOM      7  C   UNL     1      34.818 -22.776 -16.049  0.00  0.00    +0.054 A 
ATOM      8  C   UNL     1      35.801 -21.903 -18.287  0.00  0.00    +0.027 C 
ATOM      9  C   UNL     1      33.577 -21.611 -19.306  0.00  0.00    +0.028 C 
ATOM     10  C   UNL     1      32.311 -22.442 -17.154  0.00  0.00    +0.052 A 
ATOM     11  C   UNL     1      33.677 -23.095 -15.313  0.00  0.00    +0.059 A 
ATOM     12  C   UNL     1      35.011 -21.066 -19.305  0.00  0.00    +0.009 C 
ATOM     13  C   UNL     1      32.381 -22.939 -15.839  0.00  0.00    +0.024 A 
ATOM     14  C   UNL     1      35.994 -23.065 -15.229  0.00  0.00    +0.253 C 
ATOM     15  C   UNL     1      34.124 -23.589 -14.010  0.00  0.00    +0.253 C 
ATOM     16  C   UNL     1      31.029 -23.154 -15.405  0.00  0.00    +0.051 A 
ATOM     17  C   UNL     1      30.188 -22.790 -16.462  0.00  0.00    +0.060 A 
ATOM     18  C   UNL     1      30.420 -23.623 -14.220  0.00  0.00    +0.140 C 
ATOM     19  C   UNL     1      28.792 -22.871 -16.393  0.00  0.00    +0.017 C 
ATOM     20  C   UNL     1      29.025 -23.710 -14.135  0.00  0.00    +0.037 C 
ATOM     21  C   UNL     1      28.223 -23.338 -15.208  0.00  0.00    +0.005 C 
ATOM     22  H   UNL     1      30.650 -22.060 -18.371  0.00  0.00    +0.166 HD
ENDROOT
BRANCH  18  23
ATOM     23  O   UNL     1      31.089 -24.011 -13.093  0.00  0.00    -0.471 OA
ATOM     24  C   UNL     1      30.452 -24.982 -12.268  0.00  0.00    +0.252 C 
ENDBRANCH  18  23
BRANCH   3  25
ATOM     25  C   UNL     1      36.331 -23.954 -12.920  0.00  0.00    +0.028 C 
BRANCH  25  26
ATOM     26  N   UNL     1      37.569 -24.537 -13.432  0.00  0.00    +0.396 N 
ATOM     27  N   UNL     1      39.844 -26.313 -13.262  0.00  0.00    +0.383 N 
ATOM     28  C   UNL     1      38.692 -24.253 -12.530  0.00  0.00    -0.098 C 
ATOM     29  C   UNL     1      37.421 -25.984 -13.628  0.00  0.00    -0.098 C 
ATOM     30  C   UNL     1      39.991 -24.866 -13.065  0.00  0.00    -0.101 C 
ATOM     31  C   UNL     1      38.720 -26.596 -14.165  0.00  0.00    -0.101 C 
ATOM     32  C   UNL     1      41.082 -26.895 -13.776  0.00  0.00    -0.101 C 
ATOM     33  H   UNL     1      37.768 -24.108 -14.336  0.00  0.00    -0.077 HD
ATOM     34  H   UNL     1      39.646 -26.742 -12.359  0.00  0.00    -0.080 HD
ENDBRANCH  25  26
ENDBRANCH   3  25
TORSDOF 3
ENDMDL
MODEL 4
REMARK VINA RESULT:      -9.3      1.183      4.502
REMARK  Name = 24780387
REMARK  3 active torsions:
REMARK  status: ('A' for Active; 'I' for Inactive)
REMARK    1  A    between atoms: N_3  and  C_25
REMARK    2  A    between atoms: C_18  and  O_23
REMARK    3  A    between atoms: C_25  and  N_26
REMARK                            x       y       z     vdW  Elec       q    Type
REMARK                         _______ _______ _______ _____ _____    ______ ____
ROOT
ATOM      1  O   UNL     1      36.772 -22.099 -17.796  0.00  0.00    -0.270 OA
ATOM      2  O   UNL     1      32.191 -22.701 -17.750  0.00  0.00    -0.270 OA
ATOM      3  N   UNL     1      34.459 -22.294 -18.167  0.00  0.00    -0.244 N 
ATOM      4  N   UNL     1      33.184 -23.961 -12.749  0.00  0.00    -0.353 N 
ATOM      5  C   UNL     1      36.021 -23.010 -15.000  0.00  0.00    -0.020 A 
ATOM      6  C   UNL     1      35.396 -23.411 -13.810  0.00  0.00    -0.010 A 
ATOM      7  C   UNL     1      35.252 -22.786 -16.110  0.00  0.00    +0.054 A 
ATOM      8  C   UNL     1      37.494 -22.852 -14.803  0.00  0.00    +0.027 C 
ATOM      9  C   UNL     1      36.407 -23.550 -12.706  0.00  0.00    +0.028 C 
ATOM     10  C   UNL     1      34.006 -23.587 -13.781  0.00  0.00    +0.052 A 
ATOM     11  C   UNL     1      33.870 -22.968 -16.079  0.00  0.00    +0.059 A 
ATOM     12  C   UNL     1      37.711 -23.649 -13.508  0.00  0.00    +0.009 C 
ATOM     13  C   UNL     1      33.196 -23.376 -14.912  0.00  0.00    +0.024 A 
ATOM     14  C   UNL     1      35.632 -22.349 -17.452  0.00  0.00    +0.253 C 
ATOM     15  C   UNL     1      33.359 -22.650 -17.413  0.00  0.00    +0.253 C 
ATOM     16  C   UNL     1      31.844 -23.653 -14.513  0.00  0.00    +0.051 A 
ATOM     17  C   UNL     1      31.875 -24.014 -13.162  0.00  0.00    +0.060 A 
ATOM     18  C   UNL     1      30.587 -23.637 -15.155  0.00  0.00    +0.140 C 
ATOM     19  C   UNL     1      30.728 -24.354 -12.433  0.00  0.00    +0.017 C 
ATOM     20  C   UNL     1      29.430 -23.974 -14.441  0.00  0.00    +0.037 C 
ATOM     21  C   UNL     1      29.502 -24.328 -13.097  0.00  0.00    +0.005 C 
ATOM     22  H   UNL     1      33.490 -24.166 -11.836  0.00  0.00    +0.166 HD
ENDROOT
BRANCH  18  23
ATOM     23  O   UNL     1      30.378 -23.318 -16.467  0.00  0.00    -0.471 OA
ATOM     24  C   UNL     1      29.037 -23.032 -16.855  0.00  0.00    +0.252 C 
ENDBRANCH  18  23
BRANCH   3  25
ATOM     25  C   UNL     1      34.370 -21.904 -19.561  0.00  0.00    +0.028 C 
BRANCH  25  26
ATOM     26  N   UNL     1      34.685 -20.482 -19.680  0.00  0.00    +0.396 N 
ATOM     27  N   UNL     1      35.333 -18.104 -21.193  0.00  0.00    +0.383 N 
ATOM     28  C   UNL     1      36.018 -20.290 -20.265  0.00  0.00    -0.098 C 
ATOM     29  C   UNL     1      33.669 -19.788 -20.481  0.00  0.00    -0.098 C 
ATOM     30  C   UNL     1      36.349 -18.799 -20.393  0.00  0.00    -0.101 C 
ATOM     31  C   UNL     1      34.000 -18.296 -20.608  0.00  0.00    -0.101 C 
ATOM     32  C   UNL     1      35.648 -16.682 -21.310  0.00  0.00    -0.101 C 
ATOM     33  H   UNL     1      34.685 -20.080 -18.743  0.00  0.00    -0.077 HD
ATOM     34  H   UNL     1      35.333 -18.505 -22.130  0.00  0.00    -0.080 HD
ENDBRANCH  25  26
ENDBRANCH   3  25
TORSDOF 3
ENDMDL
