MODEL 1
REMARK VINA RESULT:     -11.7      0.000      0.000
REMARK  Name = 11955716
REMARK  6 active torsions:
REMARK  status: ('A' for Active; 'I' for Inactive)
REMARK    1  A    between atoms: C_4  and  C_25
REMARK    2  A    between atoms: C_11  and  C_12
REMARK    3  A    between atoms: C_13  and  C_18
REMARK    4  A    between atoms: C_15  and  O_21
REMARK    5  A    between atoms: C_16  and  O_23
REMARK    6  A    between atoms: C_25  and  N_26
REMARK                            x       y       z     vdW  Elec       q    Type
REMARK                         _______ _______ _______ _____ _____    ______ ____
ROOT
ATOM      1  O   UNL     1      33.691 -12.303 -25.279  0.00  0.00    -0.269 OA
ATOM      2  N   UNL     1      34.221 -13.395 -23.296  0.00  0.00    -0.231 N 
ATOM      3  C   UNL     1      34.724 -15.600 -22.745  0.00  0.00    +0.016 C 
ATOM      4  C   UNL     1      35.237 -17.578 -21.516  0.00  0.00    -0.043 C 
ATOM      5  C   UNL     1      34.707 -14.863 -21.554  0.00  0.00    +0.016 C 
ATOM      6  C   UNL     1      34.430 -14.713 -23.908  0.00  0.00    +0.072 C 
ATOM      7  C   UNL     1      34.404 -13.428 -21.834  0.00  0.00    +0.072 C 
ATOM      8  C   UNL     1      34.988 -16.957 -22.742  0.00  0.00    -0.005 C 
ATOM      9  C   UNL     1      35.220 -16.840 -20.321  0.00  0.00    -0.006 C 
ATOM     10  C   UNL     1      34.953 -15.469 -20.335  0.00  0.00    +0.001 C 
ATOM     11  C   UNL     1      33.836 -12.302 -24.060  0.00  0.00    +0.259 C 
ENDROOT
BRANCH  11  12
ATOM     12  C   UNL     1      33.566 -11.045 -23.347  0.00  0.00    +0.088 C 
ATOM     13  C   UNL     1      32.363  -9.860 -21.623  0.00  0.00    +0.012 C 
ATOM     14  C   UNL     1      32.634 -11.043 -22.312  0.00  0.00    +0.006 C 
ATOM     15  C   UNL     1      34.229  -9.872 -23.697  0.00  0.00    +0.141 C 
ATOM     16  C   UNL     1      33.026  -8.683 -21.972  0.00  0.00    +0.133 C 
ATOM     17  C   UNL     1      33.959  -8.689 -23.009  0.00  0.00    +0.073 C 
BRANCH  13  18
ATOM     18  C   UNL     1      31.362  -9.872 -20.516  0.00  0.00    +0.025 C 
ATOM     19  C   UNL     1      32.021  -9.963 -19.128  0.00  0.00    +0.005 C 
ATOM     20  C   UNL     1      30.321 -10.996 -20.677  0.00  0.00    +0.005 C 
ENDBRANCH  13  18
BRANCH  15  21
ATOM     21  O   UNL     1      35.143  -9.858 -24.708  0.00  0.00    -0.505 OA
ATOM     22  H   UNL     1      34.961  -9.386 -25.497  0.00  0.00    +0.292 HD
ENDBRANCH  15  21
BRANCH  16  23
ATOM     23  O   UNL     1      32.773  -7.519 -21.311  0.00  0.00    -0.506 OA
ATOM     24  H   UNL     1      33.298  -6.761 -21.478  0.00  0.00    +0.292 HD
ENDBRANCH  16  23
ENDBRANCH  11  12
BRANCH   4  25
ATOM     25  C   UNL     1      35.524 -19.047 -21.473  0.00  0.00    -0.050 C 
BRANCH  25  26
ATOM     26  N   UNL     1      34.945 -19.680 -20.290  0.00  0.00    +0.387 N 
ATOM     27  N   UNL     1      33.769 -21.913 -18.880  0.00  0.00    +0.383 N 
ATOM     28  C   UNL     1      33.564 -20.104 -20.551  0.00  0.00    -0.100 C 
ATOM     29  C   UNL     1      35.758 -20.824 -19.860  0.00  0.00    -0.100 C 
ATOM     30  C   UNL     1      32.955 -20.771 -19.313  0.00  0.00    -0.101 C 
ATOM     31  C   UNL     1      35.151 -21.489 -18.620  0.00  0.00    -0.101 C 
ATOM     32  C   UNL     1      33.190 -22.545 -17.696  0.00  0.00    -0.101 C 
ATOM     33  H   UNL     1      34.934 -18.992 -19.538  0.00  0.00    -0.079 HD
ATOM     34  H   UNL     1      33.780 -22.603 -19.632  0.00  0.00    -0.080 HD
ENDBRANCH  25  26
ENDBRANCH   4  25
TORSDOF 6
ENDMDL
MODEL 2
REMARK VINA RESULT:     -11.5      5.818     11.725
REMARK  Name = 11955716
REMARK  6 active torsions:
REMARK  status: ('A' for Active; 'I' for Inactive)
REMARK    1  A    between atoms: C_4  and  C_25
REMARK    2  A    between atoms: C_11  and  C_12
REMARK    3  A    between atoms: C_13  and  C_18
REMARK    4  A    between atoms: C_15  and  O_21
REMARK    5  A    between atoms: C_16  and  O_23
REMARK    6  A    between atoms: C_25  and  N_26
REMARK                            x       y       z     vdW  Elec       q    Type
REMARK                         _______ _______ _______ _____ _____    ______ ____
ROOT
ATOM      1  O   UNL     1      35.660 -23.588 -15.614  0.00  0.00    -0.269 OA
ATOM      2  N   UNL     1      34.382 -22.523 -17.239  0.00  0.00    -0.231 N 
ATOM      3  C   UNL     1      34.886 -21.209 -19.093  0.00  0.00    +0.016 C 
ATOM      4  C   UNL     1      34.683 -19.813 -21.016  0.00  0.00    -0.043 C 
ATOM      5  C   UNL     1      33.490 -21.266 -18.986  0.00  0.00    +0.016 C 
ATOM      6  C   UNL     1      35.523 -22.007 -18.005  0.00  0.00    +0.072 C 
ATOM      7  C   UNL     1      33.092 -22.111 -17.822  0.00  0.00    +0.072 C 
ATOM      8  C   UNL     1      35.496 -20.488 -20.102  0.00  0.00    -0.005 C 
ATOM      9  C   UNL     1      33.283 -19.870 -20.909  0.00  0.00    -0.006 C 
ATOM     10  C   UNL     1      32.677 -20.602 -19.887  0.00  0.00    +0.001 C 
ATOM     11  C   UNL     1      34.571 -23.257 -16.076  0.00  0.00    +0.259 C 
ENDROOT
BRANCH  11  12
ATOM     12  C   UNL     1      33.369 -23.657 -15.331  0.00  0.00    +0.088 C 
ATOM     13  C   UNL     1      30.966 -23.639 -15.114  0.00  0.00    +0.012 C 
ATOM     14  C   UNL     1      32.119 -23.269 -15.807  0.00  0.00    +0.006 C 
ATOM     15  C   UNL     1      33.473 -24.413 -14.167  0.00  0.00    +0.141 C 
ATOM     16  C   UNL     1      31.067 -24.396 -13.947  0.00  0.00    +0.133 C 
ATOM     17  C   UNL     1      32.320 -24.783 -13.473  0.00  0.00    +0.073 C 
BRANCH  13  18
ATOM     18  C   UNL     1      29.632 -23.216 -15.636  0.00  0.00    +0.025 C 
ATOM     19  C   UNL     1      28.869 -22.323 -14.642  0.00  0.00    +0.005 C 
ATOM     20  C   UNL     1      28.755 -24.415 -16.044  0.00  0.00    +0.005 C 
ENDBRANCH  13  18
BRANCH  15  21
ATOM     21  O   UNL     1      34.689 -24.800 -13.687  0.00  0.00    -0.505 OA
ATOM     22  H   UNL     1      34.957 -24.540 -12.828  0.00  0.00    +0.292 HD
ENDBRANCH  15  21
BRANCH  16  23
ATOM     23  O   UNL     1      29.952 -24.765 -13.257  0.00  0.00    -0.506 OA
ATOM     24  H   UNL     1      29.352 -24.113 -12.953  0.00  0.00    +0.292 HD
ENDBRANCH  16  23
ENDBRANCH  11  12
BRANCH   4  25
ATOM     25  C   UNL     1      35.308 -19.019 -22.121  0.00  0.00    -0.050 C 
BRANCH  25  26
ATOM     26  N   UNL     1      34.761 -17.666 -22.196  0.00  0.00    +0.387 N 
ATOM     27  N   UNL     1      34.986 -14.817 -22.632  0.00  0.00    +0.383 N 
ATOM     28  C   UNL     1      35.398 -16.791 -21.204  0.00  0.00    -0.100 C 
ATOM     29  C   UNL     1      34.922 -17.112 -23.545  0.00  0.00    -0.100 C 
ATOM     30  C   UNL     1      34.827 -15.371 -21.283  0.00  0.00    -0.101 C 
ATOM     31  C   UNL     1      34.349 -15.693 -23.625  0.00  0.00    -0.101 C 
ATOM     32  C   UNL     1      34.437 -13.465 -22.707  0.00  0.00    -0.101 C 
ATOM     33  H   UNL     1      33.764 -17.718 -21.987  0.00  0.00    -0.079 HD
ATOM     34  H   UNL     1      35.983 -14.765 -22.843  0.00  0.00    -0.080 HD
ENDBRANCH  25  26
ENDBRANCH   4  25
TORSDOF 6
ENDMDL
MODEL 3
REMARK VINA RESULT:     -11.2      5.754     11.631
REMARK  Name = 11955716
REMARK  6 active torsions:
REMARK  status: ('A' for Active; 'I' for Inactive)
REMARK    1  A    between atoms: C_4  and  C_25
REMARK    2  A    between atoms: C_11  and  C_12
REMARK    3  A    between atoms: C_13  and  C_18
REMARK    4  A    between atoms: C_15  and  O_21
REMARK    5  A    between atoms: C_16  and  O_23
REMARK    6  A    between atoms: C_25  and  N_26
REMARK                            x       y       z     vdW  Elec       q    Type
REMARK                         _______ _______ _______ _____ _____    ______ ____
ROOT
ATOM      1  O   UNL     1      37.539 -22.630 -15.683  0.00  0.00    -0.269 OA
ATOM      2  N   UNL     1      35.901 -22.048 -17.228  0.00  0.00    -0.231 N 
ATOM      3  C   UNL     1      35.895 -20.793 -19.188  0.00  0.00    +0.016 C 
ATOM      4  C   UNL     1      35.183 -19.642 -21.151  0.00  0.00    -0.043 C 
ATOM      5  C   UNL     1      34.575 -21.191 -18.941  0.00  0.00    +0.016 C 
ATOM      6  C   UNL     1      36.803 -21.320 -18.128  0.00  0.00    +0.072 C 
ATOM      7  C   UNL     1      34.505 -22.018 -17.700  0.00  0.00    +0.072 C 
ATOM      8  C   UNL     1      36.214 -20.019 -20.288  0.00  0.00    -0.005 C 
ATOM      9  C   UNL     1      33.859 -20.041 -20.904  0.00  0.00    -0.006 C 
ATOM     10  C   UNL     1      33.547 -20.823 -19.790  0.00  0.00    +0.001 C 
ATOM     11  C   UNL     1      36.367 -22.620 -16.053  0.00  0.00    +0.259 C 
ENDROOT
BRANCH  11  12
ATOM     12  C   UNL     1      35.375 -23.253 -15.173  0.00  0.00    +0.088 C 
ATOM     13  C   UNL     1      33.062 -23.669 -14.623  0.00  0.00    +0.012 C 
ATOM     14  C   UNL     1      34.020 -23.078 -15.447  0.00  0.00    +0.006 C 
ATOM     15  C   UNL     1      35.776 -24.017 -14.080  0.00  0.00    +0.141 C 
ATOM     16  C   UNL     1      33.462 -24.436 -13.528  0.00  0.00    +0.133 C 
ATOM     17  C   UNL     1      34.819 -24.609 -13.256  0.00  0.00    +0.073 C 
BRANCH  13  18
ATOM     18  C   UNL     1      31.614 -23.473 -14.929  0.00  0.00    +0.025 C 
ATOM     19  C   UNL     1      31.384 -22.888 -16.333  0.00  0.00    +0.005 C 
ATOM     20  C   UNL     1      30.904 -22.603 -13.875  0.00  0.00    +0.005 C 
ENDBRANCH  13  18
BRANCH  15  21
ATOM     21  O   UNL     1      37.098 -24.197 -13.798  0.00  0.00    -0.505 OA
ATOM     22  H   UNL     1      37.359 -24.490 -12.947  0.00  0.00    +0.292 HD
ENDBRANCH  15  21
BRANCH  16  23
ATOM     23  O   UNL     1      32.540 -25.020 -12.713  0.00  0.00    -0.506 OA
ATOM     24  H   UNL     1      31.661 -24.696 -12.691  0.00  0.00    +0.292 HD
ENDBRANCH  16  23
ENDBRANCH  11  12
BRANCH   4  25
ATOM     25  C   UNL     1      35.489 -18.801 -22.352  0.00  0.00    -0.050 C 
BRANCH  25  26
ATOM     26  N   UNL     1      34.851 -17.489 -22.275  0.00  0.00    +0.387 N 
ATOM     27  N   UNL     1      34.880 -14.601 -22.392  0.00  0.00    +0.383 N 
ATOM     28  C   UNL     1      35.437 -16.689 -21.193  0.00  0.00    -0.100 C 
ATOM     29  C   UNL     1      34.964 -16.779 -23.555  0.00  0.00    -0.100 C 
ATOM     30  C   UNL     1      34.771 -15.310 -21.113  0.00  0.00    -0.101 C 
ATOM     31  C   UNL     1      34.296 -15.402 -23.476  0.00  0.00    -0.101 C 
ATOM     32  C   UNL     1      34.240 -13.289 -22.316  0.00  0.00    -0.101 C 
ATOM     33  H   UNL     1      33.862 -17.631 -22.072  0.00  0.00    -0.079 HD
ATOM     34  H   UNL     1      35.870 -14.457 -22.597  0.00  0.00    -0.080 HD
ENDBRANCH  25  26
ENDBRANCH   4  25
TORSDOF 6
ENDMDL
MODEL 4
REMARK VINA RESULT:     -11.0      3.544      9.795
REMARK  Name = 11955716
REMARK  6 active torsions:
REMARK  status: ('A' for Active; 'I' for Inactive)
REMARK    1  A    between atoms: C_4  and  C_25
REMARK    2  A    between atoms: C_11  and  C_12
REMARK    3  A    between atoms: C_13  and  C_18
REMARK    4  A    between atoms: C_15  and  O_21
REMARK    5  A    between atoms: C_16  and  O_23
REMARK    6  A    between atoms: C_25  and  N_26
REMARK                            x       y       z     vdW  Elec       q    Type
REMARK                         _______ _______ _______ _____ _____    ______ ____
ROOT
ATOM      1  O   UNL     1      35.205 -19.037 -23.708  0.00  0.00    -0.269 OA
ATOM      2  N   UNL     1      34.873 -17.069 -22.515  0.00  0.00    -0.231 N 
ATOM      3  C   UNL     1      34.353 -14.880 -23.112  0.00  0.00    +0.016 C 
ATOM      4  C   UNL     1      33.914 -12.538 -23.016  0.00  0.00    -0.043 C 
ATOM      5  C   UNL     1      34.542 -14.902 -21.724  0.00  0.00    +0.016 C 
ATOM      6  C   UNL     1      34.542 -16.245 -23.684  0.00  0.00    +0.072 C 
ATOM      7  C   UNL     1      34.864 -16.286 -21.266  0.00  0.00    +0.072 C 
ATOM      8  C   UNL     1      34.039 -13.706 -23.771  0.00  0.00    -0.005 C 
ATOM      9  C   UNL     1      34.102 -12.560 -21.624  0.00  0.00    -0.006 C 
ATOM     10  C   UNL     1      34.419 -13.751 -20.967  0.00  0.00    +0.001 C 
ATOM     11  C   UNL     1      35.207 -18.408 -22.652  0.00  0.00    +0.259 C 
ENDROOT
BRANCH  11  12
ATOM     12  C   UNL     1      35.608 -19.130 -21.436  0.00  0.00    +0.088 C 
ATOM     13  C   UNL     1      35.022 -20.587 -19.605  0.00  0.00    +0.012 C 
ATOM     14  C   UNL     1      34.661 -19.896 -20.762  0.00  0.00    +0.006 C 
ATOM     15  C   UNL     1      36.915 -19.051 -20.961  0.00  0.00    +0.141 C 
ATOM     16  C   UNL     1      36.330 -20.511 -19.127  0.00  0.00    +0.133 C 
ATOM     17  C   UNL     1      37.277 -19.742 -19.804  0.00  0.00    +0.073 C 
BRANCH  13  18
ATOM     18  C   UNL     1      33.996 -21.406 -18.892  0.00  0.00    +0.025 C 
ATOM     19  C   UNL     1      34.143 -22.911 -19.178  0.00  0.00    +0.005 C 
ATOM     20  C   UNL     1      32.559 -20.950 -19.207  0.00  0.00    +0.005 C 
ENDBRANCH  13  18
BRANCH  15  21
ATOM     21  O   UNL     1      37.854 -18.304 -21.609  0.00  0.00    -0.505 OA
ATOM     22  H   UNL     1      38.709 -18.206 -21.240  0.00  0.00    +0.292 HD
ENDBRANCH  15  21
BRANCH  16  23
ATOM     23  O   UNL     1      36.700 -21.179 -17.999  0.00  0.00    -0.506 OA
ATOM     24  H   UNL     1      37.569 -21.517 -17.917  0.00  0.00    +0.292 HD
ENDBRANCH  16  23
ENDBRANCH  11  12
BRANCH   4  25
ATOM     25  C   UNL     1      33.577 -11.246 -23.695  0.00  0.00    -0.050 C 
BRANCH  25  26
ATOM     26  N   UNL     1      33.393 -10.159 -22.736  0.00  0.00    +0.387 N 
ATOM     27  N   UNL     1      32.393  -7.564 -21.945  0.00  0.00    +0.383 N 
ATOM     28  C   UNL     1      34.012  -8.922 -23.228  0.00  0.00    -0.100 C 
ATOM     29  C   UNL     1      31.968  -9.943 -22.459  0.00  0.00    -0.100 C 
ATOM     30  C   UNL     1      33.818  -7.779 -22.225  0.00  0.00    -0.101 C 
ATOM     31  C   UNL     1      31.774  -8.803 -21.454  0.00  0.00    -0.101 C 
ATOM     32  C   UNL     1      32.210  -6.478 -20.985  0.00  0.00    -0.101 C 
ATOM     33  H   UNL     1      33.853 -10.425 -21.866  0.00  0.00    -0.079 HD
ATOM     34  H   UNL     1      31.931  -7.298 -22.815  0.00  0.00    -0.080 HD
ENDBRANCH  25  26
ENDBRANCH   4  25
TORSDOF 6
ENDMDL
MODEL 5
REMARK VINA RESULT:     -10.6      6.329     12.605
REMARK  Name = 11955716
REMARK  6 active torsions:
REMARK  status: ('A' for Active; 'I' for Inactive)
REMARK    1  A    between atoms: C_4  and  C_25
REMARK    2  A    between atoms: C_11  and  C_12
REMARK    3  A    between atoms: C_13  and  C_18
REMARK    4  A    between atoms: C_15  and  O_21
REMARK    5  A    between atoms: C_16  and  O_23
REMARK    6  A    between atoms: C_25  and  N_26
REMARK                            x       y       z     vdW  Elec       q    Type
REMARK                         _______ _______ _______ _____ _____    ______ ____
ROOT
ATOM      1  O   UNL     1      32.176 -23.878 -15.632  0.00  0.00    -0.269 OA
ATOM      2  N   UNL     1      33.999 -22.774 -16.562  0.00  0.00    -0.231 N 
ATOM      3  C   UNL     1      34.364 -21.654 -18.570  0.00  0.00    +0.016 C 
ATOM      4  C   UNL     1      35.406 -20.470 -20.359  0.00  0.00    -0.043 C 
ATOM      5  C   UNL     1      35.575 -21.658 -17.866  0.00  0.00    +0.016 C 
ATOM      6  C   UNL     1      33.303 -22.347 -17.782  0.00  0.00    +0.072 C 
ATOM      7  C   UNL     1      35.411 -22.349 -16.553  0.00  0.00    +0.072 C 
ATOM      8  C   UNL     1      34.264 -21.064 -19.816  0.00  0.00    -0.005 C 
ATOM      9  C   UNL     1      36.621 -20.473 -19.653  0.00  0.00    -0.006 C 
ATOM     10  C   UNL     1      36.711 -21.071 -18.394  0.00  0.00    +0.001 C 
ATOM     11  C   UNL     1      33.357 -23.539 -15.599  0.00  0.00    +0.259 C 
ENDROOT
BRANCH  11  12
ATOM     12  C   UNL     1      34.159 -23.991 -14.454  0.00  0.00    +0.088 C 
ATOM     13  C   UNL     1      36.079 -25.188 -13.615  0.00  0.00    +0.012 C 
ATOM     14  C   UNL     1      35.304 -24.748 -14.689  0.00  0.00    +0.006 C 
ATOM     15  C   UNL     1      33.784 -23.671 -13.152  0.00  0.00    +0.141 C 
ATOM     16  C   UNL     1      35.706 -24.868 -12.310  0.00  0.00    +0.133 C 
ATOM     17  C   UNL     1      34.558 -24.110 -12.078  0.00  0.00    +0.073 C 
BRANCH  13  18
ATOM     18  C   UNL     1      37.304 -25.999 -13.882  0.00  0.00    +0.025 C 
ATOM     19  C   UNL     1      38.516 -25.126 -14.254  0.00  0.00    +0.005 C 
ATOM     20  C   UNL     1      37.076 -27.070 -14.964  0.00  0.00    +0.005 C 
ENDBRANCH  13  18
BRANCH  15  21
ATOM     21  O   UNL     1      32.665 -22.932 -12.905  0.00  0.00    -0.505 OA
ATOM     22  H   UNL     1      32.633 -22.031 -13.161  0.00  0.00    +0.292 HD
ENDBRANCH  15  21
BRANCH  16  23
ATOM     23  O   UNL     1      36.450 -25.290 -11.250  0.00  0.00    -0.506 OA
ATOM     24  H   UNL     1      36.981 -26.059 -11.325  0.00  0.00    +0.292 HD
ENDBRANCH  16  23
ENDBRANCH  11  12
BRANCH   4  25
ATOM     25  C   UNL     1      35.337 -19.823 -21.708  0.00  0.00    -0.050 C 
BRANCH  25  26
ATOM     26  N   UNL     1      34.842 -18.450 -21.629  0.00  0.00    +0.387 N 
ATOM     27  N   UNL     1      35.169 -15.582 -21.780  0.00  0.00    +0.383 N 
ATOM     28  C   UNL     1      35.539 -17.706 -20.572  0.00  0.00    -0.100 C 
ATOM     29  C   UNL     1      34.991 -17.767 -22.919  0.00  0.00    -0.100 C 
ATOM     30  C   UNL     1      35.023 -16.265 -20.490  0.00  0.00    -0.101 C 
ATOM     31  C   UNL     1      34.473 -16.327 -22.837  0.00  0.00    -0.101 C 
ATOM     32  C   UNL     1      34.673 -14.210 -21.701  0.00  0.00    -0.101 C 
ATOM     33  H   UNL     1      33.850 -18.486 -21.397  0.00  0.00    -0.079 HD
ATOM     34  H   UNL     1      36.162 -15.545 -22.014  0.00  0.00    -0.080 HD
ENDBRANCH  25  26
ENDBRANCH   4  25
TORSDOF 6
ENDMDL
MODEL 6
REMARK VINA RESULT:     -10.3      1.171      2.135
REMARK  Name = 11955716
REMARK  6 active torsions:
REMARK  status: ('A' for Active; 'I' for Inactive)
REMARK    1  A    between atoms: C_4  and  C_25
REMARK    2  A    between atoms: C_11  and  C_12
REMARK    3  A    between atoms: C_13  and  C_18
REMARK    4  A    between atoms: C_15  and  O_21
REMARK    5  A    between atoms: C_16  and  O_23
REMARK    6  A    between atoms: C_25  and  N_26
REMARK                            x       y       z     vdW  Elec       q    Type
REMARK                         _______ _______ _______ _____ _____    ______ ____
ROOT
ATOM      1  O   UNL     1      33.401 -12.206 -24.951  0.00  0.00    -0.269 OA
ATOM      2  N   UNL     1      33.966 -13.296 -22.976  0.00  0.00    -0.231 N 
ATOM      3  C   UNL     1      34.748 -15.428 -22.468  0.00  0.00    +0.016 C 
ATOM      4  C   UNL     1      35.468 -17.364 -21.276  0.00  0.00    -0.043 C 
ATOM      5  C   UNL     1      34.556 -14.752 -21.256  0.00  0.00    +0.016 C 
ATOM      6  C   UNL     1      34.397 -14.543 -23.617  0.00  0.00    +0.072 C 
ATOM      7  C   UNL     1      34.067 -13.364 -21.507  0.00  0.00    +0.072 C 
ATOM      8  C   UNL     1      35.204 -16.733 -22.494  0.00  0.00    -0.005 C 
ATOM      9  C   UNL     1      35.275 -16.687 -20.060  0.00  0.00    -0.006 C 
ATOM     10  C   UNL     1      34.815 -15.368 -20.045  0.00  0.00    +0.001 C 
ATOM     11  C   UNL     1      33.473 -12.237 -23.725  0.00  0.00    +0.259 C 
ENDROOT
BRANCH  11  12
ATOM     12  C   UNL     1      32.985 -11.062 -22.989  0.00  0.00    +0.088 C 
ATOM     13  C   UNL     1      33.096  -8.688 -22.570  0.00  0.00    +0.012 C 
ATOM     14  C   UNL     1      33.545  -9.815 -23.258  0.00  0.00    +0.006 C 
ATOM     15  C   UNL     1      31.978 -11.188 -22.036  0.00  0.00    +0.141 C 
ATOM     16  C   UNL     1      32.086  -8.811 -21.614  0.00  0.00    +0.133 C 
ATOM     17  C   UNL     1      31.528 -10.061 -21.347  0.00  0.00    +0.073 C 
BRANCH  13  18
ATOM     18  C   UNL     1      33.705  -7.358 -22.869  0.00  0.00    +0.025 C 
ATOM     19  C   UNL     1      34.199  -6.640 -21.601  0.00  0.00    +0.005 C 
ATOM     20  C   UNL     1      32.751  -6.439 -23.654  0.00  0.00    +0.005 C 
ENDBRANCH  13  18
BRANCH  15  21
ATOM     21  O   UNL     1      31.420 -12.401 -21.759  0.00  0.00    -0.505 OA
ATOM     22  H   UNL     1      30.741 -12.468 -21.117  0.00  0.00    +0.292 HD
ENDBRANCH  15  21
BRANCH  16  23
ATOM     23  O   UNL     1      31.637  -7.721 -20.932  0.00  0.00    -0.506 OA
ATOM     24  H   UNL     1      30.728  -7.644 -20.718  0.00  0.00    +0.292 HD
ENDBRANCH  16  23
ENDBRANCH  11  12
BRANCH   4  25
ATOM     25  C   UNL     1      35.960 -18.778 -21.263  0.00  0.00    -0.050 C 
BRANCH  25  26
ATOM     26  N   UNL     1      35.364 -19.553 -20.176  0.00  0.00    +0.387 N 
ATOM     27  N   UNL     1      34.288 -21.979 -19.032  0.00  0.00    +0.383 N 
ATOM     28  C   UNL     1      34.038 -20.053 -20.560  0.00  0.00    -0.100 C 
ATOM     29  C   UNL     1      36.239 -20.666 -19.789  0.00  0.00    -0.100 C 
ATOM     30  C   UNL     1      33.413 -20.868 -19.422  0.00  0.00    -0.101 C 
ATOM     31  C   UNL     1      35.615 -21.479 -18.650  0.00  0.00    -0.101 C 
ATOM     32  C   UNL     1      33.693 -22.753 -17.944  0.00  0.00    -0.101 C 
ATOM     33  H   UNL     1      35.255 -18.935 -19.373  0.00  0.00    -0.079 HD
ATOM     34  H   UNL     1      34.398 -22.599 -19.836  0.00  0.00    -0.080 HD
ENDBRANCH  25  26
ENDBRANCH   4  25
TORSDOF 6
ENDMDL
MODEL 7
REMARK VINA RESULT:      -9.8      1.433      2.011
REMARK  Name = 11955716
REMARK  6 active torsions:
REMARK  status: ('A' for Active; 'I' for Inactive)
REMARK    1  A    between atoms: C_4  and  C_25
REMARK    2  A    between atoms: C_11  and  C_12
REMARK    3  A    between atoms: C_13  and  C_18
REMARK    4  A    between atoms: C_15  and  O_21
REMARK    5  A    between atoms: C_16  and  O_23
REMARK    6  A    between atoms: C_25  and  N_26
REMARK                            x       y       z     vdW  Elec       q    Type
REMARK                         _______ _______ _______ _____ _____    ______ ____
ROOT
ATOM      1  O   UNL     1      33.235 -14.928 -25.849  0.00  0.00    -0.269 OA
ATOM      2  N   UNL     1      34.124 -15.447 -23.764  0.00  0.00    -0.231 N 
ATOM      3  C   UNL     1      34.717 -17.433 -22.704  0.00  0.00    +0.016 C 
ATOM      4  C   UNL     1      35.447 -19.013 -21.073  0.00  0.00    -0.043 C 
ATOM      5  C   UNL     1      34.924 -16.392 -21.790  0.00  0.00    +0.016 C 
ATOM      6  C   UNL     1      34.212 -16.893 -24.000  0.00  0.00    +0.072 C 
ATOM      7  C   UNL     1      34.577 -15.079 -22.410  0.00  0.00    +0.072 C 
ATOM      8  C   UNL     1      34.975 -18.747 -22.361  0.00  0.00    -0.005 C 
ATOM      9  C   UNL     1      35.654 -17.969 -20.156  0.00  0.00    -0.006 C 
ATOM     10  C   UNL     1      35.392 -16.645 -20.513  0.00  0.00    +0.001 C 
ATOM     11  C   UNL     1      33.606 -14.593 -24.726  0.00  0.00    +0.259 C 
ENDROOT
BRANCH  11  12
ATOM     12  C   UNL     1      33.476 -13.174 -24.366  0.00  0.00    +0.088 C 
ATOM     13  C   UNL     1      32.894 -11.498 -22.731  0.00  0.00    +0.012 C 
ATOM     14  C   UNL     1      33.024 -12.839 -23.092  0.00  0.00    +0.006 C 
ATOM     15  C   UNL     1      33.799 -12.175 -25.281  0.00  0.00    +0.141 C 
ATOM     16  C   UNL     1      33.217 -10.495 -23.646  0.00  0.00    +0.133 C 
ATOM     17  C   UNL     1      33.669 -10.833 -24.921  0.00  0.00    +0.073 C 
BRANCH  13  18
ATOM     18  C   UNL     1      32.408 -11.153 -21.361  0.00  0.00    +0.025 C 
ATOM     19  C   UNL     1      32.251 -12.394 -20.464  0.00  0.00    +0.005 C 
ATOM     20  C   UNL     1      31.092 -10.355 -21.389  0.00  0.00    +0.005 C 
ENDBRANCH  13  18
BRANCH  15  21
ATOM     21  O   UNL     1      34.241 -12.486 -26.533  0.00  0.00    -0.505 OA
ATOM     22  H   UNL     1      33.670 -12.918 -27.137  0.00  0.00    +0.292 HD
ENDBRANCH  15  21
BRANCH  16  23
ATOM     23  O   UNL     1      33.094  -9.180 -23.310  0.00  0.00    -0.506 OA
ATOM     24  H   UNL     1      32.352  -8.689 -23.603  0.00  0.00    +0.292 HD
ENDBRANCH  16  23
ENDBRANCH  11  12
BRANCH   4  25
ATOM     25  C   UNL     1      35.734 -20.424 -20.664  0.00  0.00    -0.050 C 
BRANCH  25  26
ATOM     26  N   UNL     1      34.974 -20.812 -19.478  0.00  0.00    +0.387 N 
ATOM     27  N   UNL     1      33.286 -22.616 -17.977  0.00  0.00    +0.383 N 
ATOM     28  C   UNL     1      33.551 -20.968 -19.800  0.00  0.00    -0.100 C 
ATOM     29  C   UNL     1      35.507 -22.052 -18.900  0.00  0.00    -0.100 C 
ATOM     30  C   UNL     1      32.753 -21.378 -18.557  0.00  0.00    -0.101 C 
ATOM     31  C   UNL     1      34.711 -22.460 -17.656  0.00  0.00    -0.101 C 
ATOM     32  C   UNL     1      32.527 -23.003 -16.789  0.00  0.00    -0.101 C 
ATOM     33  H   UNL     1      35.069 -20.069 -18.786  0.00  0.00    -0.079 HD
ATOM     34  H   UNL     1      33.192 -23.361 -18.667  0.00  0.00    -0.080 HD
ENDBRANCH  25  26
ENDBRANCH   4  25
TORSDOF 6
ENDMDL
MODEL 8
REMARK VINA RESULT:      -9.8      3.312      9.878
REMARK  Name = 11955716
REMARK  6 active torsions:
REMARK  status: ('A' for Active; 'I' for Inactive)
REMARK    1  A    between atoms: C_4  and  C_25
REMARK    2  A    between atoms: C_11  and  C_12
REMARK    3  A    between atoms: C_13  and  C_18
REMARK    4  A    between atoms: C_15  and  O_21
REMARK    5  A    between atoms: C_16  and  O_23
REMARK    6  A    between atoms: C_25  and  N_26
REMARK                            x       y       z     vdW  Elec       q    Type
REMARK                         _______ _______ _______ _____ _____    ______ ____
ROOT
ATOM      1  O   UNL     1      34.611 -14.641 -25.531  0.00  0.00    -0.269 OA
ATOM      2  N   UNL     1      33.672 -13.991 -23.506  0.00  0.00    -0.231 N 
ATOM      3  C   UNL     1      32.983 -11.953 -22.619  0.00  0.00    +0.016 C 
ATOM      4  C   UNL     1      32.167 -10.278 -21.131  0.00  0.00    -0.043 C 
ATOM      5  C   UNL     1      32.806 -12.924 -21.625  0.00  0.00    +0.016 C 
ATOM      6  C   UNL     1      33.528 -12.574 -23.861  0.00  0.00    +0.072 C 
ATOM      7  C   UNL     1      33.215 -14.267 -22.132  0.00  0.00    +0.072 C 
ATOM      8  C   UNL     1      32.668 -10.627 -22.387  0.00  0.00    -0.005 C 
ATOM      9  C   UNL     1      31.989 -11.251 -20.133  0.00  0.00    -0.006 C 
ATOM     10  C   UNL     1      32.311 -12.588 -20.378  0.00  0.00    +0.001 C 
ATOM     11  C   UNL     1      34.239 -14.899 -24.389  0.00  0.00    +0.259 C 
ENDROOT
BRANCH  11  12
ATOM     12  C   UNL     1      34.421 -16.277 -23.913  0.00  0.00    +0.088 C 
ATOM     13  C   UNL     1      35.457 -17.814 -22.367  0.00  0.00    +0.012 C 
ATOM     14  C   UNL     1      35.270 -16.512 -22.834  0.00  0.00    +0.006 C 
ATOM     15  C   UNL     1      33.758 -17.336 -24.528  0.00  0.00    +0.141 C 
ATOM     16  C   UNL     1      34.793 -18.876 -22.981  0.00  0.00    +0.133 C 
ATOM     17  C   UNL     1      33.944 -18.638 -24.062  0.00  0.00    +0.073 C 
BRANCH  13  18
ATOM     18  C   UNL     1      36.369 -18.051 -21.210  0.00  0.00    +0.025 C 
ATOM     19  C   UNL     1      37.774 -18.500 -21.651  0.00  0.00    +0.005 C 
ATOM     20  C   UNL     1      35.788 -19.060 -20.202  0.00  0.00    +0.005 C 
ENDBRANCH  13  18
BRANCH  15  21
ATOM     21  O   UNL     1      32.925 -17.123 -25.586  0.00  0.00    -0.505 OA
ATOM     22  H   UNL     1      32.123 -17.603 -25.654  0.00  0.00    +0.292 HD
ENDBRANCH  15  21
BRANCH  16  23
ATOM     23  O   UNL     1      34.965 -20.153 -22.539  0.00  0.00    -0.506 OA
ATOM     24  H   UNL     1      35.560 -20.330 -21.837  0.00  0.00    +0.292 HD
ENDBRANCH  16  23
ENDBRANCH  11  12
BRANCH   4  25
ATOM     25  C   UNL     1      31.816  -8.851 -20.841  0.00  0.00    -0.050 C 
BRANCH  25  26
ATOM     26  N   UNL     1      32.204  -7.962 -21.935  0.00  0.00    +0.387 N 
ATOM     27  N   UNL     1      32.564  -5.355 -23.130  0.00  0.00    +0.383 N 
ATOM     28  C   UNL     1      31.056  -7.168 -22.391  0.00  0.00    -0.100 C 
ATOM     29  C   UNL     1      33.305  -7.082 -21.527  0.00  0.00    -0.100 C 
ATOM     30  C   UNL     1      31.462  -6.234 -23.537  0.00  0.00    -0.101 C 
ATOM     31  C   UNL     1      33.712  -6.150 -22.672  0.00  0.00    -0.101 C 
ATOM     32  C   UNL     1      32.953  -4.468 -24.225  0.00  0.00    -0.101 C 
ATOM     33  H   UNL     1      32.525  -8.540 -22.711  0.00  0.00    -0.079 HD
ATOM     34  H   UNL     1      32.245  -4.776 -22.353  0.00  0.00    -0.080 HD
ENDBRANCH  25  26
ENDBRANCH   4  25
TORSDOF 6
ENDMDL
MODEL 9
REMARK VINA RESULT:      -9.5      2.789      4.944
REMARK  Name = 11955716
REMARK  6 active torsions:
REMARK  status: ('A' for Active; 'I' for Inactive)
REMARK    1  A    between atoms: C_4  and  C_25
REMARK    2  A    between atoms: C_11  and  C_12
REMARK    3  A    between atoms: C_13  and  C_18
REMARK    4  A    between atoms: C_15  and  O_21
REMARK    5  A    between atoms: C_16  and  O_23
REMARK    6  A    between atoms: C_25  and  N_26
REMARK                            x       y       z     vdW  Elec       q    Type
REMARK                         _______ _______ _______ _____ _____    ______ ____
ROOT
ATOM      1  O   UNL     1      31.453 -10.164 -19.710  0.00  0.00    -0.269 OA
ATOM      2  N   UNL     1      32.322 -10.602 -21.821  0.00  0.00    -0.231 N 
ATOM      3  C   UNL     1      32.870 -12.547 -22.976  0.00  0.00    +0.016 C 
ATOM      4  C   UNL     1      33.668 -14.057 -24.641  0.00  0.00    -0.043 C 
ATOM      5  C   UNL     1      33.229 -11.462 -23.787  0.00  0.00    +0.016 C 
ATOM      6  C   UNL     1      32.270 -12.064 -21.699  0.00  0.00    +0.072 C 
ATOM      7  C   UNL     1      32.889 -10.175 -23.113  0.00  0.00    +0.072 C 
ATOM      8  C   UNL     1      33.083 -13.849 -23.389  0.00  0.00    -0.005 C 
ATOM      9  C   UNL     1      34.027 -12.970 -25.455  0.00  0.00    -0.006 C 
ATOM     10  C   UNL     1      33.808 -11.658 -25.028  0.00  0.00    +0.001 C 
ATOM     11  C   UNL     1      31.924  -9.779 -20.777  0.00  0.00    +0.259 C 
ENDROOT
BRANCH  11  12
ATOM     12  C   UNL     1      32.094  -8.331 -20.960  0.00  0.00    +0.088 C 
ATOM     13  C   UNL     1      31.752  -6.360 -22.310  0.00  0.00    +0.012 C 
ATOM     14  C   UNL     1      31.600  -7.734 -22.117  0.00  0.00    +0.006 C 
ATOM     15  C   UNL     1      32.738  -7.563 -19.994  0.00  0.00    +0.141 C 
ATOM     16  C   UNL     1      32.397  -5.588 -21.343  0.00  0.00    +0.133 C 
ATOM     17  C   UNL     1      32.890  -6.189 -20.185  0.00  0.00    +0.073 C 
BRANCH  13  18
ATOM     18  C   UNL     1      31.217  -5.733 -23.555  0.00  0.00    +0.025 C 
ATOM     19  C   UNL     1      30.324  -6.694 -24.360  0.00  0.00    +0.005 C 
ATOM     20  C   UNL     1      32.334  -5.176 -24.457  0.00  0.00    +0.005 C 
ENDBRANCH  13  18
BRANCH  15  21
ATOM     21  O   UNL     1      33.228  -8.132 -18.856  0.00  0.00    -0.505 OA
ATOM     22  H   UNL     1      32.734  -8.794 -18.414  0.00  0.00    +0.292 HD
ENDBRANCH  15  21
BRANCH  16  23
ATOM     23  O   UNL     1      32.554  -4.246 -21.516  0.00  0.00    -0.506 OA
ATOM     24  H   UNL     1      31.960  -3.771 -22.063  0.00  0.00    +0.292 HD
ENDBRANCH  16  23
ENDBRANCH  11  12
BRANCH   4  25
ATOM     25  C   UNL     1      33.916 -15.454 -25.121  0.00  0.00    -0.050 C 
BRANCH  25  26
ATOM     26  N   UNL     1      34.029 -16.399 -24.013  0.00  0.00    +0.387 N 
ATOM     27  N   UNL     1      35.358 -18.513 -22.556  0.00  0.00    +0.383 N 
ATOM     28  C   UNL     1      34.027 -17.782 -24.505  0.00  0.00    -0.100 C 
ATOM     29  C   UNL     1      35.241 -16.138 -23.226  0.00  0.00    -0.100 C 
ATOM     30  C   UNL     1      34.149 -18.774 -23.344  0.00  0.00    -0.101 C 
ATOM     31  C   UNL     1      35.361 -17.129 -22.064  0.00  0.00    -0.101 C 
ATOM     32  C   UNL     1      35.470 -19.457 -21.446  0.00  0.00    -0.101 C 
ATOM     33  H   UNL     1      33.219 -16.272 -23.406  0.00  0.00    -0.079 HD
ATOM     34  H   UNL     1      36.170 -18.640 -23.161  0.00  0.00    -0.080 HD
ENDBRANCH  25  26
ENDBRANCH   4  25
TORSDOF 6
ENDMDL
