MODEL 1
REMARK VINA RESULT:     -11.2      0.000      0.000
REMARK  Name = 3559
REMARK  7 active torsions:
REMARK  status: ('A' for Active; 'I' for Inactive)
REMARK    1  A    between atoms: N_1  and  C_17
REMARK    2  A    between atoms: C_2  and  C_9
REMARK    3  A    between atoms: C_2  and  O_15
REMARK    4  A    between atoms: C_17  and  C_18
REMARK    5  A    between atoms: C_18  and  C_19
REMARK    6  A    between atoms: C_19  and  C_21
REMARK    7  A    between atoms: C_21  and  C_23
REMARK                            x       y       z     vdW  Elec       q    Type
REMARK                         _______ _______ _______ _____ _____    ______ ____
ROOT
ATOM      1  N   UNL     1      34.647 -15.355 -23.784  0.00  0.00    +0.387 N 
ATOM      2  C   UNL     1      33.346 -12.792 -23.032  0.00  0.00    +0.103 C 
ATOM      3  C   UNL     1      33.339 -13.375 -24.464  0.00  0.00    +0.008 C 
ATOM      4  C   UNL     1      34.540 -13.399 -22.260  0.00  0.00    +0.008 C 
ATOM      5  C   UNL     1      33.445 -14.904 -24.491  0.00  0.00    -0.075 C 
ATOM      6  C   UNL     1      34.627 -14.926 -22.381  0.00  0.00    -0.075 C 
ATOM      7  H   UNL     1      35.456 -14.926 -24.232  0.00  0.00    -0.080 HD
ENDROOT
BRANCH   2   9
ATOM      8 CL   UNL     1      33.471  -6.763 -22.738  0.00  0.00    -0.082 Cl
ATOM      9  C   UNL     1      33.379 -11.265 -22.956  0.00  0.00    +0.002 C 
ATOM     10  C   UNL     1      32.493 -10.591 -22.118  0.00  0.00    -0.001 C 
ATOM     11  C   UNL     1      34.294 -10.549 -23.727  0.00  0.00    -0.001 C 
ATOM     12  C   UNL     1      32.522  -9.198 -22.049  0.00  0.00    +0.011 C 
ATOM     13  C   UNL     1      34.322  -9.157 -23.659  0.00  0.00    +0.011 C 
ATOM     14  C   UNL     1      33.437  -8.482 -22.820  0.00  0.00    +0.058 C 
ENDBRANCH   2   9
BRANCH   2  15
ATOM     15  O   UNL     1      32.119 -13.180 -22.396  0.00  0.00    -0.383 OA
ATOM     16  H   UNL     1      32.072 -12.779 -21.513  0.00  0.00    +0.211 HD
ENDBRANCH   2  15
BRANCH   1  17
ATOM     17  C   UNL     1      34.780 -16.809 -23.873  0.00  0.00    -0.077 C 
BRANCH  17  18
ATOM     18  C   UNL     1      35.678 -17.328 -22.748  0.00  0.00    -0.015 C 
BRANCH  18  19
ATOM     19  C   UNL     1      35.326 -18.761 -22.338  0.00  0.00    +0.067 C 
BRANCH  19  21
ATOM     20  O   UNL     1      36.922 -18.678 -20.529  0.00  0.00    -0.291 OA
ATOM     21  C   UNL     1      35.879 -19.152 -20.975  0.00  0.00    +0.173 C 
BRANCH  21  23
ATOM     22  F   UNL     1      33.011 -22.804 -17.876  0.00  0.00    -0.204 F 
ATOM     23  C   UNL     1      35.113 -20.126 -20.146  0.00  0.00    +0.035 C 
ATOM     24  C   UNL     1      33.738 -20.079 -20.175  0.00  0.00    +0.005 C 
ATOM     25  C   UNL     1      35.810 -21.038 -19.384  0.00  0.00    +0.005 C 
ATOM     26  C   UNL     1      33.021 -20.992 -19.400  0.00  0.00    +0.030 C 
ATOM     27  C   UNL     1      35.094 -21.950 -18.611  0.00  0.00    +0.030 C 
ATOM     28  C   UNL     1      33.698 -21.928 -18.619  0.00  0.00    +0.140 C 
ENDBRANCH  21  23
ENDBRANCH  19  21
ENDBRANCH  18  19
ENDBRANCH  17  18
ENDBRANCH   1  17
TORSDOF 7
ENDMDL
MODEL 2
REMARK VINA RESULT:     -11.2      4.723      9.657
REMARK  Name = 3559
REMARK  7 active torsions:
REMARK  status: ('A' for Active; 'I' for Inactive)
REMARK    1  A    between atoms: N_1  and  C_17
REMARK    2  A    between atoms: C_2  and  C_9
REMARK    3  A    between atoms: C_2  and  O_15
REMARK    4  A    between atoms: C_17  and  C_18
REMARK    5  A    between atoms: C_18  and  C_19
REMARK    6  A    between atoms: C_19  and  C_21
REMARK    7  A    between atoms: C_21  and  C_23
REMARK                            x       y       z     vdW  Elec       q    Type
REMARK                         _______ _______ _______ _____ _____    ______ ____
ROOT
ATOM      1  N   UNL     1      34.535 -16.045 -22.722  0.00  0.00    +0.387 N 
ATOM      2  C   UNL     1      35.284 -18.542 -21.298  0.00  0.00    +0.103 C 
ATOM      3  C   UNL     1      34.595 -18.513 -22.681  0.00  0.00    +0.008 C 
ATOM      4  C   UNL     1      34.999 -17.205 -20.577  0.00  0.00    +0.008 C 
ATOM      5  C   UNL     1      34.907 -17.243 -23.481  0.00  0.00    -0.075 C 
ATOM      6  C   UNL     1      35.269 -15.975 -21.454  0.00  0.00    -0.075 C 
ATOM      7  H   UNL     1      33.540 -16.104 -22.507  0.00  0.00    -0.080 HD
ENDROOT
BRANCH   2   9
ATOM      8 CL   UNL     1      33.753 -23.204 -17.779  0.00  0.00    -0.082 Cl
ATOM      9  C   UNL     1      34.897 -19.724 -20.408  0.00  0.00    +0.002 C 
ATOM     10  C   UNL     1      33.552 -20.027 -20.201  0.00  0.00    -0.001 C 
ATOM     11  C   UNL     1      35.888 -20.496 -19.805  0.00  0.00    -0.001 C 
ATOM     12  C   UNL     1      33.198 -21.104 -19.388  0.00  0.00    +0.011 C 
ATOM     13  C   UNL     1      35.534 -21.572 -18.992  0.00  0.00    +0.011 C 
ATOM     14  C   UNL     1      34.190 -21.876 -18.784  0.00  0.00    +0.058 C 
ENDBRANCH   2   9
BRANCH   2  15
ATOM     15  O   UNL     1      36.697 -18.676 -21.516  0.00  0.00    -0.383 OA
ATOM     16  H   UNL     1      37.175 -18.375 -20.727  0.00  0.00    +0.211 HD
ENDBRANCH   2  15
BRANCH   1  17
ATOM     17  C   UNL     1      34.770 -14.840 -23.518  0.00  0.00    -0.077 C 
BRANCH  17  18
ATOM     18  C   UNL     1      34.444 -13.592 -22.695  0.00  0.00    -0.015 C 
BRANCH  18  19
ATOM     19  C   UNL     1      32.937 -13.330 -22.610  0.00  0.00    +0.067 C 
BRANCH  19  21
ATOM     20  O   UNL     1      32.320 -13.813 -20.327  0.00  0.00    -0.291 OA
ATOM     21  C   UNL     1      32.465 -12.970 -21.209  0.00  0.00    +0.173 C 
BRANCH  21  23
ATOM     22  F   UNL     1      31.460  -7.607 -20.023  0.00  0.00    -0.204 F 
ATOM     23  C   UNL     1      32.195 -11.538 -20.892  0.00  0.00    +0.035 C 
ATOM     24  C   UNL     1      31.875 -11.197 -19.598  0.00  0.00    +0.005 C 
ATOM     25  C   UNL     1      32.279 -10.609 -21.907  0.00  0.00    +0.005 C 
ATOM     26  C   UNL     1      31.624  -9.857 -19.301  0.00  0.00    +0.030 C 
ATOM     27  C   UNL     1      32.028  -9.270 -21.610  0.00  0.00    +0.030 C 
ATOM     28  C   UNL     1      31.701  -8.893 -20.307  0.00  0.00    +0.140 C 
ENDBRANCH  21  23
ENDBRANCH  19  21
ENDBRANCH  18  19
ENDBRANCH  17  18
ENDBRANCH   1  17
TORSDOF 7
ENDMDL
MODEL 3
REMARK VINA RESULT:     -11.1      5.414     10.826
REMARK  Name = 3559
REMARK  7 active torsions:
REMARK  status: ('A' for Active; 'I' for Inactive)
REMARK    1  A    between atoms: N_1  and  C_17
REMARK    2  A    between atoms: C_2  and  C_9
REMARK    3  A    between atoms: C_2  and  O_15
REMARK    4  A    between atoms: C_17  and  C_18
REMARK    5  A    between atoms: C_18  and  C_19
REMARK    6  A    between atoms: C_19  and  C_21
REMARK    7  A    between atoms: C_21  and  C_23
REMARK                            x       y       z     vdW  Elec       q    Type
REMARK                         _______ _______ _______ _____ _____    ______ ____
ROOT
ATOM      1  N   UNL     1      35.205 -20.270 -19.566  0.00  0.00    +0.387 N 
ATOM      2  C   UNL     1      33.892 -22.450 -18.035  0.00  0.00    +0.103 C 
ATOM      3  C   UNL     1      33.123 -21.325 -18.764  0.00  0.00    +0.008 C 
ATOM      4  C   UNL     1      35.331 -21.960 -17.753  0.00  0.00    +0.008 C 
ATOM      5  C   UNL     1      33.883 -20.760 -19.969  0.00  0.00    -0.075 C 
ATOM      6  C   UNL     1      36.013 -21.347 -18.983  0.00  0.00    -0.075 C 
ATOM      7  H   UNL     1      35.072 -19.554 -18.852  0.00  0.00    -0.080 HD
ENDROOT
BRANCH   2   9
ATOM      8 CL   UNL     1      31.301 -24.427 -12.951  0.00  0.00    -0.082 Cl
ATOM      9  C   UNL     1      33.236 -22.952 -16.748  0.00  0.00    +0.002 C 
ATOM     10  C   UNL     1      31.849 -22.909 -16.611  0.00  0.00    -0.001 C 
ATOM     11  C   UNL     1      34.025 -23.450 -15.712  0.00  0.00    -0.001 C 
ATOM     12  C   UNL     1      31.250 -23.366 -15.437  0.00  0.00    +0.011 C 
ATOM     13  C   UNL     1      33.426 -23.907 -14.539  0.00  0.00    +0.011 C 
ATOM     14  C   UNL     1      32.039 -23.865 -14.401  0.00  0.00    +0.058 C 
ENDBRANCH   2   9
BRANCH   2  15
ATOM     15  O   UNL     1      33.936 -23.587 -18.909  0.00  0.00    -0.383 OA
ATOM     16  H   UNL     1      34.018 -24.398 -18.381  0.00  0.00    +0.211 HD
ENDBRANCH   2  15
BRANCH   1  17
ATOM     17  C   UNL     1      35.898 -19.669 -20.706  0.00  0.00    -0.077 C 
BRANCH  17  18
ATOM     18  C   UNL     1      34.888 -19.027 -21.660  0.00  0.00    -0.015 C 
BRANCH  18  19
ATOM     19  C   UNL     1      35.545 -18.022 -22.611  0.00  0.00    +0.067 C 
BRANCH  19  21
ATOM     20  O   UNL     1      34.046 -18.226 -24.492  0.00  0.00    -0.291 OA
ATOM     21  C   UNL     1      34.597 -17.490 -23.676  0.00  0.00    +0.173 C 
BRANCH  21  23
ATOM     22  F   UNL     1      33.530 -12.012 -23.812  0.00  0.00    -0.204 F 
ATOM     23  C   UNL     1      34.310 -16.028 -23.711  0.00  0.00    +0.035 C 
ATOM     24  C   UNL     1      34.783 -15.237 -22.688  0.00  0.00    +0.005 C 
ATOM     25  C   UNL     1      33.585 -15.521 -24.768  0.00  0.00    +0.005 C 
ATOM     26  C   UNL     1      34.517 -13.868 -22.722  0.00  0.00    +0.030 C 
ATOM     27  C   UNL     1      33.320 -14.152 -24.802  0.00  0.00    +0.030 C 
ATOM     28  C   UNL     1      33.786 -13.325 -23.779  0.00  0.00    +0.140 C 
ENDBRANCH  21  23
ENDBRANCH  19  21
ENDBRANCH  18  19
ENDBRANCH  17  18
ENDBRANCH   1  17
TORSDOF 7
ENDMDL
MODEL 4
REMARK VINA RESULT:     -11.1      5.375     10.797
REMARK  Name = 3559
REMARK  7 active torsions:
REMARK  status: ('A' for Active; 'I' for Inactive)
REMARK    1  A    between atoms: N_1  and  C_17
REMARK    2  A    between atoms: C_2  and  C_9
REMARK    3  A    between atoms: C_2  and  O_15
REMARK    4  A    between atoms: C_17  and  C_18
REMARK    5  A    between atoms: C_18  and  C_19
REMARK    6  A    between atoms: C_19  and  C_21
REMARK    7  A    between atoms: C_21  and  C_23
REMARK                            x       y       z     vdW  Elec       q    Type
REMARK                         _______ _______ _______ _____ _____    ______ ____
ROOT
ATOM      1  N   UNL     1      35.275 -20.303 -19.531  0.00  0.00    +0.387 N 
ATOM      2  C   UNL     1      33.894 -22.459 -18.024  0.00  0.00    +0.103 C 
ATOM      3  C   UNL     1      33.159 -21.320 -18.767  0.00  0.00    +0.008 C 
ATOM      4  C   UNL     1      35.336 -21.995 -17.716  0.00  0.00    +0.008 C 
ATOM      5  C   UNL     1      33.952 -20.769 -19.958  0.00  0.00    -0.075 C 
ATOM      6  C   UNL     1      36.052 -21.394 -18.933  0.00  0.00    -0.075 C 
ATOM      7  H   UNL     1      35.142 -19.585 -18.819  0.00  0.00    -0.080 HD
ENDROOT
BRANCH   2   9
ATOM      8 CL   UNL     1      31.172 -24.399 -12.996  0.00  0.00    -0.082 Cl
ATOM      9  C   UNL     1      33.205 -22.949 -16.750  0.00  0.00    +0.002 C 
ATOM     10  C   UNL     1      33.966 -23.457 -15.699  0.00  0.00    -0.001 C 
ATOM     11  C   UNL     1      31.816 -22.888 -16.642  0.00  0.00    -0.001 C 
ATOM     12  C   UNL     1      33.337 -23.905 -14.536  0.00  0.00    +0.011 C 
ATOM     13  C   UNL     1      31.188 -23.336 -15.481  0.00  0.00    +0.011 C 
ATOM     14  C   UNL     1      31.948 -23.844 -14.428  0.00  0.00    +0.058 C 
ENDBRANCH   2   9
BRANCH   2  15
ATOM     15  O   UNL     1      33.934 -23.597 -18.898  0.00  0.00    -0.383 OA
ATOM     16  H   UNL     1      34.785 -24.053 -18.797  0.00  0.00    +0.211 HD
ENDBRANCH   2  15
BRANCH   1  17
ATOM     17  C   UNL     1      36.000 -19.715 -20.657  0.00  0.00    -0.077 C 
BRANCH  17  18
ATOM     18  C   UNL     1      35.015 -19.180 -21.699  0.00  0.00    -0.015 C 
BRANCH  18  19
ATOM     19  C   UNL     1      35.619 -18.058 -22.548  0.00  0.00    +0.067 C 
BRANCH  19  21
ATOM     20  O   UNL     1      35.374 -16.267 -20.947  0.00  0.00    -0.291 OA
ATOM     21  C   UNL     1      35.198 -16.666 -22.096  0.00  0.00    +0.173 C 
BRANCH  21  23
ATOM     22  F   UNL     1      32.851 -13.239 -25.827  0.00  0.00    -0.204 F 
ATOM     23  C   UNL     1      34.573 -15.751 -23.093  0.00  0.00    +0.035 C 
ATOM     24  C   UNL     1      34.344 -16.219 -24.367  0.00  0.00    +0.005 C 
ATOM     25  C   UNL     1      34.246 -14.471 -22.701  0.00  0.00    +0.005 C 
ATOM     26  C   UNL     1      33.757 -15.363 -25.299  0.00  0.00    +0.030 C 
ATOM     27  C   UNL     1      33.659 -13.615 -23.633  0.00  0.00    +0.030 C 
ATOM     28  C   UNL     1      33.414 -14.061 -24.933  0.00  0.00    +0.140 C 
ENDBRANCH  21  23
ENDBRANCH  19  21
ENDBRANCH  18  19
ENDBRANCH  17  18
ENDBRANCH   1  17
TORSDOF 7
ENDMDL
MODEL 5
REMARK VINA RESULT:     -10.8      4.721     10.064
REMARK  Name = 3559
REMARK  7 active torsions:
REMARK  status: ('A' for Active; 'I' for Inactive)
REMARK    1  A    between atoms: N_1  and  C_17
REMARK    2  A    between atoms: C_2  and  C_9
REMARK    3  A    between atoms: C_2  and  O_15
REMARK    4  A    between atoms: C_17  and  C_18
REMARK    5  A    between atoms: C_18  and  C_19
REMARK    6  A    between atoms: C_19  and  C_21
REMARK    7  A    between atoms: C_21  and  C_23
REMARK                            x       y       z     vdW  Elec       q    Type
REMARK                         _______ _______ _______ _____ _____    ______ ____
ROOT
ATOM      1  N   UNL     1      34.550 -16.192 -22.892  0.00  0.00    +0.387 N 
ATOM      2  C   UNL     1      35.282 -18.632 -21.364  0.00  0.00    +0.103 C 
ATOM      3  C   UNL     1      34.592 -18.656 -22.747  0.00  0.00    +0.008 C 
ATOM      4  C   UNL     1      35.008 -17.264 -20.700  0.00  0.00    +0.008 C 
ATOM      5  C   UNL     1      34.912 -17.424 -23.600  0.00  0.00    -0.075 C 
ATOM      6  C   UNL     1      35.286 -16.074 -21.628  0.00  0.00    -0.075 C 
ATOM      7  H   UNL     1      33.555 -16.234 -22.673  0.00  0.00    -0.080 HD
ENDROOT
BRANCH   2   9
ATOM      8 CL   UNL     1      33.721 -23.131 -17.651  0.00  0.00    -0.082 Cl
ATOM      9  C   UNL     1      34.887 -19.772 -20.425  0.00  0.00    +0.002 C 
ATOM     10  C   UNL     1      33.540 -20.060 -20.208  0.00  0.00    -0.001 C 
ATOM     11  C   UNL     1      35.873 -20.522 -19.787  0.00  0.00    -0.001 C 
ATOM     12  C   UNL     1      33.179 -21.099 -19.350  0.00  0.00    +0.011 C 
ATOM     13  C   UNL     1      35.512 -21.561 -18.929  0.00  0.00    +0.011 C 
ATOM     14  C   UNL     1      34.166 -21.849 -18.711  0.00  0.00    +0.058 C 
ENDBRANCH   2   9
BRANCH   2  15
ATOM     15  O   UNL     1      36.694 -18.786 -21.578  0.00  0.00    -0.383 OA
ATOM     16  H   UNL     1      37.154 -17.985 -21.280  0.00  0.00    +0.211 HD
ENDBRANCH   2  15
BRANCH   1  17
ATOM     17  C   UNL     1      34.793 -15.023 -23.738  0.00  0.00    -0.077 C 
BRANCH  17  18
ATOM     18  C   UNL     1      33.674 -13.996 -23.554  0.00  0.00    -0.015 C 
BRANCH  18  19
ATOM     19  C   UNL     1      34.167 -12.715 -22.876  0.00  0.00    +0.067 C 
BRANCH  19  21
ATOM     20  O   UNL     1      33.903 -11.307 -24.819  0.00  0.00    -0.291 OA
ATOM     21  C   UNL     1      33.751 -11.447 -23.608  0.00  0.00    +0.173 C 
BRANCH  21  23
ATOM     22  F   UNL     1      31.378  -7.329 -20.677  0.00  0.00    -0.204 F 
ATOM     23  C   UNL     1      33.116 -10.347 -22.826  0.00  0.00    +0.035 C 
ATOM     24  C   UNL     1      32.223 -10.675 -21.831  0.00  0.00    +0.005 C 
ATOM     25  C   UNL     1      33.448  -9.044 -23.128  0.00  0.00    +0.005 C 
ATOM     26  C   UNL     1      31.630  -9.646 -21.098  0.00  0.00    +0.030 C 
ATOM     27  C   UNL     1      32.855  -8.016 -22.396  0.00  0.00    +0.030 C 
ATOM     28  C   UNL     1      31.946  -8.316 -21.380  0.00  0.00    +0.140 C 
ENDBRANCH  21  23
ENDBRANCH  19  21
ENDBRANCH  18  19
ENDBRANCH  17  18
ENDBRANCH   1  17
TORSDOF 7
ENDMDL
MODEL 6
REMARK VINA RESULT:     -10.7      1.406      2.089
REMARK  Name = 3559
REMARK  7 active torsions:
REMARK  status: ('A' for Active; 'I' for Inactive)
REMARK    1  A    between atoms: N_1  and  C_17
REMARK    2  A    between atoms: C_2  and  C_9
REMARK    3  A    between atoms: C_2  and  O_15
REMARK    4  A    between atoms: C_17  and  C_18
REMARK    5  A    between atoms: C_18  and  C_19
REMARK    6  A    between atoms: C_19  and  C_21
REMARK    7  A    between atoms: C_21  and  C_23
REMARK                            x       y       z     vdW  Elec       q    Type
REMARK                         _______ _______ _______ _____ _____    ______ ____
ROOT
ATOM      1  N   UNL     1      34.798 -14.691 -22.186  0.00  0.00    +0.387 N 
ATOM      2  C   UNL     1      32.759 -12.559 -21.840  0.00  0.00    +0.103 C 
ATOM      3  C   UNL     1      33.451 -12.878 -23.184  0.00  0.00    +0.008 C 
ATOM      4  C   UNL     1      33.653 -13.075 -20.690  0.00  0.00    +0.008 C 
ATOM      5  C   UNL     1      33.905 -14.339 -23.294  0.00  0.00    -0.075 C 
ATOM      6  C   UNL     1      34.127 -14.520 -20.892  0.00  0.00    -0.075 C 
ATOM      7  H   UNL     1      35.597 -14.059 -22.211  0.00  0.00    -0.080 HD
ENDROOT
BRANCH   2   9
ATOM      8 CL   UNL     1      31.386  -6.739 -21.000  0.00  0.00    -0.082 Cl
ATOM      9  C   UNL     1      32.410 -11.086 -21.628  0.00  0.00    +0.002 C 
ATOM     10  C   UNL     1      32.743 -10.144 -22.600  0.00  0.00    -0.001 C 
ATOM     11  C   UNL     1      31.759 -10.685 -20.462  0.00  0.00    -0.001 C 
ATOM     12  C   UNL     1      32.426  -8.799 -22.406  0.00  0.00    +0.011 C 
ATOM     13  C   UNL     1      31.442  -9.341 -20.268  0.00  0.00    +0.011 C 
ATOM     14  C   UNL     1      31.776  -8.399 -21.240  0.00  0.00    +0.058 C 
ENDBRANCH   2   9
BRANCH   2  15
ATOM     15  O   UNL     1      31.504 -13.255 -21.819  0.00  0.00    -0.383 OA
ATOM     16  H   UNL     1      31.327 -13.631 -22.696  0.00  0.00    +0.211 HD
ENDBRANCH   2  15
BRANCH   1  17
ATOM     17  C   UNL     1      35.283 -16.064 -22.334  0.00  0.00    -0.077 C 
BRANCH  17  18
ATOM     18  C   UNL     1      35.293 -16.770 -20.977  0.00  0.00    -0.015 C 
BRANCH  18  19
ATOM     19  C   UNL     1      36.013 -18.121 -21.030  0.00  0.00    +0.067 C 
BRANCH  19  21
ATOM     20  O   UNL     1      34.586 -19.462 -22.442  0.00  0.00    -0.291 OA
ATOM     21  C   UNL     1      35.084 -19.288 -21.332  0.00  0.00    +0.173 C 
BRANCH  21  23
ATOM     22  F   UNL     1      33.981 -22.943 -17.258  0.00  0.00    -0.204 F 
ATOM     23  C   UNL     1      34.789 -20.266 -20.245  0.00  0.00    +0.035 C 
ATOM     24  C   UNL     1      35.842 -20.883 -19.609  0.00  0.00    +0.005 C 
ATOM     25  C   UNL     1      33.474 -20.512 -19.916  0.00  0.00    +0.005 C 
ATOM     26  C   UNL     1      35.567 -21.797 -18.591  0.00  0.00    +0.030 C 
ATOM     27  C   UNL     1      33.199 -21.425 -18.898  0.00  0.00    +0.030 C 
ATOM     28  C   UNL     1      34.245 -22.067 -18.235  0.00  0.00    +0.140 C 
ENDBRANCH  21  23
ENDBRANCH  19  21
ENDBRANCH  18  19
ENDBRANCH  17  18
ENDBRANCH   1  17
TORSDOF 7
ENDMDL
MODEL 7
REMARK VINA RESULT:     -10.7      7.472     10.890
REMARK  Name = 3559
REMARK  7 active torsions:
REMARK  status: ('A' for Active; 'I' for Inactive)
REMARK    1  A    between atoms: N_1  and  C_17
REMARK    2  A    between atoms: C_2  and  C_9
REMARK    3  A    between atoms: C_2  and  O_15
REMARK    4  A    between atoms: C_17  and  C_18
REMARK    5  A    between atoms: C_18  and  C_19
REMARK    6  A    between atoms: C_19  and  C_21
REMARK    7  A    between atoms: C_21  and  C_23
REMARK                            x       y       z     vdW  Elec       q    Type
REMARK                         _______ _______ _______ _____ _____    ______ ____
ROOT
ATOM      1  N   UNL     1      32.863 -23.291 -14.886  0.00  0.00    +0.387 N 
ATOM      2  C   UNL     1      33.747 -22.699 -17.659  0.00  0.00    +0.103 C 
ATOM      3  C   UNL     1      34.707 -22.801 -16.452  0.00  0.00    +0.008 C 
ATOM      4  C   UNL     1      32.327 -22.386 -17.134  0.00  0.00    +0.008 C 
ATOM      5  C   UNL     1      34.186 -23.724 -15.346  0.00  0.00    -0.075 C 
ATOM      6  C   UNL     1      31.891 -23.304 -15.984  0.00  0.00    -0.075 C 
ATOM      7  H   UNL     1      32.945 -22.331 -14.550  0.00  0.00    -0.080 HD
ENDROOT
BRANCH   2   9
ATOM      8 CL   UNL     1      35.371 -18.702 -21.884  0.00  0.00    -0.082 Cl
ATOM      9  C   UNL     1      34.159 -21.686 -18.728  0.00  0.00    +0.002 C 
ATOM     10  C   UNL     1      33.183 -20.976 -19.426  0.00  0.00    -0.001 C 
ATOM     11  C   UNL     1      35.509 -21.474 -19.004  0.00  0.00    -0.001 C 
ATOM     12  C   UNL     1      33.558 -20.052 -20.402  0.00  0.00    +0.011 C 
ATOM     13  C   UNL     1      35.883 -20.551 -19.979  0.00  0.00    +0.011 C 
ATOM     14  C   UNL     1      34.908 -19.840 -20.678  0.00  0.00    +0.058 C 
ENDBRANCH   2   9
BRANCH   2  15
ATOM     15  O   UNL     1      33.742 -23.972 -18.322  0.00  0.00    -0.383 OA
ATOM     16  H   UNL     1      32.957 -24.475 -18.052  0.00  0.00    +0.211 HD
ENDBRANCH   2  15
BRANCH   1  17
ATOM     17  C   UNL     1      32.402 -24.134 -13.782  0.00  0.00    -0.077 C 
BRANCH  17  18
ATOM     18  C   UNL     1      33.588 -24.846 -13.129  0.00  0.00    -0.015 C 
BRANCH  18  19
ATOM     19  C   UNL     1      34.260 -23.987 -12.054  0.00  0.00    +0.067 C 
BRANCH  19  21
ATOM     20  O   UNL     1      35.593 -25.011 -10.321  0.00  0.00    -0.291 OA
ATOM     21  C   UNL     1      35.523 -24.616 -11.482  0.00  0.00    +0.173 C 
BRANCH  21  23
ATOM     22  F   UNL     1      39.960 -25.217 -14.818  0.00  0.00    -0.204 F 
ATOM     23  C   UNL     1      36.707 -24.777 -12.374  0.00  0.00    +0.035 C 
ATOM     24  C   UNL     1      36.970 -23.799 -13.306  0.00  0.00    +0.005 C 
ATOM     25  C   UNL     1      37.495 -25.898 -12.231  0.00  0.00    +0.005 C 
ATOM     26  C   UNL     1      38.079 -23.949 -14.140  0.00  0.00    +0.030 C 
ATOM     27  C   UNL     1      38.604 -26.048 -13.064  0.00  0.00    +0.030 C 
ATOM     28  C   UNL     1      38.896 -25.073 -14.018  0.00  0.00    +0.140 C 
ENDBRANCH  21  23
ENDBRANCH  19  21
ENDBRANCH  18  19
ENDBRANCH  17  18
ENDBRANCH   1  17
TORSDOF 7
ENDMDL
MODEL 8
REMARK VINA RESULT:     -10.6      7.398     10.924
REMARK  Name = 3559
REMARK  7 active torsions:
REMARK  status: ('A' for Active; 'I' for Inactive)
REMARK    1  A    between atoms: N_1  and  C_17
REMARK    2  A    between atoms: C_2  and  C_9
REMARK    3  A    between atoms: C_2  and  O_15
REMARK    4  A    between atoms: C_17  and  C_18
REMARK    5  A    between atoms: C_18  and  C_19
REMARK    6  A    between atoms: C_19  and  C_21
REMARK    7  A    between atoms: C_21  and  C_23
REMARK                            x       y       z     vdW  Elec       q    Type
REMARK                         _______ _______ _______ _____ _____    ______ ____
ROOT
ATOM      1  N   UNL     1      32.991 -23.304 -14.898  0.00  0.00    +0.387 N 
ATOM      2  C   UNL     1      33.736 -22.680 -17.705  0.00  0.00    +0.103 C 
ATOM      3  C   UNL     1      34.749 -22.748 -16.540  0.00  0.00    +0.008 C 
ATOM      4  C   UNL     1      32.329 -22.418 -17.120  0.00  0.00    +0.008 C 
ATOM      5  C   UNL     1      34.307 -23.690 -15.414  0.00  0.00    -0.075 C 
ATOM      6  C   UNL     1      31.974 -23.351 -15.955  0.00  0.00    -0.075 C 
ATOM      7  H   UNL     1      33.052 -22.342 -14.564  0.00  0.00    -0.080 HD
ENDROOT
BRANCH   2   9
ATOM      8 CL   UNL     1      35.039 -18.616 -21.977  0.00  0.00    -0.082 Cl
ATOM      9  C   UNL     1      34.066 -21.652 -18.788  0.00  0.00    +0.002 C 
ATOM     10  C   UNL     1      35.392 -21.426 -19.152  0.00  0.00    -0.001 C 
ATOM     11  C   UNL     1      33.040 -20.941 -19.409  0.00  0.00    -0.001 C 
ATOM     12  C   UNL     1      35.694 -20.487 -20.140  0.00  0.00    +0.011 C 
ATOM     13  C   UNL     1      33.341 -20.002 -20.396  0.00  0.00    +0.011 C 
ATOM     14  C   UNL     1      34.668 -19.776 -20.761  0.00  0.00    +0.058 C 
ENDBRANCH   2   9
BRANCH   2  15
ATOM     15  O   UNL     1      33.748 -23.952 -18.370  0.00  0.00    -0.383 OA
ATOM     16  H   UNL     1      33.373 -23.855 -19.260  0.00  0.00    +0.211 HD
ENDBRANCH   2  15
BRANCH   1  17
ATOM     17  C   UNL     1      32.606 -24.163 -13.778  0.00  0.00    -0.077 C 
BRANCH  17  18
ATOM     18  C   UNL     1      33.843 -24.834 -13.177  0.00  0.00    -0.015 C 
BRANCH  18  19
ATOM     19  C   UNL     1      34.346 -24.108 -11.926  0.00  0.00    +0.067 C 
BRANCH  19  21
ATOM     20  O   UNL     1      35.793 -25.016 -10.220  0.00  0.00    -0.291 OA
ATOM     21  C   UNL     1      35.657 -24.667 -11.390  0.00  0.00    +0.173 C 
BRANCH  21  23
ATOM     22  F   UNL     1      39.954 -25.231 -14.911  0.00  0.00    -0.204 F 
ATOM     23  C   UNL     1      36.806 -24.817 -12.329  0.00  0.00    +0.035 C 
ATOM     24  C   UNL     1      37.534 -25.984 -12.300  0.00  0.00    +0.005 C 
ATOM     25  C   UNL     1      37.093 -23.783 -13.193  0.00  0.00    +0.005 C 
ATOM     26  C   UNL     1      38.608 -26.126 -13.180  0.00  0.00    +0.030 C 
ATOM     27  C   UNL     1      38.166 -23.924 -14.073  0.00  0.00    +0.030 C 
ATOM     28  C   UNL     1      38.924 -25.096 -14.066  0.00  0.00    +0.140 C 
ENDBRANCH  21  23
ENDBRANCH  19  21
ENDBRANCH  18  19
ENDBRANCH  17  18
ENDBRANCH   1  17
TORSDOF 7
ENDMDL
MODEL 9
REMARK VINA RESULT:     -10.5      1.459      2.102
REMARK  Name = 3559
REMARK  7 active torsions:
REMARK  status: ('A' for Active; 'I' for Inactive)
REMARK    1  A    between atoms: N_1  and  C_17
REMARK    2  A    between atoms: C_2  and  C_9
REMARK    3  A    between atoms: C_2  and  O_15
REMARK    4  A    between atoms: C_17  and  C_18
REMARK    5  A    between atoms: C_18  and  C_19
REMARK    6  A    between atoms: C_19  and  C_21
REMARK    7  A    between atoms: C_21  and  C_23
REMARK                            x       y       z     vdW  Elec       q    Type
REMARK                         _______ _______ _______ _____ _____    ______ ____
ROOT
ATOM      1  N   UNL     1      34.075 -15.863 -23.539  0.00  0.00    +0.387 N 
ATOM      2  C   UNL     1      33.773 -12.999 -22.809  0.00  0.00    +0.103 C 
ATOM      3  C   UNL     1      34.567 -14.023 -21.967  0.00  0.00    +0.008 C 
ATOM      4  C   UNL     1      32.757 -13.764 -23.687  0.00  0.00    +0.008 C 
ATOM      5  C   UNL     1      35.140 -15.174 -22.803  0.00  0.00    -0.075 C 
ATOM      6  C   UNL     1      33.379 -14.943 -24.447  0.00  0.00    -0.075 C 
ATOM      7  H   UNL     1      33.396 -16.208 -22.861  0.00  0.00    -0.080 HD
ENDROOT
BRANCH   2   9
ATOM      8 CL   UNL     1      30.999  -8.687 -19.620  0.00  0.00    -0.082 Cl
ATOM      9  C   UNL     1      33.069 -11.907 -22.002  0.00  0.00    +0.002 C 
ATOM     10  C   UNL     1      32.984 -10.612 -22.510  0.00  0.00    -0.001 C 
ATOM     11  C   UNL     1      32.515 -12.208 -20.759  0.00  0.00    -0.001 C 
ATOM     12  C   UNL     1      32.343  -9.616 -21.773  0.00  0.00    +0.011 C 
ATOM     13  C   UNL     1      31.874 -11.213 -20.023  0.00  0.00    +0.011 C 
ATOM     14  C   UNL     1      31.788  -9.917 -20.530  0.00  0.00    +0.058 C 
ENDBRANCH   2   9
BRANCH   2  15
ATOM     15  O   UNL     1      34.707 -12.308 -23.652  0.00  0.00    -0.383 OA
ATOM     16  H   UNL     1      34.463 -12.440 -24.582  0.00  0.00    +0.211 HD
ENDBRANCH   2  15
BRANCH   1  17
ATOM     17  C   UNL     1      34.617 -17.002 -24.280  0.00  0.00    -0.077 C 
BRANCH  17  18
ATOM     18  C   UNL     1      34.189 -18.314 -23.619  0.00  0.00    -0.015 C 
BRANCH  18  19
ATOM     19  C   UNL     1      35.330 -18.967 -22.833  0.00  0.00    +0.067 C 
BRANCH  19  21
ATOM     20  O   UNL     1      35.516 -17.625 -20.835  0.00  0.00    -0.291 OA
ATOM     21  C   UNL     1      35.250 -18.716 -21.334  0.00  0.00    +0.173 C 
BRANCH  21  23
ATOM     22  F   UNL     1      33.607 -22.894 -18.014  0.00  0.00    -0.204 F 
ATOM     23  C   UNL     1      34.811 -19.831 -20.446  0.00  0.00    +0.035 C 
ATOM     24  C   UNL     1      33.463 -20.047 -20.276  0.00  0.00    +0.005 C 
ATOM     25  C   UNL     1      35.772 -20.603 -19.830  0.00  0.00    +0.005 C 
ATOM     26  C   UNL     1      33.052 -21.092 -19.447  0.00  0.00    +0.030 C 
ATOM     27  C   UNL     1      35.361 -21.647 -19.002  0.00  0.00    +0.030 C 
ATOM     28  C   UNL     1      34.001 -21.892 -18.810  0.00  0.00    +0.140 C 
ENDBRANCH  21  23
ENDBRANCH  19  21
ENDBRANCH  18  19
ENDBRANCH  17  18
ENDBRANCH   1  17
TORSDOF 7
ENDMDL
