MODEL 1
REMARK VINA RESULT:     -11.6      0.000      0.000
REMARK  Name = 56640146
REMARK  6 active torsions:
REMARK  status: ('A' for Active; 'I' for Inactive)
REMARK    1  A    between atoms: C_1  and  C_32
REMARK    2  A    between atoms: C_2  and  O_36
REMARK    3  A    between atoms: C_3  and  C_7
REMARK    4  A    between atoms: C_5  and  N_25
REMARK    5  A    between atoms: C_15  and  N_17
REMARK    6  A    between atoms: N_17  and  S_19
REMARK                            x       y       z     vdW  Elec       q    Type
REMARK                         _______ _______ _______ _____ _____    ______ ____
ROOT
ATOM      1  C   UNL     1      35.557 -23.735 -14.946  0.00  0.00    +0.012 C 
ATOM      2  C   UNL     1      35.654 -22.945 -16.090  0.00  0.00    +0.135 C 
ATOM      3  C   UNL     1      34.503 -22.601 -16.800  0.00  0.00    +0.035 C 
ATOM      4  C   UNL     1      34.311 -24.185 -14.511  0.00  0.00    +0.014 C 
ATOM      5  C   UNL     1      33.160 -23.842 -15.221  0.00  0.00    +0.059 C 
ATOM      6  C   UNL     1      33.256 -23.050 -16.366  0.00  0.00    +0.018 C 
ENDROOT
BRANCH   3   7
ATOM      7  C   UNL     1      34.580 -21.781 -17.990  0.00  0.00    +0.003 C 
ATOM      8  C   UNL     1      35.783 -21.168 -18.337  0.00  0.00    +0.000 C 
ATOM      9  C   UNL     1      35.873 -20.368 -19.489  0.00  0.00    +0.000 C 
ATOM     10  C   UNL     1      33.452 -21.604 -18.785  0.00  0.00    +0.000 C 
ATOM     11  C   UNL     1      34.727 -20.188 -20.298  0.00  0.00    +0.001 C 
ATOM     12  C   UNL     1      33.523 -20.813 -19.932  0.00  0.00    +0.000 C 
ATOM     13  C   UNL     1      37.078 -19.744 -19.855  0.00  0.00    +0.001 C 
ATOM     14  C   UNL     1      34.817 -19.389 -21.450  0.00  0.00    +0.016 C 
ATOM     15  C   UNL     1      36.021 -18.776 -21.797  0.00  0.00    +0.064 C 
ATOM     16  C   UNL     1      37.149 -18.953 -21.002  0.00  0.00    +0.016 C 
BRANCH  15  17
ATOM     17  N   UNL     1      36.096 -17.965 -22.970  0.00  0.00    -0.219 N 
ATOM     18  H   UNL     1      36.669 -18.224 -23.728  0.00  0.00    +0.173 HD
BRANCH  17  19
ATOM     19  S   UNL     1      35.155 -16.523 -23.023  0.00  0.00    +0.056 S 
ATOM     20  O   UNL     1      34.509 -16.348 -21.736  0.00  0.00    -0.154 OA
ATOM     21  O   UNL     1      35.904 -15.438 -23.625  0.00  0.00    -0.154 OA
ATOM     22  C   UNL     1      33.890 -17.016 -24.172  0.00  0.00    +0.200 C 
ENDBRANCH  17  19
ENDBRANCH  15  17
ENDBRANCH   3   7
BRANCH   5  25
ATOM     23  O   UNL     1      32.585 -24.837 -12.578  0.00  0.00    -0.251 OA
ATOM     24  O   UNL     1      28.184 -25.616 -13.603  0.00  0.00    -0.270 OA
ATOM     25  N   UNL     1      31.863 -24.308 -14.769  0.00  0.00    -0.220 N 
ATOM     26  N   UNL     1      30.424 -25.276 -13.141  0.00  0.00    -0.235 N 
ATOM     27  C   UNL     1      31.713 -24.816 -13.450  0.00  0.00    +0.318 C 
ATOM     28  C   UNL     1      30.755 -24.243 -15.608  0.00  0.00    +0.078 C 
ATOM     29  C   UNL     1      29.532 -24.655 -15.275  0.00  0.00    +0.075 C 
ATOM     30  C   UNL     1      29.299 -25.227 -13.941  0.00  0.00    +0.254 C 
ATOM     31  H   UNL     1      30.307 -25.680 -12.250  0.00  0.00    +0.159 HD
ENDBRANCH   5  25
BRANCH   1  32
ATOM     32  C   UNL     1      36.777 -24.113 -14.172  0.00  0.00    +0.022 C 
ATOM     33  C   UNL     1      36.636 -25.539 -13.557  0.00  0.00    +0.004 C 
ATOM     34  C   UNL     1      38.109 -24.142 -14.991  0.00  0.00    +0.004 C 
ATOM     35  C   UNL     1      37.032 -23.117 -12.998  0.00  0.00    +0.004 C 
ENDBRANCH   1  32
BRANCH   2  36
ATOM     36  O   UNL     1      36.879 -22.510 -16.507  0.00  0.00    -0.472 OA
ATOM     37  C   UNL     1      37.307 -21.237 -16.030  0.00  0.00    +0.252 C 
ENDBRANCH   2  36
TORSDOF 6
ENDMDL
MODEL 2
REMARK VINA RESULT:     -11.2      2.246      4.686
REMARK  Name = 56640146
REMARK  6 active torsions:
REMARK  status: ('A' for Active; 'I' for Inactive)
REMARK    1  A    between atoms: C_1  and  C_32
REMARK    2  A    between atoms: C_2  and  O_36
REMARK    3  A    between atoms: C_3  and  C_7
REMARK    4  A    between atoms: C_5  and  N_25
REMARK    5  A    between atoms: C_15  and  N_17
REMARK    6  A    between atoms: N_17  and  S_19
REMARK                            x       y       z     vdW  Elec       q    Type
REMARK                         _______ _______ _______ _____ _____    ______ ____
ROOT
ATOM      1  C   UNL     1      33.137 -23.818 -14.683  0.00  0.00    +0.012 C 
ATOM      2  C   UNL     1      33.139 -23.033 -15.835  0.00  0.00    +0.135 C 
ATOM      3  C   UNL     1      34.325 -22.838 -16.545  0.00  0.00    +0.035 C 
ATOM      4  C   UNL     1      34.321 -24.407 -14.238  0.00  0.00    +0.014 C 
ATOM      5  C   UNL     1      35.506 -24.212 -14.946  0.00  0.00    +0.059 C 
ATOM      6  C   UNL     1      35.508 -23.427 -16.100  0.00  0.00    +0.018 C 
ENDROOT
BRANCH   3   7
ATOM      7  C   UNL     1      34.349 -22.028 -17.744  0.00  0.00    +0.003 C 
ATOM      8  C   UNL     1      35.536 -21.421 -18.152  0.00  0.00    +0.000 C 
ATOM      9  C   UNL     1      35.575 -20.631 -19.313  0.00  0.00    +0.000 C 
ATOM     10  C   UNL     1      33.185 -21.855 -18.488  0.00  0.00    +0.000 C 
ATOM     11  C   UNL     1      34.392 -20.455 -20.070  0.00  0.00    +0.001 C 
ATOM     12  C   UNL     1      33.206 -21.074 -19.644  0.00  0.00    +0.000 C 
ATOM     13  C   UNL     1      36.762 -20.013 -19.739  0.00  0.00    +0.001 C 
ATOM     14  C   UNL     1      34.432 -19.666 -21.231  0.00  0.00    +0.016 C 
ATOM     15  C   UNL     1      35.620 -19.059 -21.639  0.00  0.00    +0.064 C 
ATOM     16  C   UNL     1      36.783 -19.232 -20.895  0.00  0.00    +0.016 C 
BRANCH  15  17
ATOM     17  N   UNL     1      35.642 -18.259 -22.821  0.00  0.00    -0.219 N 
ATOM     18  H   UNL     1      35.956 -18.630 -23.677  0.00  0.00    +0.173 HD
BRANCH  17  19
ATOM     19  S   UNL     1      35.105 -16.626 -22.708  0.00  0.00    +0.056 S 
ATOM     20  O   UNL     1      34.471 -16.439 -21.417  0.00  0.00    -0.154 OA
ATOM     21  O   UNL     1      36.131 -15.710 -23.164  0.00  0.00    -0.154 OA
ATOM     22  C   UNL     1      33.805 -16.638 -23.923  0.00  0.00    +0.200 C 
ENDBRANCH  17  19
ENDBRANCH  15  17
ENDBRANCH   3   7
BRANCH   5  25
ATOM     23  O   UNL     1      36.220 -26.979 -15.318  0.00  0.00    -0.251 OA
ATOM     24  O   UNL     1      40.216 -26.456 -13.128  0.00  0.00    -0.270 OA
ATOM     25  N   UNL     1      36.737 -24.824 -14.484  0.00  0.00    -0.220 N 
ATOM     26  N   UNL     1      38.163 -26.701 -14.166  0.00  0.00    -0.235 N 
ATOM     27  C   UNL     1      36.958 -26.213 -14.692  0.00  0.00    +0.318 C 
ATOM     28  C   UNL     1      37.716 -24.061 -13.857  0.00  0.00    +0.078 C 
ATOM     29  C   UNL     1      38.870 -24.545 -13.397  0.00  0.00    +0.075 C 
ATOM     30  C   UNL     1      39.162 -25.979 -13.540  0.00  0.00    +0.254 C 
ATOM     31  H   UNL     1      38.316 -27.670 -14.252  0.00  0.00    +0.159 HD
ENDBRANCH   5  25
BRANCH   1  32
ATOM     32  C   UNL     1      31.879 -24.040 -13.910  0.00  0.00    +0.022 C 
ATOM     33  C   UNL     1      31.281 -22.690 -13.407  0.00  0.00    +0.004 C 
ATOM     34  C   UNL     1      30.723 -24.740 -14.697  0.00  0.00    +0.004 C 
ATOM     35  C   UNL     1      32.134 -24.937 -12.660  0.00  0.00    +0.004 C 
ENDBRANCH   1  32
BRANCH   2  36
ATOM     36  O   UNL     1      31.975 -22.461 -16.262  0.00  0.00    -0.472 OA
ATOM     37  C   UNL     1      31.000 -23.333 -16.829  0.00  0.00    +0.252 C 
ENDBRANCH   2  36
TORSDOF 6
ENDMDL
MODEL 3
REMARK VINA RESULT:     -10.9      1.284      1.738
REMARK  Name = 56640146
REMARK  6 active torsions:
REMARK  status: ('A' for Active; 'I' for Inactive)
REMARK    1  A    between atoms: C_1  and  C_32
REMARK    2  A    between atoms: C_2  and  O_36
REMARK    3  A    between atoms: C_3  and  C_7
REMARK    4  A    between atoms: C_5  and  N_25
REMARK    5  A    between atoms: C_15  and  N_17
REMARK    6  A    between atoms: N_17  and  S_19
REMARK                            x       y       z     vdW  Elec       q    Type
REMARK                         _______ _______ _______ _____ _____    ______ ____
ROOT
ATOM      1  C   UNL     1      35.505 -23.417 -15.347  0.00  0.00    +0.012 C 
ATOM      2  C   UNL     1      35.609 -22.632 -16.494  0.00  0.00    +0.135 C 
ATOM      3  C   UNL     1      34.460 -22.278 -17.205  0.00  0.00    +0.035 C 
ATOM      4  C   UNL     1      34.254 -23.851 -14.908  0.00  0.00    +0.014 C 
ATOM      5  C   UNL     1      33.106 -23.498 -15.618  0.00  0.00    +0.059 C 
ATOM      6  C   UNL     1      33.210 -22.712 -16.766  0.00  0.00    +0.018 C 
ENDROOT
BRANCH   3   7
ATOM      7  C   UNL     1      34.545 -21.464 -18.397  0.00  0.00    +0.003 C 
ATOM      8  C   UNL     1      35.751 -20.856 -18.743  0.00  0.00    +0.000 C 
ATOM      9  C   UNL     1      35.848 -20.062 -19.898  0.00  0.00    +0.000 C 
ATOM     10  C   UNL     1      33.420 -21.287 -19.198  0.00  0.00    +0.000 C 
ATOM     11  C   UNL     1      34.705 -19.882 -20.712  0.00  0.00    +0.001 C 
ATOM     12  C   UNL     1      33.499 -20.502 -20.348  0.00  0.00    +0.000 C 
ATOM     13  C   UNL     1      37.056 -19.443 -20.261  0.00  0.00    +0.001 C 
ATOM     14  C   UNL     1      34.803 -19.088 -21.867  0.00  0.00    +0.016 C 
ATOM     15  C   UNL     1      36.010 -18.480 -22.212  0.00  0.00    +0.064 C 
ATOM     16  C   UNL     1      37.135 -18.657 -21.412  0.00  0.00    +0.016 C 
BRANCH  15  17
ATOM     17  N   UNL     1      36.092 -17.676 -23.389  0.00  0.00    -0.219 N 
ATOM     18  H   UNL     1      36.945 -17.566 -23.868  0.00  0.00    +0.173 HD
BRANCH  17  19
ATOM     19  S   UNL     1      34.657 -16.901 -23.946  0.00  0.00    +0.056 S 
ATOM     20  O   UNL     1      34.951 -16.242 -25.205  0.00  0.00    -0.154 OA
ATOM     21  O   UNL     1      33.513 -17.782 -23.826  0.00  0.00    -0.154 OA
ATOM     22  C   UNL     1      34.494 -15.623 -22.721  0.00  0.00    +0.200 C 
ENDBRANCH  17  19
ENDBRANCH  15  17
ENDBRANCH   3   7
BRANCH   5  25
ATOM     23  O   UNL     1      30.579 -22.591 -16.665  0.00  0.00    -0.251 OA
ATOM     24  O   UNL     1      28.198 -25.263 -13.797  0.00  0.00    -0.270 OA
ATOM     25  N   UNL     1      31.805 -23.949 -15.163  0.00  0.00    -0.220 N 
ATOM     26  N   UNL     1      29.427 -23.877 -15.181  0.00  0.00    -0.235 N 
ATOM     27  C   UNL     1      30.625 -23.395 -15.730  0.00  0.00    +0.318 C 
ATOM     28  C   UNL     1      31.698 -24.936 -14.188  0.00  0.00    +0.078 C 
ATOM     29  C   UNL     1      30.544 -25.401 -13.709  0.00  0.00    +0.075 C 
ATOM     30  C   UNL     1      29.277 -24.856 -14.217  0.00  0.00    +0.254 C 
ATOM     31  H   UNL     1      28.597 -23.471 -15.522  0.00  0.00    +0.159 HD
ENDBRANCH   5  25
BRANCH   1  32
ATOM     32  C   UNL     1      36.722 -23.804 -14.573  0.00  0.00    +0.022 C 
ATOM     33  C   UNL     1      38.023 -23.468 -15.363  0.00  0.00    +0.004 C 
ATOM     34  C   UNL     1      36.884 -23.105 -13.183  0.00  0.00    +0.004 C 
ATOM     35  C   UNL     1      36.735 -25.335 -14.272  0.00  0.00    +0.004 C 
ENDBRANCH   1  32
BRANCH   2  36
ATOM     36  O   UNL     1      36.838 -22.212 -16.915  0.00  0.00    -0.472 OA
ATOM     37  C   UNL     1      37.306 -20.970 -16.395  0.00  0.00    +0.252 C 
ENDBRANCH   2  36
TORSDOF 6
ENDMDL
MODEL 4
REMARK VINA RESULT:     -10.8      2.146      4.693
REMARK  Name = 56640146
REMARK  6 active torsions:
REMARK  status: ('A' for Active; 'I' for Inactive)
REMARK    1  A    between atoms: C_1  and  C_32
REMARK    2  A    between atoms: C_2  and  O_36
REMARK    3  A    between atoms: C_3  and  C_7
REMARK    4  A    between atoms: C_5  and  N_25
REMARK    5  A    between atoms: C_15  and  N_17
REMARK    6  A    between atoms: N_17  and  S_19
REMARK                            x       y       z     vdW  Elec       q    Type
REMARK                         _______ _______ _______ _____ _____    ______ ____
ROOT
ATOM      1  C   UNL     1      32.857 -23.820 -14.741  0.00  0.00    +0.012 C 
ATOM      2  C   UNL     1      32.810 -23.021 -15.883  0.00  0.00    +0.135 C 
ATOM      3  C   UNL     1      33.970 -22.794 -16.624  0.00  0.00    +0.035 C 
ATOM      4  C   UNL     1      34.064 -24.391 -14.337  0.00  0.00    +0.014 C 
ATOM      5  C   UNL     1      35.225 -24.163 -15.077  0.00  0.00    +0.059 C 
ATOM      6  C   UNL     1      35.177 -23.365 -16.220  0.00  0.00    +0.018 C 
ENDROOT
BRANCH   3   7
ATOM      7  C   UNL     1      33.944 -21.969 -17.812  0.00  0.00    +0.003 C 
ATOM      8  C   UNL     1      35.126 -21.421 -18.307  0.00  0.00    +0.000 C 
ATOM      9  C   UNL     1      35.116 -20.617 -19.460  0.00  0.00    +0.000 C 
ATOM     10  C   UNL     1      32.736 -21.724 -18.460  0.00  0.00    +0.000 C 
ATOM     11  C   UNL     1      33.889 -20.368 -20.118  0.00  0.00    +0.001 C 
ATOM     12  C   UNL     1      32.708 -20.929 -19.606  0.00  0.00    +0.000 C 
ATOM     13  C   UNL     1      36.298 -20.057 -19.972  0.00  0.00    +0.001 C 
ATOM     14  C   UNL     1      33.879 -19.565 -21.271  0.00  0.00    +0.016 C 
ATOM     15  C   UNL     1      35.062 -19.016 -21.766  0.00  0.00    +0.064 C 
ATOM     16  C   UNL     1      36.269 -19.262 -21.118  0.00  0.00    +0.016 C 
BRANCH  15  17
ATOM     17  N   UNL     1      35.035 -18.201 -22.937  0.00  0.00    -0.219 N 
ATOM     18  H   UNL     1      35.017 -18.606 -23.835  0.00  0.00    +0.173 HD
BRANCH  17  19
ATOM     19  S   UNL     1      35.034 -16.490 -22.739  0.00  0.00    +0.056 S 
ATOM     20  O   UNL     1      34.489 -16.180 -21.430  0.00  0.00    -0.154 OA
ATOM     21  O   UNL     1      36.294 -15.917 -23.166  0.00  0.00    -0.154 OA
ATOM     22  C   UNL     1      33.796 -16.036 -23.932  0.00  0.00    +0.200 C 
ENDBRANCH  17  19
ENDBRANCH  15  17
ENDBRANCH   3   7
BRANCH   5  25
ATOM     23  O   UNL     1      37.544 -22.692 -14.205  0.00  0.00    -0.251 OA
ATOM     24  O   UNL     1      39.972 -26.522 -13.522  0.00  0.00    -0.270 OA
ATOM     25  N   UNL     1      36.479 -24.757 -14.659  0.00  0.00    -0.220 N 
ATOM     26  N   UNL     1      38.743 -24.609 -13.943  0.00  0.00    -0.235 N 
ATOM     27  C   UNL     1      37.569 -23.923 -14.288  0.00  0.00    +0.318 C 
ATOM     28  C   UNL     1      36.623 -26.139 -14.596  0.00  0.00    +0.078 C 
ATOM     29  C   UNL     1      37.741 -26.766 -14.229  0.00  0.00    +0.075 C 
ATOM     30  C   UNL     1      38.927 -25.976 -13.864  0.00  0.00    +0.254 C 
ATOM     31  H   UNL     1      39.528 -24.052 -13.732  0.00  0.00    +0.159 HD
ENDBRANCH   5  25
BRANCH   1  32
ATOM     32  C   UNL     1      31.626 -24.076 -13.935  0.00  0.00    +0.022 C 
ATOM     33  C   UNL     1      31.046 -22.750 -13.355  0.00  0.00    +0.004 C 
ATOM     34  C   UNL     1      30.444 -24.745 -14.711  0.00  0.00    +0.004 C 
ATOM     35  C   UNL     1      31.925 -25.026 -12.734  0.00  0.00    +0.004 C 
ENDBRANCH   1  32
BRANCH   2  36
ATOM     36  O   UNL     1      31.623 -22.468 -16.269  0.00  0.00    -0.472 OA
ATOM     37  C   UNL     1      30.656 -23.349 -16.834  0.00  0.00    +0.252 C 
ENDBRANCH   2  36
TORSDOF 6
ENDMDL
MODEL 5
REMARK VINA RESULT:     -10.7      2.333      4.826
REMARK  Name = 56640146
REMARK  6 active torsions:
REMARK  status: ('A' for Active; 'I' for Inactive)
REMARK    1  A    between atoms: C_1  and  C_32
REMARK    2  A    between atoms: C_2  and  O_36
REMARK    3  A    between atoms: C_3  and  C_7
REMARK    4  A    between atoms: C_5  and  N_25
REMARK    5  A    between atoms: C_15  and  N_17
REMARK    6  A    between atoms: N_17  and  S_19
REMARK                            x       y       z     vdW  Elec       q    Type
REMARK                         _______ _______ _______ _____ _____    ______ ____
ROOT
ATOM      1  C   UNL     1      32.113 -23.895 -14.392  0.00  0.00    +0.012 C 
ATOM      2  C   UNL     1      32.423 -23.178 -15.547  0.00  0.00    +0.135 C 
ATOM      3  C   UNL     1      33.749 -23.074 -15.971  0.00  0.00    +0.035 C 
ATOM      4  C   UNL     1      33.128 -24.508 -13.658  0.00  0.00    +0.014 C 
ATOM      5  C   UNL     1      34.454 -24.404 -14.080  0.00  0.00    +0.059 C 
ATOM      6  C   UNL     1      34.764 -23.687 -15.237  0.00  0.00    +0.018 C 
ENDROOT
BRANCH   3   7
ATOM      7  C   UNL     1      34.092 -22.336 -17.167  0.00  0.00    +0.003 C 
ATOM      8  C   UNL     1      33.086 -21.780 -17.956  0.00  0.00    +0.000 C 
ATOM      9  C   UNL     1      33.404 -21.061 -19.121  0.00  0.00    +0.000 C 
ATOM     10  C   UNL     1      35.428 -22.183 -17.528  0.00  0.00    +0.000 C 
ATOM     11  C   UNL     1      34.762 -20.905 -19.488  0.00  0.00    +0.001 C 
ATOM     12  C   UNL     1      35.762 -21.472 -18.681  0.00  0.00    +0.000 C 
ATOM     13  C   UNL     1      32.404 -20.494 -19.927  0.00  0.00    +0.001 C 
ATOM     14  C   UNL     1      35.079 -20.186 -20.652  0.00  0.00    +0.016 C 
ATOM     15  C   UNL     1      34.073 -19.630 -21.442  0.00  0.00    +0.064 C 
ATOM     16  C   UNL     1      32.738 -19.783 -21.080  0.00  0.00    +0.016 C 
BRANCH  15  17
ATOM     17  N   UNL     1      34.413 -18.903 -22.623  0.00  0.00    -0.219 N 
ATOM     18  H   UNL     1      34.088 -19.192 -23.506  0.00  0.00    +0.173 HD
BRANCH  17  19
ATOM     19  S   UNL     1      35.406 -17.505 -22.459  0.00  0.00    +0.056 S 
ATOM     20  O   UNL     1      34.872 -16.684 -21.389  0.00  0.00    -0.154 OA
ATOM     21  O   UNL     1      36.811 -17.861 -22.483  0.00  0.00    -0.154 OA
ATOM     22  C   UNL     1      35.028 -16.672 -23.985  0.00  0.00    +0.200 C 
ENDBRANCH  17  19
ENDBRANCH  15  17
ENDBRANCH   3   7
BRANCH   5  25
ATOM     23  O   UNL     1      36.095 -26.579 -15.020  0.00  0.00    -0.251 OA
ATOM     24  O   UNL     1      38.442 -26.781 -11.086  0.00  0.00    -0.270 OA
ATOM     25  N   UNL     1      35.510 -25.042 -13.318  0.00  0.00    -0.220 N 
ATOM     26  N   UNL     1      37.193 -26.698 -13.030  0.00  0.00    -0.235 N 
ATOM     27  C   UNL     1      36.225 -26.136 -13.876  0.00  0.00    +0.318 C 
ATOM     28  C   UNL     1      35.847 -24.578 -12.050  0.00  0.00    +0.078 C 
ATOM     29  C   UNL     1      36.798 -25.110 -11.281  0.00  0.00    +0.075 C 
ATOM     30  C   UNL     1      37.560 -26.268 -11.769  0.00  0.00    +0.254 C 
ATOM     31  H   UNL     1      37.666 -27.490 -13.375  0.00  0.00    +0.159 HD
ENDBRANCH   5  25
BRANCH   1  32
ATOM     32  C   UNL     1      30.701 -24.018 -13.924  0.00  0.00    +0.022 C 
ATOM     33  C   UNL     1      30.636 -24.254 -12.384  0.00  0.00    +0.004 C 
ATOM     34  C   UNL     1      29.794 -22.773 -14.194  0.00  0.00    +0.004 C 
ATOM     35  C   UNL     1      29.979 -25.216 -14.615  0.00  0.00    +0.004 C 
ENDBRANCH   1  32
BRANCH   2  36
ATOM     36  O   UNL     1      31.421 -22.582 -16.259  0.00  0.00    -0.472 OA
ATOM     37  C   UNL     1      30.524 -23.444 -16.953  0.00  0.00    +0.252 C 
ENDBRANCH   2  36
TORSDOF 6
ENDMDL
MODEL 6
REMARK VINA RESULT:      -9.2     10.130     17.796
REMARK  Name = 56640146
REMARK  6 active torsions:
REMARK  status: ('A' for Active; 'I' for Inactive)
REMARK    1  A    between atoms: C_1  and  C_32
REMARK    2  A    between atoms: C_2  and  O_36
REMARK    3  A    between atoms: C_3  and  C_7
REMARK    4  A    between atoms: C_5  and  N_25
REMARK    5  A    between atoms: C_15  and  N_17
REMARK    6  A    between atoms: N_17  and  S_19
REMARK                            x       y       z     vdW  Elec       q    Type
REMARK                         _______ _______ _______ _____ _____    ______ ____
ROOT
ATOM      1  C   UNL     1      32.291  -5.043 -22.761  0.00  0.00    +0.012 C 
ATOM      2  C   UNL     1      32.269  -6.425 -22.581  0.00  0.00    +0.135 C 
ATOM      3  C   UNL     1      33.019  -7.251 -23.420  0.00  0.00    +0.035 C 
ATOM      4  C   UNL     1      33.060  -4.484 -23.781  0.00  0.00    +0.014 C 
ATOM      5  C   UNL     1      33.808  -5.308 -24.622  0.00  0.00    +0.059 C 
ATOM      6  C   UNL     1      33.787  -6.692 -24.441  0.00  0.00    +0.018 C 
ENDROOT
BRANCH   3   7
ATOM      7  C   UNL     1      33.012  -8.687 -23.250  0.00  0.00    +0.003 C 
ATOM      8  C   UNL     1      33.383  -9.516 -24.308  0.00  0.00    +0.000 C 
ATOM      9  C   UNL     1      33.380 -10.914 -24.158  0.00  0.00    +0.000 C 
ATOM     10  C   UNL     1      32.633  -9.240 -22.030  0.00  0.00    +0.000 C 
ATOM     11  C   UNL     1      32.995 -11.476 -22.918  0.00  0.00    +0.001 C 
ATOM     12  C   UNL     1      32.624 -10.625 -21.864  0.00  0.00    +0.000 C 
ATOM     13  C   UNL     1      33.752 -11.764 -25.212  0.00  0.00    +0.001 C 
ATOM     14  C   UNL     1      32.993 -12.873 -22.768  0.00  0.00    +0.016 C 
ATOM     15  C   UNL     1      33.365 -13.702 -23.827  0.00  0.00    +0.064 C 
ATOM     16  C   UNL     1      33.744 -13.149 -25.046  0.00  0.00    +0.016 C 
BRANCH  15  17
ATOM     17  N   UNL     1      33.356 -15.119 -23.658  0.00  0.00    -0.219 N 
ATOM     18  H   UNL     1      32.553 -15.585 -23.331  0.00  0.00    +0.173 HD
BRANCH  17  19
ATOM     19  S   UNL     1      34.790 -15.994 -24.044  0.00  0.00    +0.056 S 
ATOM     20  O   UNL     1      34.944 -16.009 -25.486  0.00  0.00    -0.154 OA
ATOM     21  O   UNL     1      35.889 -15.590 -23.190  0.00  0.00    -0.154 OA
ATOM     22  C   UNL     1      34.297 -17.633 -23.561  0.00  0.00    +0.200 C 
ENDBRANCH  17  19
ENDBRANCH  15  17
ENDBRANCH   3   7
BRANCH   5  25
ATOM     23  O   UNL     1      32.769  -3.789 -26.839  0.00  0.00    -0.251 OA
ATOM     24  O   UNL     1      36.944  -3.154 -28.628  0.00  0.00    -0.270 OA
ATOM     25  N   UNL     1      34.608  -4.728 -25.683  0.00  0.00    -0.220 N 
ATOM     26  N   UNL     1      34.847  -3.552 -27.736  0.00  0.00    -0.235 N 
ATOM     27  C   UNL     1      33.975  -4.032 -26.748  0.00  0.00    +0.318 C 
ATOM     28  C   UNL     1      35.996  -4.826 -25.658  0.00  0.00    +0.078 C 
ATOM     29  C   UNL     1      36.804  -4.328 -26.594  0.00  0.00    +0.075 C 
ATOM     30  C   UNL     1      36.227  -3.625 -27.749  0.00  0.00    +0.254 C 
ATOM     31  H   UNL     1      34.428  -3.111 -28.511  0.00  0.00    +0.159 HD
ENDBRANCH   5  25
BRANCH   1  32
ATOM     32  C   UNL     1      31.497  -4.143 -21.872  0.00  0.00    +0.022 C 
ATOM     33  C   UNL     1      31.102  -2.827 -22.609  0.00  0.00    +0.004 C 
ATOM     34  C   UNL     1      30.153  -4.742 -21.340  0.00  0.00    +0.004 C 
ATOM     35  C   UNL     1      32.308  -3.746 -20.600  0.00  0.00    +0.004 C 
ENDBRANCH   1  32
BRANCH   2  36
ATOM     36  O   UNL     1      31.513  -6.962 -21.578  0.00  0.00    -0.472 OA
ATOM     37  C   UNL     1      32.148  -7.131 -20.313  0.00  0.00    +0.252 C 
ENDBRANCH   2  36
TORSDOF 6
ENDMDL
MODEL 7
REMARK VINA RESULT:      -8.7     10.676     18.259
REMARK  Name = 56640146
REMARK  6 active torsions:
REMARK  status: ('A' for Active; 'I' for Inactive)
REMARK    1  A    between atoms: C_1  and  C_32
REMARK    2  A    between atoms: C_2  and  O_36
REMARK    3  A    between atoms: C_3  and  C_7
REMARK    4  A    between atoms: C_5  and  N_25
REMARK    5  A    between atoms: C_15  and  N_17
REMARK    6  A    between atoms: N_17  and  S_19
REMARK                            x       y       z     vdW  Elec       q    Type
REMARK                         _______ _______ _______ _____ _____    ______ ____
ROOT
ATOM      1  C   UNL     1      32.265  -4.595 -22.872  0.00  0.00    +0.012 C 
ATOM      2  C   UNL     1      32.411  -5.964 -22.653  0.00  0.00    +0.135 C 
ATOM      3  C   UNL     1      33.153  -6.738 -23.546  0.00  0.00    +0.035 C 
ATOM      4  C   UNL     1      32.858  -3.998 -23.984  0.00  0.00    +0.014 C 
ATOM      5  C   UNL     1      33.599  -4.772 -24.878  0.00  0.00    +0.059 C 
ATOM      6  C   UNL     1      33.747  -6.142 -24.658  0.00  0.00    +0.018 C 
ENDROOT
BRANCH   3   7
ATOM      7  C   UNL     1      33.319  -8.160 -23.337  0.00  0.00    +0.003 C 
ATOM      8  C   UNL     1      32.509  -8.830 -22.420  0.00  0.00    +0.000 C 
ATOM      9  C   UNL     1      32.659 -10.210 -22.206  0.00  0.00    +0.000 C 
ATOM     10  C   UNL     1      34.288  -8.858 -24.052  0.00  0.00    +0.000 C 
ATOM     11  C   UNL     1      33.644 -10.920 -22.933  0.00  0.00    +0.001 C 
ATOM     12  C   UNL     1      34.450 -10.230 -23.853  0.00  0.00    +0.000 C 
ATOM     13  C   UNL     1      31.852 -10.901 -21.287  0.00  0.00    +0.001 C 
ATOM     14  C   UNL     1      33.793 -12.301 -22.719  0.00  0.00    +0.016 C 
ATOM     15  C   UNL     1      32.983 -12.970 -21.802  0.00  0.00    +0.064 C 
ATOM     16  C   UNL     1      32.014 -12.272 -21.087  0.00  0.00    +0.016 C 
BRANCH  15  17
ATOM     17  N   UNL     1      33.149 -14.373 -21.595  0.00  0.00    -0.219 N 
ATOM     18  H   UNL     1      32.415 -15.002 -21.785  0.00  0.00    +0.173 HD
BRANCH  17  19
ATOM     19  S   UNL     1      34.667 -14.935 -21.007  0.00  0.00    +0.056 S 
ATOM     20  O   UNL     1      35.493 -13.784 -20.694  0.00  0.00    -0.154 OA
ATOM     21  O   UNL     1      34.486 -15.998 -20.038  0.00  0.00    -0.154 OA
ATOM     22  C   UNL     1      35.331 -15.657 -22.491  0.00  0.00    +0.200 C 
ENDBRANCH  17  19
ENDBRANCH  15  17
ENDBRANCH   3   7
BRANCH   5  25
ATOM     23  O   UNL     1      32.224  -3.147 -26.820  0.00  0.00    -0.251 OA
ATOM     24  O   UNL     1      36.044  -2.472 -29.265  0.00  0.00    -0.270 OA
ATOM     25  N   UNL     1      34.217  -4.153 -26.034  0.00  0.00    -0.220 N 
ATOM     26  N   UNL     1      34.123  -2.889 -28.047  0.00  0.00    -0.235 N 
ATOM     27  C   UNL     1      33.424  -3.405 -26.946  0.00  0.00    +0.318 C 
ATOM     28  C   UNL     1      35.587  -4.264 -26.250  0.00  0.00    +0.078 C 
ATOM     29  C   UNL     1      36.233  -3.733 -27.288  0.00  0.00    +0.075 C 
ATOM     30  C   UNL     1      35.479  -2.974 -28.298  0.00  0.00    +0.254 C 
ATOM     31  H   UNL     1      33.586  -2.411 -28.720  0.00  0.00    +0.159 HD
ENDBRANCH   5  25
BRANCH   1  32
ATOM     32  C   UNL     1      31.475  -3.749 -21.927  0.00  0.00    +0.022 C 
ATOM     33  C   UNL     1      31.013  -2.425 -22.608  0.00  0.00    +0.004 C 
ATOM     34  C   UNL     1      30.173  -4.408 -21.366  0.00  0.00    +0.004 C 
ATOM     35  C   UNL     1      32.320  -3.365 -20.674  0.00  0.00    +0.004 C 
ENDBRANCH   1  32
BRANCH   2  36
ATOM     36  O   UNL     1      31.826  -6.538 -21.561  0.00  0.00    -0.472 OA
ATOM     37  C   UNL     1      32.641  -6.691 -20.401  0.00  0.00    +0.252 C 
ENDBRANCH   2  36
TORSDOF 6
ENDMDL
MODEL 8
REMARK VINA RESULT:      -8.7     11.187     15.371
REMARK  Name = 56640146
REMARK  6 active torsions:
REMARK  status: ('A' for Active; 'I' for Inactive)
REMARK    1  A    between atoms: C_1  and  C_32
REMARK    2  A    between atoms: C_2  and  O_36
REMARK    3  A    between atoms: C_3  and  C_7
REMARK    4  A    between atoms: C_5  and  N_25
REMARK    5  A    between atoms: C_15  and  N_17
REMARK    6  A    between atoms: N_17  and  S_19
REMARK                            x       y       z     vdW  Elec       q    Type
REMARK                         _______ _______ _______ _____ _____    ______ ____
ROOT
ATOM      1  C   UNL     1      32.271 -10.286 -20.732  0.00  0.00    +0.012 C 
ATOM      2  C   UNL     1      32.249  -9.062 -21.399  0.00  0.00    +0.135 C 
ATOM      3  C   UNL     1      32.607  -8.995 -22.746  0.00  0.00    +0.035 C 
ATOM      4  C   UNL     1      32.652 -11.444 -21.409  0.00  0.00    +0.014 C 
ATOM      5  C   UNL     1      33.011 -11.378 -22.756  0.00  0.00    +0.059 C 
ATOM      6  C   UNL     1      32.988 -10.153 -23.424  0.00  0.00    +0.018 C 
ENDROOT
BRANCH   3   7
ATOM      7  C   UNL     1      32.590  -7.736 -23.458  0.00  0.00    +0.003 C 
ATOM      8  C   UNL     1      33.784  -7.175 -23.912  0.00  0.00    +0.000 C 
ATOM      9  C   UNL     1      33.783  -5.953 -24.604  0.00  0.00    +0.000 C 
ATOM     10  C   UNL     1      31.381  -7.085 -23.689  0.00  0.00    +0.000 C 
ATOM     11  C   UNL     1      32.555  -5.291 -24.839  0.00  0.00    +0.001 C 
ATOM     12  C   UNL     1      31.363  -5.871 -24.375  0.00  0.00    +0.000 C 
ATOM     13  C   UNL     1      34.976  -5.373 -25.068  0.00  0.00    +0.001 C 
ATOM     14  C   UNL     1      32.555  -4.069 -25.532  0.00  0.00    +0.016 C 
ATOM     15  C   UNL     1      33.749  -3.508 -25.985  0.00  0.00    +0.064 C 
ATOM     16  C   UNL     1      34.957  -4.159 -25.754  0.00  0.00    +0.016 C 
BRANCH  15  17
ATOM     17  N   UNL     1      33.732  -2.264 -26.686  0.00  0.00    -0.219 N 
ATOM     18  H   UNL     1      33.729  -1.409 -26.199  0.00  0.00    +0.173 HD
BRANCH  17  19
ATOM     19  S   UNL     1      33.716  -2.302 -28.409  0.00  0.00    +0.056 S 
ATOM     20  O   UNL     1      32.440  -1.785 -28.867  0.00  0.00    -0.154 OA
ATOM     21  O   UNL     1      34.957  -1.785 -28.950  0.00  0.00    -0.154 OA
ATOM     22  C   UNL     1      33.690  -4.059 -28.684  0.00  0.00    +0.200 C 
ENDBRANCH  17  19
ENDBRANCH  15  17
ENDBRANCH   3   7
BRANCH   5  25
ATOM     23  O   UNL     1      34.466 -13.577 -21.593  0.00  0.00    -0.251 OA
ATOM     24  O   UNL     1      34.491 -15.915 -25.538  0.00  0.00    -0.270 OA
ATOM     25  N   UNL     1      33.407 -12.581 -23.461  0.00  0.00    -0.220 N 
ATOM     26  N   UNL     1      34.520 -14.680 -23.583  0.00  0.00    -0.235 N 
ATOM     27  C   UNL     1      34.160 -13.582 -22.789  0.00  0.00    +0.318 C 
ATOM     28  C   UNL     1      33.037 -12.778 -24.788  0.00  0.00    +0.078 C 
ATOM     29  C   UNL     1      33.364 -13.850 -25.510  0.00  0.00    +0.075 C 
ATOM     30  C   UNL     1      34.173 -14.915 -24.900  0.00  0.00    +0.254 C 
ATOM     31  H   UNL     1      35.087 -15.362 -23.154  0.00  0.00    +0.159 HD
ENDBRANCH   5  25
BRANCH   1  32
ATOM     32  C   UNL     1      31.891 -10.378 -19.290  0.00  0.00    +0.022 C 
ATOM     33  C   UNL     1      31.932 -11.854 -18.789  0.00  0.00    +0.004 C 
ATOM     34  C   UNL     1      32.802  -9.577 -18.304  0.00  0.00    +0.004 C 
ATOM     35  C   UNL     1      30.446  -9.840 -19.053  0.00  0.00    +0.004 C 
ENDBRANCH   1  32
BRANCH   2  36
ATOM     36  O   UNL     1      31.874  -7.935 -20.726  0.00  0.00    -0.472 OA
ATOM     37  C   UNL     1      32.917  -7.055 -20.313  0.00  0.00    +0.252 C 
ENDBRANCH   2  36
TORSDOF 6
ENDMDL
