MODEL 1
REMARK VINA RESULT:     -12.1      0.000      0.000
REMARK  Name = 54689025
REMARK  9 active torsions:
REMARK  status: ('A' for Active; 'I' for Inactive)
REMARK    1  A    between atoms: C_1  and  C_21
REMARK    2  A    between atoms: C_4  and  N_8
REMARK    3  A    between atoms: C_9  and  C_11
REMARK    4  A    between atoms: C_11  and  N_13
REMARK    5  A    between atoms: C_14  and  O_16
REMARK    6  A    between atoms: O_16  and  C_17
REMARK    7  A    between atoms: C_21  and  C_24
REMARK    8  A    between atoms: C_21  and  C_35
REMARK    9  A    between atoms: C_25  and  O_33
REMARK                            x       y       z     vdW  Elec       q    Type
REMARK                         _______ _______ _______ _____ _____    ______ ____
ROOT
ATOM      1  C   UNL     1      35.129 -16.702 -21.713  0.00  0.00    -0.017 C 
ATOM      2  C   UNL     1      34.975 -15.640 -22.604  0.00  0.00    +0.011 C 
ATOM      3  C   UNL     1      35.034 -16.480 -20.340  0.00  0.00    -0.004 C 
ATOM      4  C   UNL     1      34.724 -14.356 -22.122  0.00  0.00    +0.050 C 
ATOM      5  C   UNL     1      34.784 -15.195 -19.857  0.00  0.00    +0.001 C 
ATOM      6  C   UNL     1      34.628 -14.134 -20.748  0.00  0.00    +0.015 C 
ENDROOT
BRANCH   4   8
ATOM      7  O   UNL     1      32.445 -12.431 -22.480  0.00  0.00    -0.273 OA
ATOM      8  N   UNL     1      34.570 -13.293 -23.013  0.00  0.00    -0.283 N 
ATOM      9  C   UNL     1      33.479 -12.418 -23.141  0.00  0.00    +0.246 C 
ATOM     10  H   UNL     1      35.323 -13.135 -23.628  0.00  0.00    +0.155 HD
BRANCH   9  11
ATOM     11  C   UNL     1      33.726 -11.400 -24.240  0.00  0.00    +0.179 C 
BRANCH  11  13
ATOM     12  O   UNL     1      34.869  -9.088 -22.902  0.00  0.00    -0.226 OA
ATOM     13  N   UNL     1      33.081 -10.159 -23.925  0.00  0.00    -0.262 N 
ATOM     14  C   UNL     1      33.702  -9.101 -23.281  0.00  0.00    +0.402 C 
ATOM     15  H   UNL     1      32.136 -10.052 -24.182  0.00  0.00    +0.153 HD
BRANCH  14  16
ATOM     16  O   UNL     1      32.824  -8.065 -23.127  0.00  0.00    -0.442 OA
BRANCH  16  17
ATOM     17  C   UNL     1      32.374  -7.824 -21.790  0.00  0.00    +0.138 C 
ATOM     18  C   UNL     1      32.032  -9.165 -21.142  0.00  0.00    +0.044 C 
ATOM     19  C   UNL     1      31.132  -6.937 -21.877  0.00  0.00    +0.044 C 
ATOM     20  C   UNL     1      33.488  -7.115 -21.022  0.00  0.00    +0.044 C 
ENDBRANCH  16  17
ENDBRANCH  14  16
ENDBRANCH  11  13
ENDBRANCH   9  11
ENDBRANCH   4   8
BRANCH   1  21
ATOM     21  C   UNL     1      35.402 -18.100 -22.239  0.00  0.00    +0.054 C 
BRANCH  21  24
ATOM     22  O   UNL     1      36.792 -20.271 -19.466  0.00  0.00    -0.421 OA
ATOM     23  O   UNL     1      37.730 -18.754 -20.877  0.00  0.00    -0.245 OA
ATOM     24  C   UNL     1      35.388 -19.107 -21.121  0.00  0.00    +0.091 A 
ATOM     25  C   UNL     1      34.304 -19.770 -20.675  0.00  0.00    +0.139 A 
ATOM     26  C   UNL     1      36.723 -19.346 -20.500  0.00  0.00    +0.345 A 
ATOM     27  C   UNL     1      34.410 -20.739 -19.583  0.00  0.00    +0.068 A 
ATOM     28  C   UNL     1      35.657 -20.962 -19.008  0.00  0.00    +0.152 A 
ATOM     29  C   UNL     1      33.319 -21.461 -19.080  0.00  0.00    +0.006 C 
ATOM     30  C   UNL     1      35.845 -21.869 -17.964  0.00  0.00    +0.038 C 
ATOM     31  C   UNL     1      33.490 -22.374 -18.032  0.00  0.00    +0.000 C 
ATOM     32  C   UNL     1      34.751 -22.578 -17.477  0.00  0.00    +0.003 C 
BRANCH  25  33
ATOM     33  O   UNL     1      33.029 -19.612 -21.178  0.00  0.00    -0.506 OA
ATOM     34  H   UNL     1      32.532 -18.849 -20.963  0.00  0.00    +0.292 HD
ENDBRANCH  25  33
ENDBRANCH  21  24
BRANCH  21  35
ATOM     35  C   UNL     1      34.433 -18.542 -23.355  0.00  0.00    +0.009 C 
ATOM     36  C   UNL     1      34.935 -19.755 -24.132  0.00  0.00    +0.001 C 
ENDBRANCH  21  35
ENDBRANCH   1  21
TORSDOF 9
ENDMDL
MODEL 2
REMARK VINA RESULT:     -11.2      4.635     11.531
REMARK  Name = 54689025
REMARK  9 active torsions:
REMARK  status: ('A' for Active; 'I' for Inactive)
REMARK    1  A    between atoms: C_1  and  C_21
REMARK    2  A    between atoms: C_4  and  N_8
REMARK    3  A    between atoms: C_9  and  C_11
REMARK    4  A    between atoms: C_11  and  N_13
REMARK    5  A    between atoms: C_14  and  O_16
REMARK    6  A    between atoms: O_16  and  C_17
REMARK    7  A    between atoms: C_21  and  C_24
REMARK    8  A    between atoms: C_21  and  C_35
REMARK    9  A    between atoms: C_25  and  O_33
REMARK                            x       y       z     vdW  Elec       q    Type
REMARK                         _______ _______ _______ _____ _____    ______ ____
ROOT
ATOM      1  C   UNL     1      34.651 -20.071 -20.448  0.00  0.00    -0.017 C 
ATOM      2  C   UNL     1      34.992 -20.922 -19.396  0.00  0.00    +0.011 C 
ATOM      3  C   UNL     1      33.311 -19.789 -20.711  0.00  0.00    -0.004 C 
ATOM      4  C   UNL     1      33.992 -21.490 -18.607  0.00  0.00    +0.050 C 
ATOM      5  C   UNL     1      32.311 -20.358 -19.923  0.00  0.00    +0.001 C 
ATOM      6  C   UNL     1      32.651 -21.208 -18.871  0.00  0.00    +0.015 C 
ENDROOT
BRANCH   4   8
ATOM      7  O   UNL     1      36.445 -21.563 -16.875  0.00  0.00    -0.273 OA
ATOM      8  N   UNL     1      34.332 -22.343 -17.556  0.00  0.00    -0.283 N 
ATOM      9  C   UNL     1      35.498 -22.335 -16.774  0.00  0.00    +0.246 C 
ATOM     10  H   UNL     1      33.669 -23.036 -17.333  0.00  0.00    +0.155 HD
BRANCH   9  11
ATOM     11  C   UNL     1      35.460 -23.439 -15.732  0.00  0.00    +0.179 C 
BRANCH  11  13
ATOM     12  O   UNL     1      36.528 -23.222 -13.039  0.00  0.00    -0.226 OA
ATOM     13  N   UNL     1      36.786 -23.750 -15.285  0.00  0.00    -0.262 N 
ATOM     14  C   UNL     1      37.216 -23.617 -13.975  0.00  0.00    +0.402 C 
ATOM     15  H   UNL     1      37.433 -24.078 -15.952  0.00  0.00    +0.153 HD
BRANCH  14  16
ATOM     16  O   UNL     1      38.526 -23.992 -13.871  0.00  0.00    -0.442 OA
BRANCH  16  17
ATOM     17  C   UNL     1      38.756 -25.353 -13.491  0.00  0.00    +0.138 C 
ATOM     18  C   UNL     1      38.448 -25.502 -12.002  0.00  0.00    +0.044 C 
ATOM     19  C   UNL     1      40.226 -25.665 -13.770  0.00  0.00    +0.044 C 
ATOM     20  C   UNL     1      37.848 -26.252 -14.329  0.00  0.00    +0.044 C 
ENDBRANCH  16  17
ENDBRANCH  14  16
ENDBRANCH  11  13
ENDBRANCH   9  11
ENDBRANCH   4   8
BRANCH   1  21
ATOM     21  C   UNL     1      35.740 -19.452 -21.306  0.00  0.00    +0.054 C 
BRANCH  21  24
ATOM     22  O   UNL     1      34.412 -17.188 -24.034  0.00  0.00    -0.421 OA
ATOM     23  O   UNL     1      34.908 -19.406 -23.953  0.00  0.00    -0.245 OA
ATOM     24  C   UNL     1      35.261 -18.177 -21.945  0.00  0.00    +0.091 A 
ATOM     25  C   UNL     1      35.183 -16.977 -21.339  0.00  0.00    +0.139 A 
ATOM     26  C   UNL     1      34.856 -18.326 -23.373  0.00  0.00    +0.345 A 
ATOM     27  C   UNL     1      34.710 -15.796 -22.064  0.00  0.00    +0.068 A 
ATOM     28  C   UNL     1      34.337 -15.938 -23.397  0.00  0.00    +0.152 A 
ATOM     29  C   UNL     1      34.611 -14.522 -21.489  0.00  0.00    +0.006 C 
ATOM     30  C   UNL     1      33.875 -14.864 -24.160  0.00  0.00    +0.038 C 
ATOM     31  C   UNL     1      34.150 -13.434 -22.239  0.00  0.00    +0.000 C 
ATOM     32  C   UNL     1      33.784 -13.606 -23.573  0.00  0.00    +0.003 C 
BRANCH  25  33
ATOM     33  O   UNL     1      35.526 -16.741 -20.024  0.00  0.00    -0.506 OA
ATOM     34  H   UNL     1      36.265 -16.201 -19.822  0.00  0.00    +0.292 HD
ENDBRANCH  25  33
ENDBRANCH  21  24
BRANCH  21  35
ATOM     35  C   UNL     1      37.057 -19.195 -20.545  0.00  0.00    +0.009 C 
ATOM     36  C   UNL     1      38.145 -18.593 -21.428  0.00  0.00    +0.001 C 
ENDBRANCH  21  35
ENDBRANCH   1  21
TORSDOF 9
ENDMDL
MODEL 3
REMARK VINA RESULT:     -10.8      4.500     10.839
REMARK  Name = 54689025
REMARK  9 active torsions:
REMARK  status: ('A' for Active; 'I' for Inactive)
REMARK    1  A    between atoms: C_1  and  C_21
REMARK    2  A    between atoms: C_4  and  N_8
REMARK    3  A    between atoms: C_9  and  C_11
REMARK    4  A    between atoms: C_11  and  N_13
REMARK    5  A    between atoms: C_14  and  O_16
REMARK    6  A    between atoms: O_16  and  C_17
REMARK    7  A    between atoms: C_21  and  C_24
REMARK    8  A    between atoms: C_21  and  C_35
REMARK    9  A    between atoms: C_25  and  O_33
REMARK                            x       y       z     vdW  Elec       q    Type
REMARK                         _______ _______ _______ _____ _____    ______ ____
ROOT
ATOM      1  C   UNL     1      34.923 -20.002 -20.479  0.00  0.00    -0.017 C 
ATOM      2  C   UNL     1      35.417 -20.758 -19.417  0.00  0.00    +0.011 C 
ATOM      3  C   UNL     1      33.547 -19.915 -20.693  0.00  0.00    -0.004 C 
ATOM      4  C   UNL     1      34.536 -21.425 -18.566  0.00  0.00    +0.050 C 
ATOM      5  C   UNL     1      32.666 -20.584 -19.843  0.00  0.00    +0.001 C 
ATOM      6  C   UNL     1      33.161 -21.338 -18.779  0.00  0.00    +0.015 C 
ENDROOT
BRANCH   4   8
ATOM      7  O   UNL     1      36.916 -20.966 -16.790  0.00  0.00    -0.273 OA
ATOM      8  N   UNL     1      35.031 -22.182 -17.502  0.00  0.00    -0.283 N 
ATOM      9  C   UNL     1      36.153 -21.923 -16.700  0.00  0.00    +0.246 C 
ATOM     10  H   UNL     1      34.527 -23.000 -17.287  0.00  0.00    +0.155 HD
BRANCH   9  11
ATOM     11  C   UNL     1      36.333 -23.006 -15.652  0.00  0.00    +0.179 C 
BRANCH  11  13
ATOM     12  O   UNL     1      35.000 -25.251 -14.377  0.00  0.00    -0.226 OA
ATOM     13  N   UNL     1      35.258 -22.967 -14.703  0.00  0.00    -0.262 N 
ATOM     14  C   UNL     1      34.677 -24.091 -14.141  0.00  0.00    +0.402 C 
ATOM     15  H   UNL     1      34.912 -22.085 -14.435  0.00  0.00    +0.153 HD
BRANCH  14  16
ATOM     16  O   UNL     1      33.683 -23.723 -13.277  0.00  0.00    -0.442 OA
BRANCH  16  17
ATOM     17  C   UNL     1      32.354 -23.753 -13.808  0.00  0.00    +0.138 C 
ATOM     18  C   UNL     1      31.559 -22.601 -13.195  0.00  0.00    +0.044 C 
ATOM     19  C   UNL     1      31.736 -25.097 -13.422  0.00  0.00    +0.044 C 
ATOM     20  C   UNL     1      32.433 -23.614 -15.327  0.00  0.00    +0.044 C 
ENDBRANCH  16  17
ENDBRANCH  14  16
ENDBRANCH  11  13
ENDBRANCH   9  11
ENDBRANCH   4   8
BRANCH   1  21
ATOM     21  C   UNL     1      35.882 -19.275 -21.405  0.00  0.00    +0.054 C 
BRANCH  21  24
ATOM     22  O   UNL     1      34.317 -16.700 -23.697  0.00  0.00    -0.421 OA
ATOM     23  O   UNL     1      34.900 -18.881 -23.971  0.00  0.00    -0.245 OA
ATOM     24  C   UNL     1      35.319 -17.943 -21.823  0.00  0.00    +0.091 A 
ATOM     25  C   UNL     1      35.232 -16.849 -21.043  0.00  0.00    +0.139 A 
ATOM     26  C   UNL     1      34.841 -17.901 -23.235  0.00  0.00    +0.345 A 
ATOM     27  C   UNL     1      34.674 -15.598 -21.560  0.00  0.00    +0.068 A 
ATOM     28  C   UNL     1      34.231 -15.561 -22.878  0.00  0.00    +0.152 A 
ATOM     29  C   UNL     1      34.560 -14.427 -20.798  0.00  0.00    +0.006 C 
ATOM     30  C   UNL     1      33.688 -14.409 -23.449  0.00  0.00    +0.038 C 
ATOM     31  C   UNL     1      34.017 -13.264 -21.355  0.00  0.00    +0.000 C 
ATOM     32  C   UNL     1      33.583 -13.255 -22.679  0.00  0.00    +0.003 C 
BRANCH  25  33
ATOM     33  O   UNL     1      35.639 -16.792 -19.726  0.00  0.00    -0.506 OA
ATOM     34  H   UNL     1      36.368 -17.306 -19.438  0.00  0.00    +0.292 HD
ENDBRANCH  25  33
ENDBRANCH  21  24
BRANCH  21  35
ATOM     35  C   UNL     1      37.293 -19.086 -20.810  0.00  0.00    +0.009 C 
ATOM     36  C   UNL     1      38.252 -18.388 -21.768  0.00  0.00    +0.001 C 
ENDBRANCH  21  35
ENDBRANCH   1  21
TORSDOF 9
ENDMDL
MODEL 4
REMARK VINA RESULT:     -10.6      2.274     11.610
REMARK  Name = 54689025
REMARK  9 active torsions:
REMARK  status: ('A' for Active; 'I' for Inactive)
REMARK    1  A    between atoms: C_1  and  C_21
REMARK    2  A    between atoms: C_4  and  N_8
REMARK    3  A    between atoms: C_9  and  C_11
REMARK    4  A    between atoms: C_11  and  N_13
REMARK    5  A    between atoms: C_14  and  O_16
REMARK    6  A    between atoms: O_16  and  C_17
REMARK    7  A    between atoms: C_21  and  C_24
REMARK    8  A    between atoms: C_21  and  C_35
REMARK    9  A    between atoms: C_25  and  O_33
REMARK                            x       y       z     vdW  Elec       q    Type
REMARK                         _______ _______ _______ _____ _____    ______ ____
ROOT
ATOM      1  C   UNL     1      33.114  -9.777 -22.548  0.00  0.00    -0.017 C 
ATOM      2  C   UNL     1      33.148 -11.148 -22.799  0.00  0.00    +0.011 C 
ATOM      3  C   UNL     1      33.893  -8.908 -23.313  0.00  0.00    -0.004 C 
ATOM      4  C   UNL     1      33.959 -11.652 -23.816  0.00  0.00    +0.050 C 
ATOM      5  C   UNL     1      34.705  -9.412 -24.329  0.00  0.00    +0.001 C 
ATOM      6  C   UNL     1      34.737 -10.783 -24.581  0.00  0.00    +0.015 C 
ENDROOT
BRANCH   4   8
ATOM      7  O   UNL     1      34.992 -13.915 -22.132  0.00  0.00    -0.273 OA
ATOM      8  N   UNL     1      33.993 -13.024 -24.068  0.00  0.00    -0.283 N 
ATOM      9  C   UNL     1      34.490 -14.046 -23.243  0.00  0.00    +0.246 C 
ATOM     10  H   UNL     1      33.620 -13.312 -24.933  0.00  0.00    +0.155 HD
BRANCH   9  11
ATOM     11  C   UNL     1      34.330 -15.403 -23.905  0.00  0.00    +0.179 C 
BRANCH  11  13
ATOM     12  O   UNL     1      33.955 -18.280 -23.756  0.00  0.00    -0.226 OA
ATOM     13  N   UNL     1      35.183 -16.369 -23.276  0.00  0.00    -0.262 N 
ATOM     14  C   UNL     1      34.929 -17.731 -23.251  0.00  0.00    +0.402 C 
ATOM     15  H   UNL     1      36.000 -16.044 -22.834  0.00  0.00    +0.153 HD
BRANCH  14  16
ATOM     16  O   UNL     1      35.925 -18.381 -22.578  0.00  0.00    -0.442 OA
BRANCH  16  17
ATOM     17  C   UNL     1      35.724 -18.542 -21.170  0.00  0.00    +0.138 C 
ATOM     18  C   UNL     1      35.316 -17.193 -20.579  0.00  0.00    +0.044 C 
ATOM     19  C   UNL     1      37.046 -19.015 -20.568  0.00  0.00    +0.044 C 
ATOM     20  C   UNL     1      34.629 -19.585 -20.950  0.00  0.00    +0.044 C 
ENDBRANCH  16  17
ENDBRANCH  14  16
ENDBRANCH  11  13
ENDBRANCH   9  11
ENDBRANCH   4   8
BRANCH   1  21
ATOM     21  C   UNL     1      32.231  -9.229 -21.442  0.00  0.00    +0.054 C 
BRANCH  21  24
ATOM     22  O   UNL     1      32.692  -5.618 -20.404  0.00  0.00    -0.421 OA
ATOM     23  O   UNL     1      33.327  -7.598 -19.482  0.00  0.00    -0.245 OA
ATOM     24  C   UNL     1      32.123  -7.731 -21.532  0.00  0.00    +0.091 A 
ATOM     25  C   UNL     1      31.516  -7.047 -22.520  0.00  0.00    +0.139 A 
ATOM     26  C   UNL     1      32.760  -7.005 -20.395  0.00  0.00    +0.345 A 
ATOM     27  C   UNL     1      31.462  -5.584 -22.499  0.00  0.00    +0.068 A 
ATOM     28  C   UNL     1      32.054  -4.910 -21.437  0.00  0.00    +0.152 A 
ATOM     29  C   UNL     1      30.842  -4.818 -23.497  0.00  0.00    +0.006 C 
ATOM     30  C   UNL     1      32.047  -3.517 -21.340  0.00  0.00    +0.038 C 
ATOM     31  C   UNL     1      30.826  -3.420 -23.416  0.00  0.00    +0.000 C 
ATOM     32  C   UNL     1      31.427  -2.772 -22.338  0.00  0.00    +0.003 C 
BRANCH  25  33
ATOM     33  O   UNL     1      30.906  -7.626 -23.613  0.00  0.00    -0.506 OA
ATOM     34  H   UNL     1      30.294  -8.325 -23.493  0.00  0.00    +0.292 HD
ENDBRANCH  25  33
ENDBRANCH  21  24
BRANCH  21  35
ATOM     35  C   UNL     1      30.821  -9.856 -21.407  0.00  0.00    +0.009 C 
ATOM     36  C   UNL     1      30.622 -10.804 -20.229  0.00  0.00    +0.001 C 
ENDBRANCH  21  35
ENDBRANCH   1  21
TORSDOF 9
ENDMDL
MODEL 5
REMARK VINA RESULT:     -10.4      3.655      6.187
REMARK  Name = 54689025
REMARK  9 active torsions:
REMARK  status: ('A' for Active; 'I' for Inactive)
REMARK    1  A    between atoms: C_1  and  C_21
REMARK    2  A    between atoms: C_4  and  N_8
REMARK    3  A    between atoms: C_9  and  C_11
REMARK    4  A    between atoms: C_11  and  N_13
REMARK    5  A    between atoms: C_14  and  O_16
REMARK    6  A    between atoms: O_16  and  C_17
REMARK    7  A    between atoms: C_21  and  C_24
REMARK    8  A    between atoms: C_21  and  C_35
REMARK    9  A    between atoms: C_25  and  O_33
REMARK                            x       y       z     vdW  Elec       q    Type
REMARK                         _______ _______ _______ _____ _____    ______ ____
ROOT
ATOM      1  C   UNL     1      33.101 -11.853 -22.470  0.00  0.00    -0.017 C 
ATOM      2  C   UNL     1      32.763 -10.508 -22.325  0.00  0.00    +0.011 C 
ATOM      3  C   UNL     1      32.510 -12.814 -21.650  0.00  0.00    -0.004 C 
ATOM      4  C   UNL     1      31.831 -10.123 -21.361  0.00  0.00    +0.050 C 
ATOM      5  C   UNL     1      31.579 -12.429 -20.685  0.00  0.00    +0.001 C 
ATOM      6  C   UNL     1      31.239 -11.084 -20.541  0.00  0.00    +0.015 C 
ENDROOT
BRANCH   4   8
ATOM      7  O   UNL     1      32.977  -8.012 -19.556  0.00  0.00    -0.273 OA
ATOM      8  N   UNL     1      31.492  -8.777 -21.214  0.00  0.00    -0.283 N 
ATOM      9  C   UNL     1      32.061  -7.827 -20.351  0.00  0.00    +0.246 C 
ATOM     10  H   UNL     1      30.763  -8.453 -21.790  0.00  0.00    +0.155 HD
BRANCH   9  11
ATOM     11  C   UNL     1      31.391  -6.475 -20.515  0.00  0.00    +0.179 C 
BRANCH  11  13
ATOM     12  O   UNL     1      30.340  -4.388 -22.242  0.00  0.00    -0.226 OA
ATOM     13  N   UNL     1      32.110  -5.673 -21.463  0.00  0.00    -0.262 N 
ATOM     14  C   UNL     1      31.528  -4.694 -22.251  0.00  0.00    +0.402 C 
ATOM     15  H   UNL     1      33.077  -5.829 -21.560  0.00  0.00    +0.153 HD
BRANCH  14  16
ATOM     16  O   UNL     1      32.474  -4.111 -23.048  0.00  0.00    -0.442 OA
BRANCH  16  17
ATOM     17  C   UNL     1      32.661  -4.711 -24.334  0.00  0.00    +0.138 C 
ATOM     18  C   UNL     1      34.100  -5.216 -24.430  0.00  0.00    +0.044 C 
ATOM     19  C   UNL     1      32.398  -3.634 -25.386  0.00  0.00    +0.044 C 
ATOM     20  C   UNL     1      31.668  -5.863 -24.483  0.00  0.00    +0.044 C 
ENDBRANCH  16  17
ENDBRANCH  14  16
ENDBRANCH  11  13
ENDBRANCH   9  11
ENDBRANCH   4   8
BRANCH   1  21
ATOM     21  C   UNL     1      34.115 -12.271 -23.520  0.00  0.00    +0.054 C 
BRANCH  21  24
ATOM     22  O   UNL     1      33.095 -15.483 -25.245  0.00  0.00    -0.421 OA
ATOM     23  O   UNL     1      32.653 -13.289 -25.648  0.00  0.00    -0.245 OA
ATOM     24  C   UNL     1      34.046 -13.753 -23.774  0.00  0.00    +0.091 A 
ATOM     25  C   UNL     1      34.653 -14.703 -23.039  0.00  0.00    +0.139 A 
ATOM     26  C   UNL     1      33.214 -14.130 -24.954  0.00  0.00    +0.345 A 
ATOM     27  C   UNL     1      34.507 -16.121 -23.373  0.00  0.00    +0.068 A 
ATOM     28  C   UNL     1      33.728 -16.471 -24.471  0.00  0.00    +0.152 A 
ATOM     29  C   UNL     1      35.111 -17.155 -22.644  0.00  0.00    +0.006 C 
ATOM     30  C   UNL     1      33.537 -17.798 -24.857  0.00  0.00    +0.038 C 
ATOM     31  C   UNL     1      34.931 -18.492 -23.018  0.00  0.00    +0.000 C 
ATOM     32  C   UNL     1      34.144 -18.812 -24.122  0.00  0.00    +0.003 C 
BRANCH  25  33
ATOM     33  O   UNL     1      35.446 -14.454 -21.938  0.00  0.00    -0.506 OA
ATOM     34  H   UNL     1      35.935 -13.657 -21.884  0.00  0.00    +0.292 HD
ENDBRANCH  25  33
ENDBRANCH  21  24
BRANCH  21  35
ATOM     35  C   UNL     1      33.980 -11.503 -24.852  0.00  0.00    +0.009 C 
ATOM     36  C   UNL     1      35.073 -10.458 -25.048  0.00  0.00    +0.001 C 
ENDBRANCH  21  35
ENDBRANCH   1  21
TORSDOF 9
ENDMDL
MODEL 6
REMARK VINA RESULT:     -10.3      4.599     11.256
REMARK  Name = 54689025
REMARK  9 active torsions:
REMARK  status: ('A' for Active; 'I' for Inactive)
REMARK    1  A    between atoms: C_1  and  C_21
REMARK    2  A    between atoms: C_4  and  N_8
REMARK    3  A    between atoms: C_9  and  C_11
REMARK    4  A    between atoms: C_11  and  N_13
REMARK    5  A    between atoms: C_14  and  O_16
REMARK    6  A    between atoms: O_16  and  C_17
REMARK    7  A    between atoms: C_21  and  C_24
REMARK    8  A    between atoms: C_21  and  C_35
REMARK    9  A    between atoms: C_25  and  O_33
REMARK                            x       y       z     vdW  Elec       q    Type
REMARK                         _______ _______ _______ _____ _____    ______ ____
ROOT
ATOM      1  C   UNL     1      34.841 -19.926 -20.542  0.00  0.00    -0.017 C 
ATOM      2  C   UNL     1      35.259 -20.820 -19.557  0.00  0.00    +0.011 C 
ATOM      3  C   UNL     1      33.481 -19.673 -20.724  0.00  0.00    -0.004 C 
ATOM      4  C   UNL     1      34.318 -21.460 -18.751  0.00  0.00    +0.050 C 
ATOM      5  C   UNL     1      32.540 -20.315 -19.919  0.00  0.00    +0.001 C 
ATOM      6  C   UNL     1      32.958 -21.207 -18.932  0.00  0.00    +0.015 C 
ENDROOT
BRANCH   4   8
ATOM      7  O   UNL     1      36.456 -21.192 -16.657  0.00  0.00    -0.273 OA
ATOM      8  N   UNL     1      34.735 -22.355 -17.765  0.00  0.00    -0.283 N 
ATOM      9  C   UNL     1      35.745 -22.181 -16.805  0.00  0.00    +0.246 C 
ATOM     10  H   UNL     1      34.261 -23.217 -17.738  0.00  0.00    +0.155 HD
BRANCH   9  11
ATOM     11  C   UNL     1      35.872 -23.409 -15.922  0.00  0.00    +0.179 C 
BRANCH  11  13
ATOM     12  O   UNL     1      34.721 -24.796 -13.643  0.00  0.00    -0.226 OA
ATOM     13  N   UNL     1      35.927 -23.027 -14.541  0.00  0.00    -0.262 N 
ATOM     14  C   UNL     1      35.348 -23.750 -13.511  0.00  0.00    +0.402 C 
ATOM     15  H   UNL     1      36.407 -22.199 -14.310  0.00  0.00    +0.153 HD
BRANCH  14  16
ATOM     16  O   UNL     1      35.576 -23.128 -12.315  0.00  0.00    -0.442 OA
BRANCH  16  17
ATOM     17  C   UNL     1      36.568 -23.731 -11.478  0.00  0.00    +0.138 C 
ATOM     18  C   UNL     1      37.022 -25.038 -12.126  0.00  0.00    +0.044 C 
ATOM     19  C   UNL     1      35.920 -24.001 -10.120  0.00  0.00    +0.044 C 
ATOM     20  C   UNL     1      37.738 -22.759 -11.331  0.00  0.00    +0.044 C 
ENDBRANCH  16  17
ENDBRANCH  14  16
ENDBRANCH  11  13
ENDBRANCH   9  11
ENDBRANCH   4   8
BRANCH   1  21
ATOM     21  C   UNL     1      35.866 -19.229 -21.418  0.00  0.00    +0.054 C 
BRANCH  21  24
ATOM     22  O   UNL     1      34.829 -15.588 -21.350  0.00  0.00    -0.421 OA
ATOM     23  O   UNL     1      35.737 -16.980 -19.797  0.00  0.00    -0.245 OA
ATOM     24  C   UNL     1      35.327 -17.925 -21.943  0.00  0.00    +0.091 A 
ATOM     25  C   UNL     1      34.871 -17.711 -23.192  0.00  0.00    +0.139 A 
ATOM     26  C   UNL     1      35.323 -16.820 -20.941  0.00  0.00    +0.345 A 
ATOM     27  C   UNL     1      34.357 -16.400 -23.591  0.00  0.00    +0.068 A 
ATOM     28  C   UNL     1      34.351 -15.372 -22.654  0.00  0.00    +0.152 A 
ATOM     29  C   UNL     1      33.867 -16.118 -24.874  0.00  0.00    +0.006 C 
ATOM     30  C   UNL     1      33.878 -14.093 -22.953  0.00  0.00    +0.038 C 
ATOM     31  C   UNL     1      33.390 -14.841 -25.191  0.00  0.00    +0.000 C 
ATOM     32  C   UNL     1      33.395 -13.831 -24.230  0.00  0.00    +0.003 C 
BRANCH  25  33
ATOM     33  O   UNL     1      34.841 -18.665 -24.188  0.00  0.00    -0.506 OA
ATOM     34  H   UNL     1      35.047 -19.557 -23.990  0.00  0.00    +0.292 HD
ENDBRANCH  25  33
ENDBRANCH  21  24
BRANCH  21  35
ATOM     35  C   UNL     1      37.221 -18.993 -20.719  0.00  0.00    +0.009 C 
ATOM     36  C   UNL     1      38.300 -18.486 -21.670  0.00  0.00    +0.001 C 
ENDBRANCH  21  35
ENDBRANCH   1  21
TORSDOF 9
ENDMDL
MODEL 7
REMARK VINA RESULT:      -9.8      2.287     11.740
REMARK  Name = 54689025
REMARK  9 active torsions:
REMARK  status: ('A' for Active; 'I' for Inactive)
REMARK    1  A    between atoms: C_1  and  C_21
REMARK    2  A    between atoms: C_4  and  N_8
REMARK    3  A    between atoms: C_9  and  C_11
REMARK    4  A    between atoms: C_11  and  N_13
REMARK    5  A    between atoms: C_14  and  O_16
REMARK    6  A    between atoms: O_16  and  C_17
REMARK    7  A    between atoms: C_21  and  C_24
REMARK    8  A    between atoms: C_21  and  C_35
REMARK    9  A    between atoms: C_25  and  O_33
REMARK                            x       y       z     vdW  Elec       q    Type
REMARK                         _______ _______ _______ _____ _____    ______ ____
ROOT
ATOM      1  C   UNL     1      33.200  -9.689 -22.459  0.00  0.00    -0.017 C 
ATOM      2  C   UNL     1      33.199 -11.065 -22.685  0.00  0.00    +0.011 C 
ATOM      3  C   UNL     1      33.947  -8.847 -23.283  0.00  0.00    -0.004 C 
ATOM      4  C   UNL     1      33.945 -11.600 -23.736  0.00  0.00    +0.050 C 
ATOM      5  C   UNL     1      34.694  -9.382 -24.332  0.00  0.00    +0.001 C 
ATOM      6  C   UNL     1      34.693 -10.758 -24.559  0.00  0.00    +0.015 C 
ENDROOT
BRANCH   4   8
ATOM      7  O   UNL     1      34.988 -13.851 -22.042  0.00  0.00    -0.273 OA
ATOM      8  N   UNL     1      33.945 -12.977 -23.962  0.00  0.00    -0.283 N 
ATOM      9  C   UNL     1      34.449 -13.993 -23.135  0.00  0.00    +0.246 C 
ATOM     10  H   UNL     1      33.540 -13.273 -24.809  0.00  0.00    +0.155 HD
BRANCH   9  11
ATOM     11  C   UNL     1      34.242 -15.359 -23.765  0.00  0.00    +0.179 C 
BRANCH  11  13
ATOM     12  O   UNL     1      33.967 -18.250 -23.731  0.00  0.00    -0.226 OA
ATOM     13  N   UNL     1      35.131 -16.319 -23.179  0.00  0.00    -0.262 N 
ATOM     14  C   UNL     1      34.924 -17.688 -23.208  0.00  0.00    +0.402 C 
ATOM     15  H   UNL     1      35.939 -15.985 -22.727  0.00  0.00    +0.153 HD
BRANCH  14  16
ATOM     16  O   UNL     1      35.945 -18.331 -22.566  0.00  0.00    -0.442 OA
BRANCH  16  17
ATOM     17  C   UNL     1      35.757 -18.554 -21.164  0.00  0.00    +0.138 C 
ATOM     18  C   UNL     1      35.323 -17.240 -20.516  0.00  0.00    +0.044 C 
ATOM     19  C   UNL     1      37.094 -19.020 -20.590  0.00  0.00    +0.044 C 
ATOM     20  C   UNL     1      34.689 -19.631 -20.981  0.00  0.00    +0.044 C 
ENDBRANCH  16  17
ENDBRANCH  14  16
ENDBRANCH  11  13
ENDBRANCH   9  11
ENDBRANCH   4   8
BRANCH   1  21
ATOM     21  C   UNL     1      32.387  -9.107 -21.316  0.00  0.00    +0.054 C 
BRANCH  21  24
ATOM     22  O   UNL     1      30.610  -6.238 -23.032  0.00  0.00    -0.421 OA
ATOM     23  O   UNL     1      30.550  -8.496 -23.304  0.00  0.00    -0.245 OA
ATOM     24  C   UNL     1      32.001  -7.681 -21.602  0.00  0.00    +0.091 A 
ATOM     25  C   UNL     1      32.477  -6.597 -20.961  0.00  0.00    +0.139 A 
ATOM     26  C   UNL     1      31.007  -7.528 -22.704  0.00  0.00    +0.345 A 
ATOM     27  C   UNL     1      32.037  -5.250 -21.332  0.00  0.00    +0.068 A 
ATOM     28  C   UNL     1      31.112  -5.111 -22.362  0.00  0.00    +0.152 A 
ATOM     29  C   UNL     1      32.498  -4.084 -20.704  0.00  0.00    +0.006 C 
ATOM     30  C   UNL     1      30.642  -3.864 -22.777  0.00  0.00    +0.038 C 
ATOM     31  C   UNL     1      32.036  -2.826 -21.108  0.00  0.00    +0.000 C 
ATOM     32  C   UNL     1      31.110  -2.717 -22.144  0.00  0.00    +0.003 C 
BRANCH  25  33
ATOM     33  O   UNL     1      33.390  -6.636 -19.928  0.00  0.00    -0.506 OA
ATOM     34  H   UNL     1      33.687  -7.460 -19.596  0.00  0.00    +0.292 HD
ENDBRANCH  25  33
ENDBRANCH  21  24
BRANCH  21  35
ATOM     35  C   UNL     1      31.131  -9.931 -20.968  0.00  0.00    +0.009 C 
ATOM     36  C   UNL     1      31.067 -10.324 -19.495  0.00  0.00    +0.001 C 
ENDBRANCH  21  35
ENDBRANCH   1  21
TORSDOF 9
ENDMDL
MODEL 8
REMARK VINA RESULT:      -9.5      3.228      5.315
REMARK  Name = 54689025
REMARK  9 active torsions:
REMARK  status: ('A' for Active; 'I' for Inactive)
REMARK    1  A    between atoms: C_1  and  C_21
REMARK    2  A    between atoms: C_4  and  N_8
REMARK    3  A    between atoms: C_9  and  C_11
REMARK    4  A    between atoms: C_11  and  N_13
REMARK    5  A    between atoms: C_14  and  O_16
REMARK    6  A    between atoms: O_16  and  C_17
REMARK    7  A    between atoms: C_21  and  C_24
REMARK    8  A    between atoms: C_21  and  C_35
REMARK    9  A    between atoms: C_25  and  O_33
REMARK                            x       y       z     vdW  Elec       q    Type
REMARK                         _______ _______ _______ _____ _____    ______ ____
ROOT
ATOM      1  C   UNL     1      32.975 -12.386 -22.402  0.00  0.00    -0.017 C 
ATOM      2  C   UNL     1      32.722 -11.017 -22.313  0.00  0.00    +0.011 C 
ATOM      3  C   UNL     1      32.477 -13.252 -21.429  0.00  0.00    -0.004 C 
ATOM      4  C   UNL     1      31.970 -10.514 -21.252  0.00  0.00    +0.050 C 
ATOM      5  C   UNL     1      31.725 -12.749 -20.367  0.00  0.00    +0.001 C 
ATOM      6  C   UNL     1      31.471 -11.381 -20.279  0.00  0.00    +0.015 C 
ENDROOT
BRANCH   4   8
ATOM      7  O   UNL     1      32.942  -8.481 -19.265  0.00  0.00    -0.273 OA
ATOM      8  N   UNL     1      31.716  -9.145 -21.162  0.00  0.00    -0.283 N 
ATOM      9  C   UNL     1      32.197  -8.234 -20.208  0.00  0.00    +0.246 C 
ATOM     10  H   UNL     1      31.127  -8.771 -21.856  0.00  0.00    +0.155 HD
BRANCH   9  11
ATOM     11  C   UNL     1      31.675  -6.835 -20.482  0.00  0.00    +0.179 C 
BRANCH  11  13
ATOM     12  O   UNL     1      33.953  -6.281 -22.197  0.00  0.00    -0.226 OA
ATOM     13  N   UNL     1      31.670  -6.571 -21.892  0.00  0.00    -0.262 N 
ATOM     14  C   UNL     1      32.808  -6.314 -22.638  0.00  0.00    +0.402 C 
ATOM     15  H   UNL     1      30.803  -6.571 -22.358  0.00  0.00    +0.153 HD
BRANCH  14  16
ATOM     16  O   UNL     1      32.474  -6.103 -23.946  0.00  0.00    -0.442 OA
BRANCH  16  17
ATOM     17  C   UNL     1      32.972  -4.894 -24.529  0.00  0.00    +0.138 C 
ATOM     18  C   UNL     1      34.493  -4.997 -24.639  0.00  0.00    +0.044 C 
ATOM     19  C   UNL     1      32.577  -3.742 -23.606  0.00  0.00    +0.044 C 
ATOM     20  C   UNL     1      32.337  -4.721 -25.908  0.00  0.00    +0.044 C 
ENDBRANCH  16  17
ENDBRANCH  14  16
ENDBRANCH  11  13
ENDBRANCH   9  11
ENDBRANCH   4   8
BRANCH   1  21
ATOM     21  C   UNL     1      33.794 -12.933 -23.558  0.00  0.00    +0.054 C 
BRANCH  21  24
ATOM     22  O   UNL     1      35.341 -15.947 -21.869  0.00  0.00    -0.421 OA
ATOM     23  O   UNL     1      35.341 -13.722 -21.393  0.00  0.00    -0.245 OA
ATOM     24  C   UNL     1      34.135 -14.382 -23.337  0.00  0.00    +0.091 A 
ATOM     25  C   UNL     1      33.748 -15.406 -24.121  0.00  0.00    +0.139 A 
ATOM     26  C   UNL     1      34.977 -14.632 -22.132  0.00  0.00    +0.345 A 
ATOM     27  C   UNL     1      34.149 -16.781 -23.815  0.00  0.00    +0.068 A 
ATOM     28  C   UNL     1      34.938 -17.011 -22.693  0.00  0.00    +0.152 A 
ATOM     29  C   UNL     1      33.782 -17.886 -24.595  0.00  0.00    +0.006 C 
ATOM     30  C   UNL     1      35.364 -18.290 -22.331  0.00  0.00    +0.038 C 
ATOM     31  C   UNL     1      34.200 -19.176 -24.245  0.00  0.00    +0.000 C 
ATOM     32  C   UNL     1      34.991 -19.376 -23.116  0.00  0.00    +0.003 C 
BRANCH  25  33
ATOM     33  O   UNL     1      32.965 -15.277 -25.249  0.00  0.00    -0.506 OA
ATOM     34  H   UNL     1      33.216 -15.702 -26.045  0.00  0.00    +0.292 HD
ENDBRANCH  25  33
ENDBRANCH  21  24
BRANCH  21  35
ATOM     35  C   UNL     1      33.118 -12.756 -24.934  0.00  0.00    +0.009 C 
ATOM     36  C   UNL     1      33.959 -11.938 -25.908  0.00  0.00    +0.001 C 
ENDBRANCH  21  35
ENDBRANCH   1  21
TORSDOF 9
ENDMDL
MODEL 9
REMARK VINA RESULT:      -9.1      4.670     11.406
REMARK  Name = 54689025
REMARK  9 active torsions:
REMARK  status: ('A' for Active; 'I' for Inactive)
REMARK    1  A    between atoms: C_1  and  C_21
REMARK    2  A    between atoms: C_4  and  N_8
REMARK    3  A    between atoms: C_9  and  C_11
REMARK    4  A    between atoms: C_11  and  N_13
REMARK    5  A    between atoms: C_14  and  O_16
REMARK    6  A    between atoms: O_16  and  C_17
REMARK    7  A    between atoms: C_21  and  C_24
REMARK    8  A    between atoms: C_21  and  C_35
REMARK    9  A    between atoms: C_25  and  O_33
REMARK                            x       y       z     vdW  Elec       q    Type
REMARK                         _______ _______ _______ _____ _____    ______ ____
ROOT
ATOM      1  C   UNL     1      34.632 -20.025 -20.451  0.00  0.00    -0.017 C 
ATOM      2  C   UNL     1      34.891 -20.719 -19.270  0.00  0.00    +0.011 C 
ATOM      3  C   UNL     1      33.323 -19.904 -20.917  0.00  0.00    -0.004 C 
ATOM      4  C   UNL     1      33.841 -21.291 -18.552  0.00  0.00    +0.050 C 
ATOM      5  C   UNL     1      32.272 -20.477 -20.200  0.00  0.00    +0.001 C 
ATOM      6  C   UNL     1      32.532 -21.170 -19.018  0.00  0.00    +0.015 C 
ENDROOT
BRANCH   4   8
ATOM      7  O   UNL     1      33.496 -24.202 -17.890  0.00  0.00    -0.273 OA
ATOM      8  N   UNL     1      34.100 -21.987 -17.371  0.00  0.00    -0.283 N 
ATOM      9  C   UNL     1      33.920 -23.355 -17.110  0.00  0.00    +0.246 C 
ATOM     10  H   UNL     1      34.455 -21.450 -16.625  0.00  0.00    +0.155 HD
BRANCH   9  11
ATOM     11  C   UNL     1      34.329 -23.695 -15.689  0.00  0.00    +0.179 C 
BRANCH  11  13
ATOM     12  O   UNL     1      35.993 -23.519 -13.314  0.00  0.00    -0.226 OA
ATOM     13  N   UNL     1      35.753 -23.842 -15.600  0.00  0.00    -0.262 N 
ATOM     14  C   UNL     1      36.472 -23.742 -14.421  0.00  0.00    +0.402 C 
ATOM     15  H   UNL     1      36.250 -24.025 -16.430  0.00  0.00    +0.153 HD
BRANCH  14  16
ATOM     16  O   UNL     1      37.804 -23.930 -14.667  0.00  0.00    -0.442 OA
BRANCH  16  17
ATOM     17  C   UNL     1      38.416 -25.026 -13.978  0.00  0.00    +0.138 C 
ATOM     18  C   UNL     1      38.388 -24.735 -12.478  0.00  0.00    +0.044 C 
ATOM     19  C   UNL     1      39.856 -25.135 -14.477  0.00  0.00    +0.044 C 
ATOM     20  C   UNL     1      37.637 -26.300 -14.302  0.00  0.00    +0.044 C 
ENDBRANCH  16  17
ENDBRANCH  14  16
ENDBRANCH  11  13
ENDBRANCH   9  11
ENDBRANCH   4   8
BRANCH   1  21
ATOM     21  C   UNL     1      35.775 -19.402 -21.232  0.00  0.00    +0.054 C 
BRANCH  21  24
ATOM     22  O   UNL     1      35.043 -15.694 -21.449  0.00  0.00    -0.421 OA
ATOM     23  O   UNL     1      35.815 -17.036 -19.782  0.00  0.00    -0.245 OA
ATOM     24  C   UNL     1      35.352 -18.101 -21.860  0.00  0.00    +0.091 A 
ATOM     25  C   UNL     1      34.929 -17.945 -23.129  0.00  0.00    +0.139 A 
ATOM     26  C   UNL     1      35.428 -16.928 -20.942  0.00  0.00    +0.345 A 
ATOM     27  C   UNL     1      34.530 -16.629 -23.632  0.00  0.00    +0.068 A 
ATOM     28  C   UNL     1      34.599 -15.537 -22.773  0.00  0.00    +0.152 A 
ATOM     29  C   UNL     1      34.079 -16.404 -24.940  0.00  0.00    +0.006 C 
ATOM     30  C   UNL     1      34.236 -14.250 -23.173  0.00  0.00    +0.038 C 
ATOM     31  C   UNL     1      33.712 -15.120 -25.358  0.00  0.00    +0.000 C 
ATOM     32  C   UNL     1      33.790 -14.045 -24.474  0.00  0.00    +0.003 C 
BRANCH  25  33
ATOM     33  O   UNL     1      34.831 -18.964 -24.053  0.00  0.00    -0.506 OA
ATOM     34  H   UNL     1      34.960 -19.853 -23.786  0.00  0.00    +0.292 HD
ENDBRANCH  25  33
ENDBRANCH  21  24
BRANCH  21  35
ATOM     35  C   UNL     1      37.053 -19.188 -20.395  0.00  0.00    +0.009 C 
ATOM     36  C   UNL     1      37.357 -20.358 -19.465  0.00  0.00    +0.001 C 
ENDBRANCH  21  35
ENDBRANCH   1  21
TORSDOF 9
ENDMDL
