MODEL 1
REMARK VINA RESULT:     -11.5      0.000      0.000
REMARK  Name = 11992146
REMARK  2 active torsions:
REMARK  status: ('A' for Active; 'I' for Inactive)
REMARK    1  A    between atoms: C_2  and  C_14
REMARK    2  A    between atoms: C_5  and  C_20
REMARK                            x       y       z     vdW  Elec       q    Type
REMARK                         _______ _______ _______ _____ _____    ______ ____
ROOT
ATOM      1  N   UNL     1      32.222 -22.379 -17.638  0.00  0.00    -0.244 NA
ATOM      2  C   UNL     1      33.991 -23.338 -15.700  0.00  0.00    +0.016 C 
ATOM      3  C   UNL     1      34.468 -22.585 -16.767  0.00  0.00    +0.020 C 
ATOM      4  C   UNL     1      32.632 -23.613 -15.600  0.00  0.00    +0.022 C 
ATOM      5  C   UNL     1      33.550 -22.133 -17.701  0.00  0.00    +0.084 C 
ATOM      6  C   UNL     1      31.796 -23.115 -16.588  0.00  0.00    +0.099 C 
ENDROOT
BRANCH   2  14
ATOM      7  O   UNL     1      37.361 -27.137 -13.319  0.00  0.00    -0.270 OA
ATOM      8  N   UNL     1      35.219 -23.105 -13.578  0.00  0.00    -0.316 N 
ATOM      9  N   UNL     1      37.939 -25.549 -11.743  0.00  0.00    -0.300 N 
ATOM     10  C   UNL     1      36.094 -23.822 -12.815  0.00  0.00    +0.031 C 
ATOM     11  C   UNL     1      36.661 -23.408 -11.511  0.00  0.00    +0.063 C 
ATOM     12  C   UNL     1      36.354 -25.020 -13.449  0.00  0.00    +0.064 C 
ATOM     13  C   UNL     1      37.992 -24.144 -11.322  0.00  0.00    +0.096 C 
ATOM     14  C   UNL     1      34.904 -23.834 -14.698  0.00  0.00    +0.048 C 
ATOM     15  C   UNL     1      35.591 -25.031 -14.641  0.00  0.00    +0.020 C 
ATOM     16  C   UNL     1      37.248 -26.002 -12.866  0.00  0.00    +0.247 C 
ATOM     17  H   UNL     1      34.870 -22.210 -13.360  0.00  0.00    +0.152 HD
ATOM     18  H   UNL     1      38.422 -26.213 -11.199  0.00  0.00    +0.150 HD
ENDBRANCH   2  14
BRANCH   5  20
ATOM     19  F   UNL     1      36.254 -21.861 -18.415  0.00  0.00    -0.204 F 
ATOM     20  C   UNL     1      33.971 -21.346 -18.836  0.00  0.00    +0.045 C 
ATOM     21  C   UNL     1      35.326 -21.236 -19.154  0.00  0.00    +0.142 C 
ATOM     22  C   UNL     1      33.019 -20.688 -19.618  0.00  0.00    +0.004 C 
ATOM     23  C   UNL     1      35.728 -20.470 -20.249  0.00  0.00    +0.030 C 
ATOM     24  C   UNL     1      33.420 -19.923 -20.713  0.00  0.00    +0.000 C 
ATOM     25  C   UNL     1      34.775 -19.814 -21.029  0.00  0.00    +0.002 C 
ENDBRANCH   5  20
TORSDOF 2
ENDMDL
MODEL 2
REMARK VINA RESULT:     -11.3      5.898     10.590
REMARK  Name = 11992146
REMARK  2 active torsions:
REMARK  status: ('A' for Active; 'I' for Inactive)
REMARK    1  A    between atoms: C_2  and  C_14
REMARK    2  A    between atoms: C_5  and  C_20
REMARK                            x       y       z     vdW  Elec       q    Type
REMARK                         _______ _______ _______ _____ _____    ______ ____
ROOT
ATOM      1  N   UNL     1      36.813 -20.058 -20.097  0.00  0.00    -0.244 NA
ATOM      2  C   UNL     1      35.746 -17.955 -21.597  0.00  0.00    +0.016 C 
ATOM      3  C   UNL     1      34.904 -18.798 -20.881  0.00  0.00    +0.020 C 
ATOM      4  C   UNL     1      37.120 -18.161 -21.565  0.00  0.00    +0.022 C 
ATOM      5  C   UNL     1      35.482 -19.826 -20.153  0.00  0.00    +0.084 C 
ATOM      6  C   UNL     1      37.600 -19.218 -20.806  0.00  0.00    +0.099 C 
ENDROOT
BRANCH   2  14
ATOM      7  O   UNL     1      33.630 -15.549 -26.200  0.00  0.00    -0.270 OA
ATOM      8  N   UNL     1      35.091 -15.597 -21.866  0.00  0.00    -0.316 N 
ATOM      9  N   UNL     1      33.279 -13.629 -24.963  0.00  0.00    -0.300 N 
ATOM     10  C   UNL     1      34.543 -14.787 -22.819  0.00  0.00    +0.031 C 
ATOM     11  C   UNL     1      34.285 -13.334 -22.688  0.00  0.00    +0.063 C 
ATOM     12  C   UNL     1      34.286 -15.540 -23.945  0.00  0.00    +0.064 C 
ATOM     13  C   UNL     1      33.155 -12.969 -23.658  0.00  0.00    +0.096 C 
ATOM     14  C   UNL     1      35.197 -16.869 -22.372  0.00  0.00    +0.048 C 
ATOM     15  C   UNL     1      34.709 -16.862 -23.664  0.00  0.00    +0.020 C 
ATOM     16  C   UNL     1      33.709 -14.945 -25.134  0.00  0.00    +0.247 C 
ATOM     17  H   UNL     1      35.365 -15.314 -20.963  0.00  0.00    +0.152 HD
ATOM     18  H   UNL     1      33.044 -13.111 -25.767  0.00  0.00    +0.150 HD
ENDBRANCH   2  14
BRANCH   5  20
ATOM     19  F   UNL     1      36.608 -21.761 -18.455  0.00  0.00    -0.204 F 
ATOM     20  C   UNL     1      34.672 -20.740 -19.385  0.00  0.00    +0.045 C 
ATOM     21  C   UNL     1      35.273 -21.688 -18.554  0.00  0.00    +0.142 C 
ATOM     22  C   UNL     1      33.280 -20.679 -19.473  0.00  0.00    +0.004 C 
ATOM     23  C   UNL     1      34.485 -22.572 -17.816  0.00  0.00    +0.030 C 
ATOM     24  C   UNL     1      32.492 -21.562 -18.736  0.00  0.00    +0.000 C 
ATOM     25  C   UNL     1      33.094 -22.509 -17.907  0.00  0.00    +0.002 C 
ENDBRANCH   5  20
TORSDOF 2
ENDMDL
MODEL 3
REMARK VINA RESULT:     -11.3      8.081     12.359
REMARK  Name = 11992146
REMARK  2 active torsions:
REMARK  status: ('A' for Active; 'I' for Inactive)
REMARK    1  A    between atoms: C_2  and  C_14
REMARK    2  A    between atoms: C_5  and  C_20
REMARK                            x       y       z     vdW  Elec       q    Type
REMARK                         _______ _______ _______ _____ _____    ______ ____
ROOT
ATOM      1  N   UNL     1      34.887 -17.832 -23.980  0.00  0.00    -0.244 NA
ATOM      2  C   UNL     1      34.124 -15.229 -23.310  0.00  0.00    +0.016 C 
ATOM      3  C   UNL     1      34.584 -16.095 -22.325  0.00  0.00    +0.020 C 
ATOM      4  C   UNL     1      34.043 -15.661 -24.628  0.00  0.00    +0.022 C 
ATOM      5  C   UNL     1      34.950 -17.375 -22.709  0.00  0.00    +0.084 C 
ATOM      6  C   UNL     1      34.434 -16.962 -24.909  0.00  0.00    +0.099 C 
ENDROOT
BRANCH   2  14
ATOM      7  O   UNL     1      34.113  -9.642 -23.808  0.00  0.00    -0.270 OA
ATOM      8  N   UNL     1      32.919 -13.618 -21.890  0.00  0.00    -0.316 N 
ATOM      9  N   UNL     1      32.490  -9.558 -22.166  0.00  0.00    -0.300 N 
ATOM     10  C   UNL     1      32.720 -12.270 -21.808  0.00  0.00    +0.031 C 
ATOM     11  C   UNL     1      31.929 -11.564 -20.773  0.00  0.00    +0.063 C 
ATOM     12  C   UNL     1      33.400 -11.660 -22.841  0.00  0.00    +0.064 C 
ATOM     13  C   UNL     1      31.457 -10.233 -21.372  0.00  0.00    +0.096 C 
ATOM     14  C   UNL     1      33.729 -13.884 -22.966  0.00  0.00    +0.048 C 
ATOM     15  C   UNL     1      34.048 -12.685 -23.572  0.00  0.00    +0.020 C 
ATOM     16  C   UNL     1      33.384 -10.220 -23.008  0.00  0.00    +0.247 C 
ATOM     17  H   UNL     1      32.541 -14.291 -21.276  0.00  0.00    +0.152 HD
ATOM     18  H   UNL     1      32.555  -8.578 -22.101  0.00  0.00    +0.150 HD
ENDBRANCH   2  14
BRANCH   5  20
ATOM     19  F   UNL     1      33.321 -19.409 -21.658  0.00  0.00    -0.204 F 
ATOM     20  C   UNL     1      35.438 -18.330 -21.742  0.00  0.00    +0.045 C 
ATOM     21  C   UNL     1      34.593 -19.324 -21.244  0.00  0.00    +0.142 C 
ATOM     22  C   UNL     1      36.761 -18.259 -21.300  0.00  0.00    +0.004 C 
ATOM     23  C   UNL     1      35.069 -20.242 -20.307  0.00  0.00    +0.030 C 
ATOM     24  C   UNL     1      37.236 -19.176 -20.363  0.00  0.00    +0.000 C 
ATOM     25  C   UNL     1      36.391 -20.168 -19.867  0.00  0.00    +0.002 C 
ENDBRANCH   5  20
TORSDOF 2
ENDMDL
MODEL 4
REMARK VINA RESULT:     -11.2      1.282      1.679
REMARK  Name = 11992146
REMARK  2 active torsions:
REMARK  status: ('A' for Active; 'I' for Inactive)
REMARK    1  A    between atoms: C_2  and  C_14
REMARK    2  A    between atoms: C_5  and  C_20
REMARK                            x       y       z     vdW  Elec       q    Type
REMARK                         _______ _______ _______ _____ _____    ______ ____
ROOT
ATOM      1  N   UNL     1      32.590 -22.322 -17.856  0.00  0.00    -0.244 NA
ATOM      2  C   UNL     1      34.381 -23.185 -15.893  0.00  0.00    +0.016 C 
ATOM      3  C   UNL     1      34.831 -22.405 -16.951  0.00  0.00    +0.020 C 
ATOM      4  C   UNL     1      33.039 -23.535 -15.813  0.00  0.00    +0.022 C 
ATOM      5  C   UNL     1      33.903 -22.002 -17.899  0.00  0.00    +0.084 C 
ATOM      6  C   UNL     1      32.191 -23.082 -16.813  0.00  0.00    +0.099 C 
ENDROOT
BRANCH   2  14
ATOM      7  O   UNL     1      37.983 -22.527 -11.644  0.00  0.00    -0.270 OA
ATOM      8  N   UNL     1      35.669 -24.950 -14.757  0.00  0.00    -0.316 N 
ATOM      9  N   UNL     1      38.128 -24.828 -11.489  0.00  0.00    -0.300 N 
ATOM     10  C   UNL     1      36.551 -25.072 -13.722  0.00  0.00    +0.031 C 
ATOM     11  C   UNL     1      37.208 -26.323 -13.277  0.00  0.00    +0.063 C 
ATOM     12  C   UNL     1      36.753 -23.827 -13.165  0.00  0.00    +0.064 C 
ATOM     13  C   UNL     1      37.582 -26.155 -11.799  0.00  0.00    +0.096 C 
ATOM     14  C   UNL     1      35.305 -23.632 -14.878  0.00  0.00    +0.048 C 
ATOM     15  C   UNL     1      35.968 -22.910 -13.905  0.00  0.00    +0.020 C 
ATOM     16  C   UNL     1      37.655 -23.640 -12.045  0.00  0.00    +0.247 C 
ATOM     17  H   UNL     1      35.347 -25.688 -15.325  0.00  0.00    +0.152 HD
ATOM     18  H   UNL     1      38.875 -24.774 -10.848  0.00  0.00    +0.150 HD
ENDBRANCH   2  14
BRANCH   5  20
ATOM     19  F   UNL     1      36.596 -21.622 -18.605  0.00  0.00    -0.204 F 
ATOM     20  C   UNL     1      34.296 -21.190 -19.026  0.00  0.00    +0.045 C 
ATOM     21  C   UNL     1      35.646 -21.027 -19.340  0.00  0.00    +0.142 C 
ATOM     22  C   UNL     1      33.321 -20.563 -19.805  0.00  0.00    +0.004 C 
ATOM     23  C   UNL     1      36.021 -20.237 -20.428  0.00  0.00    +0.030 C 
ATOM     24  C   UNL     1      33.695 -19.774 -20.892  0.00  0.00    +0.000 C 
ATOM     25  C   UNL     1      35.045 -19.611 -21.204  0.00  0.00    +0.002 C 
ENDBRANCH   5  20
TORSDOF 2
ENDMDL
MODEL 5
REMARK VINA RESULT:     -11.2      7.877     12.443
REMARK  Name = 11992146
REMARK  2 active torsions:
REMARK  status: ('A' for Active; 'I' for Inactive)
REMARK    1  A    between atoms: C_2  and  C_14
REMARK    2  A    between atoms: C_5  and  C_20
REMARK                            x       y       z     vdW  Elec       q    Type
REMARK                         _______ _______ _______ _____ _____    ______ ____
ROOT
ATOM      1  N   UNL     1      34.639 -18.029 -24.023  0.00  0.00    -0.244 NA
ATOM      2  C   UNL     1      34.048 -15.344 -23.526  0.00  0.00    +0.016 C 
ATOM      3  C   UNL     1      34.569 -16.140 -22.514  0.00  0.00    +0.020 C 
ATOM      4  C   UNL     1      33.821 -15.885 -24.786  0.00  0.00    +0.022 C 
ATOM      5  C   UNL     1      34.846 -17.466 -22.811  0.00  0.00    +0.084 C 
ATOM      6  C   UNL     1      34.130 -17.223 -24.981  0.00  0.00    +0.099 C 
ENDROOT
BRANCH   2  14
ATOM      7  O   UNL     1      31.525 -11.092 -20.876  0.00  0.00    -0.270 OA
ATOM      8  N   UNL     1      34.230 -12.947 -24.064  0.00  0.00    -0.316 N 
ATOM      9  N   UNL     1      32.761  -9.630 -22.171  0.00  0.00    -0.300 N 
ATOM     10  C   UNL     1      33.775 -11.751 -23.588  0.00  0.00    +0.031 C 
ATOM     11  C   UNL     1      34.047 -10.418 -24.172  0.00  0.00    +0.063 C 
ATOM     12  C   UNL     1      32.993 -11.987 -22.476  0.00  0.00    +0.064 C 
ATOM     13  C   UNL     1      33.907  -9.378 -23.053  0.00  0.00    +0.096 C 
ATOM     14  C   UNL     1      33.742 -13.957 -23.271  0.00  0.00    +0.048 C 
ATOM     15  C   UNL     1      32.965 -13.389 -22.280  0.00  0.00    +0.020 C 
ATOM     16  C   UNL     1      32.359 -10.900 -21.757  0.00  0.00    +0.247 C 
ATOM     17  H   UNL     1      34.815 -13.066 -24.848  0.00  0.00    +0.152 HD
ATOM     18  H   UNL     1      32.244  -8.854 -21.853  0.00  0.00    +0.150 HD
ENDBRANCH   2  14
BRANCH   5  20
ATOM     19  F   UNL     1      33.298 -19.464 -21.583  0.00  0.00    -0.204 F 
ATOM     20  C   UNL     1      35.389 -18.354 -21.811  0.00  0.00    +0.045 C 
ATOM     21  C   UNL     1      34.584 -19.332 -21.225  0.00  0.00    +0.142 C 
ATOM     22  C   UNL     1      36.726 -18.234 -21.427  0.00  0.00    +0.004 C 
ATOM     23  C   UNL     1      35.113 -20.186 -20.257  0.00  0.00    +0.030 C 
ATOM     24  C   UNL     1      37.255 -19.087 -20.459  0.00  0.00    +0.000 C 
ATOM     25  C   UNL     1      36.449 -20.063 -19.873  0.00  0.00    +0.002 C 
ENDBRANCH   5  20
TORSDOF 2
ENDMDL
MODEL 6
REMARK VINA RESULT:     -11.0      9.665     13.474
REMARK  Name = 11992146
REMARK  2 active torsions:
REMARK  status: ('A' for Active; 'I' for Inactive)
REMARK    1  A    between atoms: C_2  and  C_14
REMARK    2  A    between atoms: C_5  and  C_20
REMARK                            x       y       z     vdW  Elec       q    Type
REMARK                         _______ _______ _______ _____ _____    ______ ____
ROOT
ATOM      1  N   UNL     1      34.199 -15.660 -25.345  0.00  0.00    -0.244 NA
ATOM      2  C   UNL     1      33.496 -13.359 -23.924  0.00  0.00    +0.016 C 
ATOM      3  C   UNL     1      33.915 -14.496 -23.244  0.00  0.00    +0.020 C 
ATOM      4  C   UNL     1      33.426 -13.369 -25.312  0.00  0.00    +0.022 C 
ATOM      5  C   UNL     1      34.253 -15.611 -23.995  0.00  0.00    +0.084 C 
ATOM      6  C   UNL     1      33.785 -14.536 -25.970  0.00  0.00    +0.099 C 
ENDROOT
BRANCH   2  14
ATOM      7  O   UNL     1      31.008 -10.481 -19.802  0.00  0.00    -0.270 OA
ATOM      8  N   UNL     1      33.469 -10.914 -23.633  0.00  0.00    -0.316 N 
ATOM      9  N   UNL     1      32.004  -8.563 -20.621  0.00  0.00    -0.300 N 
ATOM     10  C   UNL     1      32.993  -9.991 -22.747  0.00  0.00    +0.031 C 
ATOM     11  C   UNL     1      33.116  -8.520 -22.865  0.00  0.00    +0.063 C 
ATOM     12  C   UNL     1      32.350 -10.654 -21.722  0.00  0.00    +0.064 C 
ATOM     13  C   UNL     1      33.032  -7.927 -21.454  0.00  0.00    +0.096 C 
ATOM     14  C   UNL     1      33.132 -12.170 -23.192  0.00  0.00    +0.048 C 
ATOM     15  C   UNL     1      32.431 -12.038 -22.009  0.00  0.00    +0.020 C 
ATOM     16  C   UNL     1      31.729  -9.930 -20.630  0.00  0.00    +0.247 C 
ATOM     17  H   UNL     1      33.972 -10.711 -24.455  0.00  0.00    +0.152 HD
ATOM     18  H   UNL     1      31.476  -7.989 -20.019  0.00  0.00    +0.150 HD
ENDBRANCH   2  14
BRANCH   5  20
ATOM     19  F   UNL     1      33.358 -18.145 -24.817  0.00  0.00    -0.204 F 
ATOM     20  C   UNL     1      34.698 -16.829 -23.358  0.00  0.00    +0.045 C 
ATOM     21  C   UNL     1      34.225 -18.067 -23.798  0.00  0.00    +0.142 C 
ATOM     22  C   UNL     1      35.603 -16.768 -22.297  0.00  0.00    +0.004 C 
ATOM     23  C   UNL     1      34.656 -19.240 -23.178  0.00  0.00    +0.030 C 
ATOM     24  C   UNL     1      36.033 -17.941 -21.676  0.00  0.00    +0.000 C 
ATOM     25  C   UNL     1      35.560 -19.177 -22.116  0.00  0.00    +0.002 C 
ENDBRANCH   5  20
TORSDOF 2
ENDMDL
MODEL 7
REMARK VINA RESULT:     -10.8      3.016      7.536
REMARK  Name = 11992146
REMARK  2 active torsions:
REMARK  status: ('A' for Active; 'I' for Inactive)
REMARK    1  A    between atoms: C_2  and  C_14
REMARK    2  A    between atoms: C_5  and  C_20
REMARK                            x       y       z     vdW  Elec       q    Type
REMARK                         _______ _______ _______ _____ _____    ______ ____
ROOT
ATOM      1  N   UNL     1      33.656 -24.590 -13.769  0.00  0.00    -0.244 NA
ATOM      2  C   UNL     1      33.915 -23.095 -16.115  0.00  0.00    +0.016 C 
ATOM      3  C   UNL     1      35.047 -23.566 -15.461  0.00  0.00    +0.020 C 
ATOM      4  C   UNL     1      32.654 -23.370 -15.600  0.00  0.00    +0.022 C 
ATOM      5  C   UNL     1      34.865 -24.302 -14.301  0.00  0.00    +0.084 C 
ATOM      6  C   UNL     1      32.579 -24.115 -14.434  0.00  0.00    +0.099 C 
ENDROOT
BRANCH   2  14
ATOM      7  O   UNL     1      32.039 -20.362 -20.640  0.00  0.00    -0.270 OA
ATOM      8  N   UNL     1      35.274 -22.015 -17.862  0.00  0.00    -0.316 N 
ATOM      9  N   UNL     1      34.217 -19.732 -21.089  0.00  0.00    -0.300 N 
ATOM     10  C   UNL     1      35.090 -21.285 -19.001  0.00  0.00    +0.031 C 
ATOM     11  C   UNL     1      36.155 -20.777 -19.896  0.00  0.00    +0.063 C 
ATOM     12  C   UNL     1      33.736 -21.114 -19.201  0.00  0.00    +0.064 C 
ATOM     13  C   UNL     1      35.602 -19.555 -20.637  0.00  0.00    +0.096 C 
ATOM     14  C   UNL     1      34.047 -22.323 -17.327  0.00  0.00    +0.048 C 
ATOM     15  C   UNL     1      33.073 -21.780 -18.142  0.00  0.00    +0.020 C 
ATOM     16  C   UNL     1      33.231 -20.383 -20.347  0.00  0.00    +0.247 C 
ATOM     17  H   UNL     1      36.146 -22.277 -17.485  0.00  0.00    +0.152 HD
ATOM     18  H   UNL     1      33.968 -19.370 -21.971  0.00  0.00    +0.150 HD
ENDBRANCH   2  14
BRANCH   5  20
ATOM     19  F   UNL     1      36.261 -26.595 -15.132  0.00  0.00    -0.204 F 
ATOM     20  C   UNL     1      35.993 -24.824 -13.567  0.00  0.00    +0.045 C 
ATOM     21  C   UNL     1      36.657 -25.968 -14.015  0.00  0.00    +0.142 C 
ATOM     22  C   UNL     1      36.422 -24.185 -12.403  0.00  0.00    +0.004 C 
ATOM     23  C   UNL     1      37.746 -26.470 -13.300  0.00  0.00    +0.030 C 
ATOM     24  C   UNL     1      37.509 -24.686 -11.688  0.00  0.00    +0.000 C 
ATOM     25  C   UNL     1      38.171 -25.830 -12.136  0.00  0.00    +0.002 C 
ENDBRANCH   5  20
TORSDOF 2
ENDMDL
MODEL 8
REMARK VINA RESULT:     -10.8     10.856     14.296
REMARK  Name = 11992146
REMARK  2 active torsions:
REMARK  status: ('A' for Active; 'I' for Inactive)
REMARK    1  A    between atoms: C_2  and  C_14
REMARK    2  A    between atoms: C_5  and  C_20
REMARK                            x       y       z     vdW  Elec       q    Type
REMARK                         _______ _______ _______ _____ _____    ______ ____
ROOT
ATOM      1  N   UNL     1      31.464  -9.186 -20.709  0.00  0.00    -0.244 NA
ATOM      2  C   UNL     1      32.548 -11.527 -21.783  0.00  0.00    +0.016 C 
ATOM      3  C   UNL     1      32.671 -10.324 -22.469  0.00  0.00    +0.020 C 
ATOM      4  C   UNL     1      31.885 -11.562 -20.562  0.00  0.00    +0.022 C 
ATOM      5  C   UNL     1      32.116  -9.191 -21.894  0.00  0.00    +0.084 C 
ATOM      6  C   UNL     1      31.365 -10.374 -20.072  0.00  0.00    +0.099 C 
ENDROOT
BRANCH   2  14
ATOM      7  O   UNL     1      35.569 -16.251 -21.675  0.00  0.00    -0.270 OA
ATOM      8  N   UNL     1      32.945 -13.073 -23.658  0.00  0.00    -0.316 N 
ATOM      9  N   UNL     1      34.841 -16.696 -23.823  0.00  0.00    -0.300 N 
ATOM     10  C   UNL     1      33.582 -14.258 -23.894  0.00  0.00    +0.031 C 
ATOM     11  C   UNL     1      33.673 -14.957 -25.196  0.00  0.00    +0.063 C 
ATOM     12  C   UNL     1      34.153 -14.694 -22.717  0.00  0.00    +0.064 C 
ATOM     13  C   UNL     1      33.891 -16.448 -24.914  0.00  0.00    +0.096 C 
ATOM     14  C   UNL     1      33.108 -12.736 -22.336  0.00  0.00    +0.048 C 
ATOM     15  C   UNL     1      33.859 -13.723 -21.729  0.00  0.00    +0.020 C 
ATOM     16  C   UNL     1      34.911 -15.929 -22.660  0.00  0.00    +0.247 C 
ATOM     17  H   UNL     1      32.450 -12.546 -24.327  0.00  0.00    +0.152 HD
ATOM     18  H   UNL     1      35.467 -17.450 -23.918  0.00  0.00    +0.150 HD
ENDBRANCH   2  14
BRANCH   5  20
ATOM     19  F   UNL     1      34.433  -7.606 -21.774  0.00  0.00    -0.204 F 
ATOM     20  C   UNL     1      32.204  -7.907 -22.547  0.00  0.00    +0.045 C 
ATOM     21  C   UNL     1      33.375  -7.151 -22.460  0.00  0.00    +0.142 C 
ATOM     22  C   UNL     1      31.113  -7.416 -23.267  0.00  0.00    +0.004 C 
ATOM     23  C   UNL     1      33.453  -5.908 -23.090  0.00  0.00    +0.030 C 
ATOM     24  C   UNL     1      31.191  -6.175 -23.897  0.00  0.00    +0.000 C 
ATOM     25  C   UNL     1      32.361  -5.420 -23.809  0.00  0.00    +0.002 C 
ENDBRANCH   5  20
TORSDOF 2
ENDMDL
MODEL 9
REMARK VINA RESULT:     -10.7     10.113     13.334
REMARK  Name = 11992146
REMARK  2 active torsions:
REMARK  status: ('A' for Active; 'I' for Inactive)
REMARK    1  A    between atoms: C_2  and  C_14
REMARK    2  A    between atoms: C_5  and  C_20
REMARK                            x       y       z     vdW  Elec       q    Type
REMARK                         _______ _______ _______ _____ _____    ______ ____
ROOT
ATOM      1  N   UNL     1      34.140 -15.519 -25.514  0.00  0.00    -0.244 NA
ATOM      2  C   UNL     1      33.425 -13.402 -23.837  0.00  0.00    +0.016 C 
ATOM      3  C   UNL     1      33.806 -14.623 -23.293  0.00  0.00    +0.020 C 
ATOM      4  C   UNL     1      33.400 -13.237 -25.217  0.00  0.00    +0.022 C 
ATOM      5  C   UNL     1      34.151 -15.641 -24.168  0.00  0.00    +0.084 C 
ATOM      6  C   UNL     1      33.763 -14.318 -26.005  0.00  0.00    +0.099 C 
ENDROOT
BRANCH   2  14
ATOM      7  O   UNL     1      32.894  -8.007 -22.398  0.00  0.00    -0.270 OA
ATOM      8  N   UNL     1      32.570 -12.516 -21.705  0.00  0.00    -0.316 N 
ATOM      9  N   UNL     1      31.806  -8.688 -20.477  0.00  0.00    -0.300 N 
ATOM     10  C   UNL     1      32.312 -11.306 -21.126  0.00  0.00    +0.031 C 
ATOM     11  C   UNL     1      31.804 -11.086 -19.752  0.00  0.00    +0.063 C 
ATOM     12  C   UNL     1      32.625 -10.310 -22.026  0.00  0.00    +0.064 C 
ATOM     13  C   UNL     1      31.091  -9.728 -19.728  0.00  0.00    +0.096 C 
ATOM     14  C   UNL     1      33.055 -12.307 -22.972  0.00  0.00    +0.048 C 
ATOM     15  C   UNL     1      33.106 -10.945 -23.197  0.00  0.00    +0.020 C 
ATOM     16  C   UNL     1      32.464  -8.910 -21.686  0.00  0.00    +0.247 C 
ATOM     17  H   UNL     1      32.430 -13.394 -21.282  0.00  0.00    +0.152 HD
ATOM     18  H   UNL     1      31.821  -7.777 -20.102  0.00  0.00    +0.150 HD
ENDBRANCH   2  14
BRANCH   5  20
ATOM     19  F   UNL     1      32.978 -18.025 -25.082  0.00  0.00    -0.204 F 
ATOM     20  C   UNL     1      34.558 -16.936 -23.677  0.00  0.00    +0.045 C 
ATOM     21  C   UNL     1      33.947 -18.096 -24.158  0.00  0.00    +0.142 C 
ATOM     22  C   UNL     1      35.566 -17.031 -22.716  0.00  0.00    +0.004 C 
ATOM     23  C   UNL     1      34.342 -19.345 -23.678  0.00  0.00    +0.030 C 
ATOM     24  C   UNL     1      35.961 -18.279 -22.236  0.00  0.00    +0.000 C 
ATOM     25  C   UNL     1      35.348 -19.437 -22.716  0.00  0.00    +0.002 C 
ENDBRANCH   5  20
TORSDOF 2
ENDMDL
