MODEL 1
REMARK VINA RESULT:     -11.8      0.000      0.000
REMARK  Name = 24755471
REMARK  13 active torsions:
REMARK  status: ('A' for Active; 'I' for Inactive)
REMARK    1  A    between atoms: C_1  and  S_11
REMARK    2  A    between atoms: C_9  and  O_27
REMARK    3  A    between atoms: S_11  and  N_14
REMARK    4  A    between atoms: N_14  and  C_16
REMARK    5  A    between atoms: C_16  and  C_18
REMARK    6  A    between atoms: C_16  and  C_21
REMARK    7  A    between atoms: C_18  and  O_19
REMARK    8  A    between atoms: C_21  and  C_22
REMARK    9  A    between atoms: C_22  and  C_24
REMARK   10  A    between atoms: C_24  and  O_25
REMARK   11  A    between atoms: O_27  and  C_28
REMARK   12  A    between atoms: C_28  and  C_29
REMARK   13  A    between atoms: C_34  and  C_36
REMARK                            x       y       z     vdW  Elec       q    Type
REMARK                         _______ _______ _______ _____ _____    ______ ____
ROOT
ATOM      1  C   UNL     1      35.557 -23.039 -15.956  0.00  0.00    +0.122 C 
ATOM      2  C   UNL     1      34.498 -22.018 -17.894  0.00  0.00    +0.002 C 
ATOM      3  C   UNL     1      34.428 -22.826 -16.748  0.00  0.00    +0.020 C 
ATOM      4  C   UNL     1      35.731 -21.416 -18.242  0.00  0.00    +0.003 C 
ATOM      5  C   UNL     1      36.769 -22.447 -16.299  0.00  0.00    +0.020 C 
ATOM      6  C   UNL     1      36.857 -21.641 -17.434  0.00  0.00    +0.001 C 
ATOM      7  C   UNL     1      35.801 -20.607 -19.388  0.00  0.00    +0.037 C 
ATOM      8  C   UNL     1      33.371 -21.793 -18.703  0.00  0.00    +0.003 C 
ATOM      9  C   UNL     1      34.672 -20.395 -20.180  0.00  0.00    +0.139 C 
ATOM     10  C   UNL     1      33.460 -20.987 -19.838  0.00  0.00    +0.037 C 
ENDROOT
BRANCH   1  11
ATOM     11  S   UNL     1      35.446 -24.060 -14.517  0.00  0.00    +0.061 S 
ATOM     12  O   UNL     1      34.339 -23.580 -13.713  0.00  0.00    -0.153 OA
ATOM     13  O   UNL     1      35.475 -25.436 -14.974  0.00  0.00    -0.153 OA
BRANCH  11  14
ATOM     14  N   UNL     1      36.911 -23.711 -13.728  0.00  0.00    -0.170 NA
ATOM     15  H   UNL     1      36.706 -22.996 -13.031  0.00  0.00    +0.149 HD
BRANCH  14  16
ATOM     16  C   UNL     1      37.649 -24.788 -13.032  0.00  0.00    +0.174 C 
BRANCH  16  18
ATOM     17  O   UNL     1      40.036 -24.731 -13.497  0.00  0.00    -0.249 OA
ATOM     18  C   UNL     1      38.906 -25.077 -13.818  0.00  0.00    +0.330 C 
BRANCH  18  19
ATOM     19  O   UNL     1      38.653 -25.799 -14.940  0.00  0.00    -0.479 OA
ATOM     20  H   UNL     1      39.014 -25.531 -15.761  0.00  0.00    +0.295 HD
ENDBRANCH  18  19
ENDBRANCH  16  18
BRANCH  16  21
ATOM     21  C   UNL     1      37.886 -24.412 -11.565  0.00  0.00    +0.040 C 
BRANCH  21  22
ATOM     22  C   UNL     1      36.807 -23.554 -10.898  0.00  0.00    +0.111 C 
BRANCH  22  24
ATOM     23  O   UNL     1      35.484 -24.486  -9.105  0.00  0.00    -0.250 OA
ATOM     24  C   UNL     1      35.672 -24.351 -10.308  0.00  0.00    +0.314 C 
BRANCH  24  25
ATOM     25  O   UNL     1      34.883 -24.922 -11.253  0.00  0.00    -0.480 OA
ATOM     26  H   UNL     1      34.976 -24.674 -12.152  0.00  0.00    +0.295 HD
ENDBRANCH  24  25
ENDBRANCH  22  24
ENDBRANCH  21  22
ENDBRANCH  16  21
ENDBRANCH  14  16
ENDBRANCH  11  14
ENDBRANCH   1  11
BRANCH   9  27
ATOM     27  O   UNL     1      34.757 -19.607 -21.286  0.00  0.00    -0.471 OA
BRANCH  27  28
ATOM     28  C   UNL     1      35.912 -18.780 -21.408  0.00  0.00    +0.232 C 
BRANCH  28  29
ATOM     29  C   UNL     1      35.481 -17.378 -21.724  0.00  0.00    +0.021 C 
ATOM     30  C   UNL     1      35.361 -16.968 -23.052  0.00  0.00    -0.000 C 
ATOM     31  C   UNL     1      35.202 -16.484 -20.690  0.00  0.00    -0.000 C 
ATOM     32  C   UNL     1      34.961 -15.665 -23.346  0.00  0.00    +0.010 C 
ATOM     33  C   UNL     1      34.801 -15.181 -20.984  0.00  0.00    +0.010 C 
ATOM     34  C   UNL     1      34.681 -14.772 -22.312  0.00  0.00    +0.068 C 
BRANCH  34  36
ATOM     35  N   UNL     1      33.936 -12.352 -22.859  0.00  0.00    -0.191 NA
ATOM     36  C   UNL     1      34.270 -13.436 -22.614  0.00  0.00    +0.100 C 
ENDBRANCH  34  36
ENDBRANCH  28  29
ENDBRANCH  27  28
ENDBRANCH   9  27
TORSDOF 13
ENDMDL
MODEL 2
REMARK VINA RESULT:     -11.8      1.748      3.429
REMARK  Name = 24755471
REMARK  13 active torsions:
REMARK  status: ('A' for Active; 'I' for Inactive)
REMARK    1  A    between atoms: C_1  and  S_11
REMARK    2  A    between atoms: C_9  and  O_27
REMARK    3  A    between atoms: S_11  and  N_14
REMARK    4  A    between atoms: N_14  and  C_16
REMARK    5  A    between atoms: C_16  and  C_18
REMARK    6  A    between atoms: C_16  and  C_21
REMARK    7  A    between atoms: C_18  and  O_19
REMARK    8  A    between atoms: C_21  and  C_22
REMARK    9  A    between atoms: C_22  and  C_24
REMARK   10  A    between atoms: C_24  and  O_25
REMARK   11  A    between atoms: O_27  and  C_28
REMARK   12  A    between atoms: C_28  and  C_29
REMARK   13  A    between atoms: C_34  and  C_36
REMARK                            x       y       z     vdW  Elec       q    Type
REMARK                         _______ _______ _______ _____ _____    ______ ____
ROOT
ATOM      1  C   UNL     1      33.547 -23.554 -14.856  0.00  0.00    +0.122 C 
ATOM      2  C   UNL     1      35.027 -22.523 -16.490  0.00  0.00    +0.002 C 
ATOM      3  C   UNL     1      34.812 -23.095 -15.226  0.00  0.00    +0.020 C 
ATOM      4  C   UNL     1      33.943 -22.414 -17.393  0.00  0.00    +0.003 C 
ATOM      5  C   UNL     1      32.481 -23.446 -15.745  0.00  0.00    +0.020 C 
ATOM      6  C   UNL     1      32.676 -22.880 -17.005  0.00  0.00    +0.001 C 
ATOM      7  C   UNL     1      34.157 -21.842 -18.657  0.00  0.00    +0.037 C 
ATOM      8  C   UNL     1      36.294 -22.056 -16.878  0.00  0.00    +0.003 C 
ATOM      9  C   UNL     1      35.423 -21.384 -19.026  0.00  0.00    +0.139 C 
ATOM     10  C   UNL     1      36.489 -21.491 -18.138  0.00  0.00    +0.037 C 
ENDROOT
BRANCH   1  11
ATOM     11  S   UNL     1      33.299 -24.271 -13.260  0.00  0.00    +0.061 S 
ATOM     12  O   UNL     1      32.938 -23.206 -12.344  0.00  0.00    -0.153 OA
ATOM     13  O   UNL     1      32.418 -25.409 -13.440  0.00  0.00    -0.153 OA
BRANCH  11  14
ATOM     14  N   UNL     1      34.858 -24.835 -12.884  0.00  0.00    -0.170 NA
ATOM     15  H   UNL     1      35.291 -25.110 -13.765  0.00  0.00    +0.149 HD
BRANCH  14  16
ATOM     16  C   UNL     1      35.818 -23.946 -12.194  0.00  0.00    +0.174 C 
BRANCH  16  18
ATOM     17  O   UNL     1      35.228 -25.266 -10.238  0.00  0.00    -0.249 OA
ATOM     18  C   UNL     1      35.884 -24.363 -10.744  0.00  0.00    +0.330 C 
BRANCH  18  19
ATOM     19  O   UNL     1      36.784 -23.629 -10.041  0.00  0.00    -0.479 OA
ATOM     20  H   UNL     1      37.084 -23.930  -9.206  0.00  0.00    +0.295 HD
ENDBRANCH  18  19
ENDBRANCH  16  18
BRANCH  16  21
ATOM     21  C   UNL     1      37.168 -23.949 -12.921  0.00  0.00    +0.040 C 
BRANCH  21  22
ATOM     22  C   UNL     1      37.996 -25.233 -12.814  0.00  0.00    +0.111 C 
BRANCH  22  24
ATOM     23  O   UNL     1      38.604 -27.118 -14.197  0.00  0.00    -0.250 OA
ATOM     24  C   UNL     1      37.946 -26.096 -14.050  0.00  0.00    +0.314 C 
BRANCH  24  25
ATOM     25  O   UNL     1      37.104 -25.609 -14.997  0.00  0.00    -0.480 OA
ATOM     26  H   UNL     1      36.900 -24.695 -15.015  0.00  0.00    +0.295 HD
ENDBRANCH  24  25
ENDBRANCH  22  24
ENDBRANCH  21  22
ENDBRANCH  16  21
ENDBRANCH  14  16
ENDBRANCH  11  14
ENDBRANCH   1  11
BRANCH   9  27
ATOM     27  O   UNL     1      35.615 -20.833 -20.256  0.00  0.00    -0.471 OA
BRANCH  27  28
ATOM     28  C   UNL     1      36.203 -19.535 -20.302  0.00  0.00    +0.232 C 
BRANCH  28  29
ATOM     29  C   UNL     1      35.641 -18.783 -21.472  0.00  0.00    +0.021 C 
ATOM     30  C   UNL     1      35.825 -17.403 -21.567  0.00  0.00    -0.000 C 
ATOM     31  C   UNL     1      34.933 -19.462 -22.463  0.00  0.00    -0.000 C 
ATOM     32  C   UNL     1      35.302 -16.704 -22.654  0.00  0.00    +0.010 C 
ATOM     33  C   UNL     1      34.411 -18.763 -23.551  0.00  0.00    +0.010 C 
ATOM     34  C   UNL     1      34.594 -17.384 -23.646  0.00  0.00    +0.068 C 
BRANCH  34  36
ATOM     35  N   UNL     1      33.624 -16.084 -25.665  0.00  0.00    -0.191 NA
ATOM     36  C   UNL     1      34.059 -16.666 -24.761  0.00  0.00    +0.100 C 
ENDBRANCH  34  36
ENDBRANCH  28  29
ENDBRANCH  27  28
ENDBRANCH   9  27
TORSDOF 13
ENDMDL
MODEL 3
REMARK VINA RESULT:     -11.8      1.460      3.097
REMARK  Name = 24755471
REMARK  13 active torsions:
REMARK  status: ('A' for Active; 'I' for Inactive)
REMARK    1  A    between atoms: C_1  and  S_11
REMARK    2  A    between atoms: C_9  and  O_27
REMARK    3  A    between atoms: S_11  and  N_14
REMARK    4  A    between atoms: N_14  and  C_16
REMARK    5  A    between atoms: C_16  and  C_18
REMARK    6  A    between atoms: C_16  and  C_21
REMARK    7  A    between atoms: C_18  and  O_19
REMARK    8  A    between atoms: C_21  and  C_22
REMARK    9  A    between atoms: C_22  and  C_24
REMARK   10  A    between atoms: C_24  and  O_25
REMARK   11  A    between atoms: O_27  and  C_28
REMARK   12  A    between atoms: C_28  and  C_29
REMARK   13  A    between atoms: C_34  and  C_36
REMARK                            x       y       z     vdW  Elec       q    Type
REMARK                         _______ _______ _______ _____ _____    ______ ____
ROOT
ATOM      1  C   UNL     1      35.851 -23.188 -15.095  0.00  0.00    +0.122 C 
ATOM      2  C   UNL     1      34.765 -22.435 -17.138  0.00  0.00    +0.002 C 
ATOM      3  C   UNL     1      34.722 -23.120 -15.913  0.00  0.00    +0.020 C 
ATOM      4  C   UNL     1      35.969 -21.809 -17.540  0.00  0.00    +0.003 C 
ATOM      5  C   UNL     1      37.035 -22.573 -15.491  0.00  0.00    +0.020 C 
ATOM      6  C   UNL     1      37.096 -21.888 -16.704  0.00  0.00    +0.001 C 
ATOM      7  C   UNL     1      36.012 -21.124 -18.765  0.00  0.00    +0.037 C 
ATOM      8  C   UNL     1      33.638 -22.357 -17.974  0.00  0.00    +0.003 C 
ATOM      9  C   UNL     1      34.883 -21.057 -19.582  0.00  0.00    +0.139 C 
ATOM     10  C   UNL     1      33.699 -21.672 -19.188  0.00  0.00    +0.037 C 
ENDROOT
BRANCH   1  11
ATOM     11  S   UNL     1      35.776 -24.056 -13.557  0.00  0.00    +0.061 S 
ATOM     12  O   UNL     1      34.585 -23.618 -12.855  0.00  0.00    -0.153 OA
ATOM     13  O   UNL     1      35.973 -25.461 -13.855  0.00  0.00    -0.153 OA
BRANCH  11  14
ATOM     14  N   UNL     1      37.153 -23.464 -12.754  0.00  0.00    -0.170 NA
ATOM     15  H   UNL     1      36.856 -22.646 -12.224  0.00  0.00    +0.149 HD
BRANCH  14  16
ATOM     16  C   UNL     1      37.893 -24.338 -11.817  0.00  0.00    +0.174 C 
BRANCH  16  18
ATOM     17  O   UNL     1      36.370 -24.265  -9.922  0.00  0.00    -0.249 OA
ATOM     18  C   UNL     1      36.905 -24.900 -10.823  0.00  0.00    +0.330 C 
BRANCH  18  19
ATOM     19  O   UNL     1      36.645 -26.214 -11.046  0.00  0.00    -0.479 OA
ATOM     20  H   UNL     1      37.277 -26.863 -10.810  0.00  0.00    +0.295 HD
ENDBRANCH  18  19
ENDBRANCH  16  18
BRANCH  16  21
ATOM     21  C   UNL     1      38.693 -25.394 -12.588  0.00  0.00    +0.040 C 
BRANCH  21  22
ATOM     22  C   UNL     1      39.422 -24.912 -13.846  0.00  0.00    +0.111 C 
BRANCH  22  24
ATOM     23  O   UNL     1      41.171 -26.566 -13.649  0.00  0.00    -0.250 OA
ATOM     24  C   UNL     1      40.450 -25.885 -14.366  0.00  0.00    +0.314 C 
BRANCH  24  25
ATOM     25  O   UNL     1      40.506 -25.915 -15.722  0.00  0.00    -0.480 OA
ATOM     26  H   UNL     1      40.994 -25.262 -16.184  0.00  0.00    +0.295 HD
ENDBRANCH  24  25
ENDBRANCH  22  24
ENDBRANCH  21  22
ENDBRANCH  16  21
ENDBRANCH  14  16
ENDBRANCH  11  14
ENDBRANCH   1  11
BRANCH   9  27
ATOM     27  O   UNL     1      34.941 -20.387 -20.766  0.00  0.00    -0.471 OA
BRANCH  27  28
ATOM     28  C   UNL     1      35.771 -19.228 -20.817  0.00  0.00    +0.232 C 
BRANCH  28  29
ATOM     29  C   UNL     1      35.323 -18.354 -21.951  0.00  0.00    +0.021 C 
ATOM     30  C   UNL     1      35.608 -16.989 -21.934  0.00  0.00    -0.000 C 
ATOM     31  C   UNL     1      34.619 -18.906 -23.022  0.00  0.00    -0.000 C 
ATOM     32  C   UNL     1      35.192 -16.176 -22.987  0.00  0.00    +0.010 C 
ATOM     33  C   UNL     1      34.202 -18.093 -24.075  0.00  0.00    +0.010 C 
ATOM     34  C   UNL     1      34.488 -16.728 -24.058  0.00  0.00    +0.068 C 
BRANCH  34  36
ATOM     35  N   UNL     1      33.714 -15.218 -26.015  0.00  0.00    -0.191 NA
ATOM     36  C   UNL     1      34.061 -15.894 -25.138  0.00  0.00    +0.100 C 
ENDBRANCH  34  36
ENDBRANCH  28  29
ENDBRANCH  27  28
ENDBRANCH   9  27
TORSDOF 13
ENDMDL
MODEL 4
REMARK VINA RESULT:     -11.4      3.384      5.294
REMARK  Name = 24755471
REMARK  13 active torsions:
REMARK  status: ('A' for Active; 'I' for Inactive)
REMARK    1  A    between atoms: C_1  and  S_11
REMARK    2  A    between atoms: C_9  and  O_27
REMARK    3  A    between atoms: S_11  and  N_14
REMARK    4  A    between atoms: N_14  and  C_16
REMARK    5  A    between atoms: C_16  and  C_18
REMARK    6  A    between atoms: C_16  and  C_21
REMARK    7  A    between atoms: C_18  and  O_19
REMARK    8  A    between atoms: C_21  and  C_22
REMARK    9  A    between atoms: C_22  and  C_24
REMARK   10  A    between atoms: C_24  and  O_25
REMARK   11  A    between atoms: O_27  and  C_28
REMARK   12  A    between atoms: C_28  and  C_29
REMARK   13  A    between atoms: C_34  and  C_36
REMARK                            x       y       z     vdW  Elec       q    Type
REMARK                         _______ _______ _______ _____ _____    ______ ____
ROOT
ATOM      1  C   UNL     1      34.021 -21.993 -18.443  0.00  0.00    +0.122 C 
ATOM      2  C   UNL     1      35.475 -20.470 -19.663  0.00  0.00    +0.002 C 
ATOM      3  C   UNL     1      35.298 -21.510 -18.737  0.00  0.00    +0.020 C 
ATOM      4  C   UNL     1      34.343 -19.911 -20.302  0.00  0.00    +0.003 C 
ATOM      5  C   UNL     1      32.908 -21.442 -19.070  0.00  0.00    +0.020 C 
ATOM      6  C   UNL     1      33.066 -20.408 -19.994  0.00  0.00    +0.001 C 
ATOM      7  C   UNL     1      34.521 -18.871 -21.228  0.00  0.00    +0.037 C 
ATOM      8  C   UNL     1      36.753 -19.973 -19.970  0.00  0.00    +0.003 C 
ATOM      9  C   UNL     1      35.797 -18.390 -21.521  0.00  0.00    +0.139 C 
ATOM     10  C   UNL     1      36.911 -18.939 -20.894  0.00  0.00    +0.037 C 
ENDROOT
BRANCH   1  11
ATOM     11  S   UNL     1      33.820 -23.302 -17.273  0.00  0.00    +0.061 S 
ATOM     12  O   UNL     1      33.529 -24.517 -18.009  0.00  0.00    -0.153 OA
ATOM     13  O   UNL     1      34.958 -23.246 -16.376  0.00  0.00    -0.153 OA
BRANCH  11  14
ATOM     14  N   UNL     1      32.429 -22.807 -16.430  0.00  0.00    -0.170 NA
ATOM     15  H   UNL     1      31.691 -22.691 -17.123  0.00  0.00    +0.149 HD
BRANCH  14  16
ATOM     16  C   UNL     1      31.877 -23.658 -15.353  0.00  0.00    +0.174 C 
BRANCH  16  18
ATOM     17  O   UNL     1      31.511 -22.865 -13.083  0.00  0.00    -0.249 OA
ATOM     18  C   UNL     1      32.268 -23.049 -14.028  0.00  0.00    +0.330 C 
BRANCH  18  19
ATOM     19  O   UNL     1      33.588 -22.735 -13.979  0.00  0.00    -0.479 OA
ATOM     20  H   UNL     1      34.097 -22.725 -14.766  0.00  0.00    +0.295 HD
ENDBRANCH  18  19
ENDBRANCH  16  18
BRANCH  16  21
ATOM     21  C   UNL     1      30.368 -23.851 -15.545  0.00  0.00    +0.040 C 
BRANCH  21  22
ATOM     22  C   UNL     1      29.605 -22.679 -16.169  0.00  0.00    +0.111 C 
BRANCH  22  24
ATOM     23  O   UNL     1      27.575 -23.660 -17.036  0.00  0.00    -0.250 OA
ATOM     24  C   UNL     1      28.114 -22.894 -16.248  0.00  0.00    +0.314 C 
BRANCH  24  25
ATOM     25  O   UNL     1      27.426 -22.133 -15.360  0.00  0.00    -0.480 OA
ATOM     26  H   UNL     1      26.545 -22.359 -15.134  0.00  0.00    +0.295 HD
ENDBRANCH  24  25
ENDBRANCH  22  24
ENDBRANCH  21  22
ENDBRANCH  16  21
ENDBRANCH  14  16
ENDBRANCH  11  14
ENDBRANCH   1  11
BRANCH   9  27
ATOM     27  O   UNL     1      35.953 -17.382 -22.424  0.00  0.00    -0.471 OA
BRANCH  27  28
ATOM     28  C   UNL     1      34.880 -17.157 -23.337  0.00  0.00    +0.232 C 
BRANCH  28  29
ATOM     29  C   UNL     1      34.524 -15.700 -23.325  0.00  0.00    +0.021 C 
ATOM     30  C   UNL     1      34.853 -14.910 -22.223  0.00  0.00    -0.000 C 
ATOM     31  C   UNL     1      33.862 -15.134 -24.415  0.00  0.00    -0.000 C 
ATOM     32  C   UNL     1      34.521 -13.556 -22.212  0.00  0.00    +0.010 C 
ATOM     33  C   UNL     1      33.530 -13.780 -24.403  0.00  0.00    +0.010 C 
ATOM     34  C   UNL     1      33.859 -12.991 -23.301  0.00  0.00    +0.068 C 
BRANCH  34  36
ATOM     35  N   UNL     1      33.244 -10.475 -23.280  0.00  0.00    -0.191 NA
ATOM     36  C   UNL     1      33.520 -11.602 -23.289  0.00  0.00    +0.100 C 
ENDBRANCH  34  36
ENDBRANCH  28  29
ENDBRANCH  27  28
ENDBRANCH   9  27
TORSDOF 13
ENDMDL
MODEL 5
REMARK VINA RESULT:     -11.1      1.629      2.577
REMARK  Name = 24755471
REMARK  13 active torsions:
REMARK  status: ('A' for Active; 'I' for Inactive)
REMARK    1  A    between atoms: C_1  and  S_11
REMARK    2  A    between atoms: C_9  and  O_27
REMARK    3  A    between atoms: S_11  and  N_14
REMARK    4  A    between atoms: N_14  and  C_16
REMARK    5  A    between atoms: C_16  and  C_18
REMARK    6  A    between atoms: C_16  and  C_21
REMARK    7  A    between atoms: C_18  and  O_19
REMARK    8  A    between atoms: C_21  and  C_22
REMARK    9  A    between atoms: C_22  and  C_24
REMARK   10  A    between atoms: C_24  and  O_25
REMARK   11  A    between atoms: O_27  and  C_28
REMARK   12  A    between atoms: C_28  and  C_29
REMARK   13  A    between atoms: C_34  and  C_36
REMARK                            x       y       z     vdW  Elec       q    Type
REMARK                         _______ _______ _______ _____ _____    ______ ____
ROOT
ATOM      1  C   UNL     1      35.396 -22.757 -16.424  0.00  0.00    +0.122 C 
ATOM      2  C   UNL     1      34.373 -21.618 -18.315  0.00  0.00    +0.002 C 
ATOM      3  C   UNL     1      34.266 -22.431 -17.175  0.00  0.00    +0.020 C 
ATOM      4  C   UNL     1      35.643 -21.127 -18.699  0.00  0.00    +0.003 C 
ATOM      5  C   UNL     1      36.646 -22.275 -16.802  0.00  0.00    +0.020 C 
ATOM      6  C   UNL     1      36.770 -21.465 -17.932  0.00  0.00    +0.001 C 
ATOM      7  C   UNL     1      35.750 -20.314 -19.839  0.00  0.00    +0.037 C 
ATOM      8  C   UNL     1      33.245 -21.281 -19.083  0.00  0.00    +0.003 C 
ATOM      9  C   UNL     1      34.619 -19.989 -20.589  0.00  0.00    +0.139 C 
ATOM     10  C   UNL     1      33.370 -20.471 -20.212  0.00  0.00    +0.037 C 
ENDROOT
BRANCH   1  11
ATOM     11  S   UNL     1      35.240 -23.782 -14.993  0.00  0.00    +0.061 S 
ATOM     12  O   UNL     1      35.067 -22.918 -13.842  0.00  0.00    -0.153 OA
ATOM     13  O   UNL     1      34.247 -24.792 -15.304  0.00  0.00    -0.153 OA
BRANCH  11  14
ATOM     14  N   UNL     1      36.771 -24.518 -14.922  0.00  0.00    -0.170 NA
ATOM     15  H   UNL     1      37.440 -23.784 -14.693  0.00  0.00    +0.149 HD
BRANCH  14  16
ATOM     16  C   UNL     1      37.013 -25.628 -13.974  0.00  0.00    +0.174 C 
BRANCH  16  18
ATOM     17  O   UNL     1      36.464 -27.178 -15.767  0.00  0.00    -0.249 OA
ATOM     18  C   UNL     1      37.122 -26.907 -14.770  0.00  0.00    +0.330 C 
BRANCH  18  19
ATOM     19  O   UNL     1      38.064 -27.745 -14.266  0.00  0.00    -0.479 OA
ATOM     20  H   UNL     1      38.802 -27.398 -13.805  0.00  0.00    +0.295 HD
ENDBRANCH  18  19
ENDBRANCH  16  18
BRANCH  16  21
ATOM     21  C   UNL     1      38.227 -25.322 -13.089  0.00  0.00    +0.040 C 
BRANCH  21  22
ATOM     22  C   UNL     1      39.464 -24.766 -13.800  0.00  0.00    +0.111 C 
BRANCH  22  24
ATOM     23  O   UNL     1      41.048 -26.566 -13.504  0.00  0.00    -0.250 OA
ATOM     24  C   UNL     1      40.431 -25.828 -14.261  0.00  0.00    +0.314 C 
BRANCH  24  25
ATOM     25  O   UNL     1      40.561 -25.870 -15.612  0.00  0.00    -0.480 OA
ATOM     26  H   UNL     1      39.951 -25.409 -16.154  0.00  0.00    +0.295 HD
ENDBRANCH  24  25
ENDBRANCH  22  24
ENDBRANCH  21  22
ENDBRANCH  16  21
ENDBRANCH  14  16
ENDBRANCH  11  14
ENDBRANCH   1  11
BRANCH   9  27
ATOM     27  O   UNL     1      34.739 -19.198 -21.690  0.00  0.00    -0.471 OA
BRANCH  27  28
ATOM     28  C   UNL     1      35.828 -18.276 -21.713  0.00  0.00    +0.232 C 
BRANCH  28  29
ATOM     29  C   UNL     1      35.318 -16.924 -22.115  0.00  0.00    +0.021 C 
ATOM     30  C   UNL     1      34.991 -16.669 -23.447  0.00  0.00    -0.000 C 
ATOM     31  C   UNL     1      35.171 -15.920 -21.157  0.00  0.00    -0.000 C 
ATOM     32  C   UNL     1      34.518 -15.412 -23.820  0.00  0.00    +0.010 C 
ATOM     33  C   UNL     1      34.697 -14.663 -21.530  0.00  0.00    +0.010 C 
ATOM     34  C   UNL     1      34.371 -14.409 -22.862  0.00  0.00    +0.068 C 
BRANCH  34  36
ATOM     35  N   UNL     1      33.489 -12.075 -23.557  0.00  0.00    -0.191 NA
ATOM     36  C   UNL     1      33.884 -13.121 -23.246  0.00  0.00    +0.100 C 
ENDBRANCH  34  36
ENDBRANCH  28  29
ENDBRANCH  27  28
ENDBRANCH   9  27
TORSDOF 13
ENDMDL
MODEL 6
REMARK VINA RESULT:     -11.0      2.059      3.282
REMARK  Name = 24755471
REMARK  13 active torsions:
REMARK  status: ('A' for Active; 'I' for Inactive)
REMARK    1  A    between atoms: C_1  and  S_11
REMARK    2  A    between atoms: C_9  and  O_27
REMARK    3  A    between atoms: S_11  and  N_14
REMARK    4  A    between atoms: N_14  and  C_16
REMARK    5  A    between atoms: C_16  and  C_18
REMARK    6  A    between atoms: C_16  and  C_21
REMARK    7  A    between atoms: C_18  and  O_19
REMARK    8  A    between atoms: C_21  and  C_22
REMARK    9  A    between atoms: C_22  and  C_24
REMARK   10  A    between atoms: C_24  and  O_25
REMARK   11  A    between atoms: O_27  and  C_28
REMARK   12  A    between atoms: C_28  and  C_29
REMARK   13  A    between atoms: C_34  and  C_36
REMARK                            x       y       z     vdW  Elec       q    Type
REMARK                         _______ _______ _______ _____ _____    ______ ____
ROOT
ATOM      1  C   UNL     1      35.636 -22.683 -16.375  0.00  0.00    +0.122 C 
ATOM      2  C   UNL     1      35.915 -21.282 -18.345  0.00  0.00    +0.002 C 
ATOM      3  C   UNL     1      36.440 -21.884 -17.190  0.00  0.00    +0.020 C 
ATOM      4  C   UNL     1      34.557 -21.494 -18.680  0.00  0.00    +0.003 C 
ATOM      5  C   UNL     1      34.300 -22.890 -16.704  0.00  0.00    +0.020 C 
ATOM      6  C   UNL     1      33.762 -22.300 -17.848  0.00  0.00    +0.001 C 
ATOM      7  C   UNL     1      34.032 -20.892 -19.835  0.00  0.00    +0.037 C 
ATOM      8  C   UNL     1      36.710 -20.475 -19.177  0.00  0.00    +0.003 C 
ATOM      9  C   UNL     1      34.836 -20.093 -20.649  0.00  0.00    +0.139 C 
ATOM     10  C   UNL     1      36.172 -19.885 -20.321  0.00  0.00    +0.037 C 
ENDROOT
BRANCH   1  11
ATOM     11  S   UNL     1      36.317 -23.431 -14.925  0.00  0.00    +0.061 S 
ATOM     12  O   UNL     1      36.335 -24.866 -15.130  0.00  0.00    -0.153 OA
ATOM     13  O   UNL     1      37.544 -22.721 -14.620  0.00  0.00    -0.153 OA
BRANCH  11  14
ATOM     14  N   UNL     1      35.149 -23.043 -13.751  0.00  0.00    -0.170 NA
ATOM     15  H   UNL     1      34.357 -22.636 -14.248  0.00  0.00    +0.149 HD
BRANCH  14  16
ATOM     16  C   UNL     1      34.607 -24.101 -12.872  0.00  0.00    +0.174 C 
BRANCH  16  18
ATOM     17  O   UNL     1      36.138 -23.167 -11.230  0.00  0.00    -0.249 OA
ATOM     18  C   UNL     1      35.349 -24.044 -11.558  0.00  0.00    +0.330 C 
BRANCH  18  19
ATOM     19  O   UNL     1      35.029 -25.083 -10.744  0.00  0.00    -0.479 OA
ATOM     20  H   UNL     1      35.628 -25.794 -10.635  0.00  0.00    +0.295 HD
ENDBRANCH  18  19
ENDBRANCH  16  18
BRANCH  16  21
ATOM     21  C   UNL     1      33.084 -23.968 -12.752  0.00  0.00    +0.040 C 
BRANCH  21  22
ATOM     22  C   UNL     1      32.260 -24.485 -13.935  0.00  0.00    +0.111 C 
BRANCH  22  24
ATOM     23  O   UNL     1      30.163 -25.622 -14.318  0.00  0.00    -0.250 OA
ATOM     24  C   UNL     1      30.916 -25.047 -13.543  0.00  0.00    +0.314 C 
BRANCH  24  25
ATOM     25  O   UNL     1      30.619 -24.835 -12.236  0.00  0.00    -0.480 OA
ATOM     26  H   UNL     1      31.308 -24.701 -11.615  0.00  0.00    +0.295 HD
ENDBRANCH  24  25
ENDBRANCH  22  24
ENDBRANCH  21  22
ENDBRANCH  16  21
ENDBRANCH  14  16
ENDBRANCH  11  14
ENDBRANCH   1  11
BRANCH   9  27
ATOM     27  O   UNL     1      34.313 -19.519 -21.767  0.00  0.00    -0.471 OA
BRANCH  27  28
ATOM     28  C   UNL     1      35.234 -18.962 -22.703  0.00  0.00    +0.232 C 
BRANCH  28  29
ATOM     29  C   UNL     1      34.983 -17.487 -22.820  0.00  0.00    +0.021 C 
ATOM     30  C   UNL     1      35.202 -16.654 -21.722  0.00  0.00    -0.000 C 
ATOM     31  C   UNL     1      34.531 -16.950 -24.024  0.00  0.00    -0.000 C 
ATOM     32  C   UNL     1      34.969 -15.284 -21.830  0.00  0.00    +0.010 C 
ATOM     33  C   UNL     1      34.297 -15.579 -24.132  0.00  0.00    +0.010 C 
ATOM     34  C   UNL     1      34.516 -14.746 -23.035  0.00  0.00    +0.068 C 
BRANCH  34  36
ATOM     35  N   UNL     1      34.083 -12.200 -23.235  0.00  0.00    -0.191 NA
ATOM     36  C   UNL     1      34.277 -13.341 -23.146  0.00  0.00    +0.100 C 
ENDBRANCH  34  36
ENDBRANCH  28  29
ENDBRANCH  27  28
ENDBRANCH   9  27
TORSDOF 13
ENDMDL
MODEL 7
REMARK VINA RESULT:     -11.0      2.860      4.592
REMARK  Name = 24755471
REMARK  13 active torsions:
REMARK  status: ('A' for Active; 'I' for Inactive)
REMARK    1  A    between atoms: C_1  and  S_11
REMARK    2  A    between atoms: C_9  and  O_27
REMARK    3  A    between atoms: S_11  and  N_14
REMARK    4  A    between atoms: N_14  and  C_16
REMARK    5  A    between atoms: C_16  and  C_18
REMARK    6  A    between atoms: C_16  and  C_21
REMARK    7  A    between atoms: C_18  and  O_19
REMARK    8  A    between atoms: C_21  and  C_22
REMARK    9  A    between atoms: C_22  and  C_24
REMARK   10  A    between atoms: C_24  and  O_25
REMARK   11  A    between atoms: O_27  and  C_28
REMARK   12  A    between atoms: C_28  and  C_29
REMARK   13  A    between atoms: C_34  and  C_36
REMARK                            x       y       z     vdW  Elec       q    Type
REMARK                         _______ _______ _______ _____ _____    ______ ____
ROOT
ATOM      1  C   UNL     1      35.126 -22.449 -16.779  0.00  0.00    +0.122 C 
ATOM      2  C   UNL     1      34.160 -21.348 -18.722  0.00  0.00    +0.002 C 
ATOM      3  C   UNL     1      34.012 -22.091 -17.540  0.00  0.00    +0.020 C 
ATOM      4  C   UNL     1      35.456 -20.961 -19.139  0.00  0.00    +0.003 C 
ATOM      5  C   UNL     1      36.400 -22.069 -17.189  0.00  0.00    +0.020 C 
ATOM      6  C   UNL     1      36.566 -21.330 -18.361  0.00  0.00    +0.001 C 
ATOM      7  C   UNL     1      35.605 -20.218 -20.321  0.00  0.00    +0.037 C 
ATOM      8  C   UNL     1      33.050 -20.979 -19.500  0.00  0.00    +0.003 C 
ATOM      9  C   UNL     1      34.491 -19.861 -21.081  0.00  0.00    +0.139 C 
ATOM     10  C   UNL     1      33.216 -20.241 -20.672  0.00  0.00    +0.037 C 
ENDROOT
BRANCH   1  11
ATOM     11  S   UNL     1      34.917 -23.385 -15.293  0.00  0.00    +0.061 S 
ATOM     12  O   UNL     1      34.881 -24.789 -15.652  0.00  0.00    -0.153 OA
ATOM     13  O   UNL     1      35.900 -22.897 -14.346  0.00  0.00    -0.153 OA
BRANCH  11  14
ATOM     14  N   UNL     1      33.371 -22.892 -14.785  0.00  0.00    -0.170 NA
ATOM     15  H   UNL     1      33.095 -22.119 -15.390  0.00  0.00    +0.149 HD
BRANCH  14  16
ATOM     16  C   UNL     1      32.251 -23.859 -14.787  0.00  0.00    +0.174 C 
BRANCH  16  18
ATOM     17  O   UNL     1      31.651 -23.429 -12.469  0.00  0.00    -0.249 OA
ATOM     18  C   UNL     1      31.946 -24.224 -13.354  0.00  0.00    +0.330 C 
BRANCH  18  19
ATOM     19  O   UNL     1      32.012 -25.564 -13.142  0.00  0.00    -0.479 OA
ATOM     20  H   UNL     1      32.204 -25.894 -12.286  0.00  0.00    +0.295 HD
ENDBRANCH  18  19
ENDBRANCH  16  18
BRANCH  16  21
ATOM     21  C   UNL     1      31.059 -23.295 -15.570  0.00  0.00    +0.040 C 
BRANCH  21  22
ATOM     22  C   UNL     1      29.724 -24.024 -15.395  0.00  0.00    +0.111 C 
BRANCH  22  24
ATOM     23  O   UNL     1      27.776 -24.069 -16.823  0.00  0.00    -0.250 OA
ATOM     24  C   UNL     1      28.589 -23.417 -16.182  0.00  0.00    +0.314 C 
BRANCH  24  25
ATOM     25  O   UNL     1      28.573 -22.061 -16.119  0.00  0.00    -0.480 OA
ATOM     26  H   UNL     1      27.763 -21.598 -16.206  0.00  0.00    +0.295 HD
ENDBRANCH  24  25
ENDBRANCH  22  24
ENDBRANCH  21  22
ENDBRANCH  16  21
ENDBRANCH  14  16
ENDBRANCH  11  14
ENDBRANCH   1  11
BRANCH   9  27
ATOM     27  O   UNL     1      34.651 -19.139 -22.224  0.00  0.00    -0.471 OA
BRANCH  27  28
ATOM     28  C   UNL     1      35.553 -18.034 -22.173  0.00  0.00    +0.232 C 
BRANCH  28  29
ATOM     29  C   UNL     1      34.977 -16.895 -22.962  0.00  0.00    +0.021 C 
ATOM     30  C   UNL     1      34.451 -17.123 -24.233  0.00  0.00    -0.000 C 
ATOM     31  C   UNL     1      34.969 -15.608 -22.424  0.00  0.00    -0.000 C 
ATOM     32  C   UNL     1      33.917 -16.064 -24.966  0.00  0.00    +0.010 C 
ATOM     33  C   UNL     1      34.435 -14.549 -23.157  0.00  0.00    +0.010 C 
ATOM     34  C   UNL     1      33.909 -14.777 -24.429  0.00  0.00    +0.068 C 
BRANCH  34  36
ATOM     35  N   UNL     1      32.916 -12.810 -25.790  0.00  0.00    -0.191 NA
ATOM     36  C   UNL     1      33.360 -13.692 -25.180  0.00  0.00    +0.100 C 
ENDBRANCH  34  36
ENDBRANCH  28  29
ENDBRANCH  27  28
ENDBRANCH   9  27
TORSDOF 13
ENDMDL
MODEL 8
REMARK VINA RESULT:     -10.6      3.340     11.233
REMARK  Name = 24755471
REMARK  13 active torsions:
REMARK  status: ('A' for Active; 'I' for Inactive)
REMARK    1  A    between atoms: C_1  and  S_11
REMARK    2  A    between atoms: C_9  and  O_27
REMARK    3  A    between atoms: S_11  and  N_14
REMARK    4  A    between atoms: N_14  and  C_16
REMARK    5  A    between atoms: C_16  and  C_18
REMARK    6  A    between atoms: C_16  and  C_21
REMARK    7  A    between atoms: C_18  and  O_19
REMARK    8  A    between atoms: C_21  and  C_22
REMARK    9  A    between atoms: C_22  and  C_24
REMARK   10  A    between atoms: C_24  and  O_25
REMARK   11  A    between atoms: O_27  and  C_28
REMARK   12  A    between atoms: C_28  and  C_29
REMARK   13  A    between atoms: C_34  and  C_36
REMARK                            x       y       z     vdW  Elec       q    Type
REMARK                         _______ _______ _______ _____ _____    ______ ____
ROOT
ATOM      1  C   UNL     1      35.439 -19.586 -20.799  0.00  0.00    +0.122 C 
ATOM      2  C   UNL     1      34.198 -21.027 -19.281  0.00  0.00    +0.002 C 
ATOM      3  C   UNL     1      34.229 -20.119 -20.351  0.00  0.00    +0.020 C 
ATOM      4  C   UNL     1      35.411 -21.403 -18.656  0.00  0.00    +0.003 C 
ATOM      5  C   UNL     1      36.632 -19.955 -20.184  0.00  0.00    +0.020 C 
ATOM      6  C   UNL     1      36.620 -20.857 -19.119  0.00  0.00    +0.001 C 
ATOM      7  C   UNL     1      35.381 -22.312 -17.586  0.00  0.00    +0.037 C 
ATOM      8  C   UNL     1      32.989 -21.573 -18.817  0.00  0.00    +0.003 C 
ATOM      9  C   UNL     1      34.171 -22.843 -17.139  0.00  0.00    +0.139 C 
ATOM     10  C   UNL     1      32.978 -22.475 -17.753  0.00  0.00    +0.037 C 
ENDROOT
BRANCH   1  11
ATOM     11  S   UNL     1      35.455 -18.443 -22.147  0.00  0.00    +0.061 S 
ATOM     12  O   UNL     1      36.668 -18.670 -22.909  0.00  0.00    -0.153 OA
ATOM     13  O   UNL     1      34.160 -18.533 -22.792  0.00  0.00    -0.153 OA
BRANCH  11  14
ATOM     14  N   UNL     1      35.567 -16.951 -21.339  0.00  0.00    -0.170 NA
ATOM     15  H   UNL     1      36.504 -16.591 -21.514  0.00  0.00    +0.149 HD
BRANCH  14  16
ATOM     16  C   UNL     1      34.621 -15.862 -21.668  0.00  0.00    +0.174 C 
BRANCH  16  18
ATOM     17  O   UNL     1      34.289 -13.715 -20.575  0.00  0.00    -0.249 OA
ATOM     18  C   UNL     1      34.594 -14.899 -20.505  0.00  0.00    +0.330 C 
BRANCH  18  19
ATOM     19  O   UNL     1      34.934 -15.499 -19.335  0.00  0.00    -0.479 OA
ATOM     20  H   UNL     1      35.424 -16.297 -19.343  0.00  0.00    +0.295 HD
ENDBRANCH  18  19
ENDBRANCH  16  18
BRANCH  16  21
ATOM     21  C   UNL     1      34.984 -15.227 -23.015  0.00  0.00    +0.040 C 
BRANCH  21  22
ATOM     22  C   UNL     1      33.813 -14.832 -23.920  0.00  0.00    +0.111 C 
BRANCH  22  24
ATOM     23  O   UNL     1      34.198 -14.995 -26.299  0.00  0.00    -0.250 OA
ATOM     24  C   UNL     1      33.819 -15.521 -25.261  0.00  0.00    +0.314 C 
BRANCH  24  25
ATOM     25  O   UNL     1      33.341 -16.790 -25.201  0.00  0.00    -0.480 OA
ATOM     26  H   UNL     1      33.885 -17.507 -25.463  0.00  0.00    +0.295 HD
ENDBRANCH  24  25
ENDBRANCH  22  24
ENDBRANCH  21  22
ENDBRANCH  16  21
ENDBRANCH  14  16
ENDBRANCH  11  14
ENDBRANCH   1  11
BRANCH   9  27
ATOM     27  O   UNL     1      34.158 -23.725 -16.102  0.00  0.00    -0.471 OA
BRANCH  27  28
ATOM     28  C   UNL     1      34.717 -23.282 -14.866  0.00  0.00    +0.232 C 
BRANCH  28  29
ATOM     29  C   UNL     1      36.044 -23.951 -14.661  0.00  0.00    +0.021 C 
ATOM     30  C   UNL     1      37.222 -23.210 -14.761  0.00  0.00    -0.000 C 
ATOM     31  C   UNL     1      36.101 -25.315 -14.372  0.00  0.00    -0.000 C 
ATOM     32  C   UNL     1      38.455 -23.832 -14.571  0.00  0.00    +0.010 C 
ATOM     33  C   UNL     1      37.334 -25.937 -14.182  0.00  0.00    +0.010 C 
ATOM     34  C   UNL     1      38.511 -25.196 -14.282  0.00  0.00    +0.068 C 
BRANCH  34  36
ATOM     35  N   UNL     1      40.802 -26.351 -13.927  0.00  0.00    -0.191 NA
ATOM     36  C   UNL     1      39.776 -25.833 -14.086  0.00  0.00    +0.100 C 
ENDBRANCH  34  36
ENDBRANCH  28  29
ENDBRANCH  27  28
ENDBRANCH   9  27
TORSDOF 13
ENDMDL
MODEL 9
REMARK VINA RESULT:     -10.5      1.748      3.075
REMARK  Name = 24755471
REMARK  13 active torsions:
REMARK  status: ('A' for Active; 'I' for Inactive)
REMARK    1  A    between atoms: C_1  and  S_11
REMARK    2  A    between atoms: C_9  and  O_27
REMARK    3  A    between atoms: S_11  and  N_14
REMARK    4  A    between atoms: N_14  and  C_16
REMARK    5  A    between atoms: C_16  and  C_18
REMARK    6  A    between atoms: C_16  and  C_21
REMARK    7  A    between atoms: C_18  and  O_19
REMARK    8  A    between atoms: C_21  and  C_22
REMARK    9  A    between atoms: C_22  and  C_24
REMARK   10  A    between atoms: C_24  and  O_25
REMARK   11  A    between atoms: O_27  and  C_28
REMARK   12  A    between atoms: C_28  and  C_29
REMARK   13  A    between atoms: C_34  and  C_36
REMARK                            x       y       z     vdW  Elec       q    Type
REMARK                         _______ _______ _______ _____ _____    ______ ____
ROOT
ATOM      1  C   UNL     1      35.304 -22.765 -16.544  0.00  0.00    +0.122 C 
ATOM      2  C   UNL     1      35.691 -21.319 -18.462  0.00  0.00    +0.002 C 
ATOM      3  C   UNL     1      36.162 -21.981 -17.316  0.00  0.00    +0.020 C 
ATOM      4  C   UNL     1      34.332 -21.456 -18.831  0.00  0.00    +0.003 C 
ATOM      5  C   UNL     1      33.967 -22.898 -16.907  0.00  0.00    +0.020 C 
ATOM      6  C   UNL     1      33.483 -22.249 -18.042  0.00  0.00    +0.001 C 
ATOM      7  C   UNL     1      33.862 -20.794 -19.977  0.00  0.00    +0.037 C 
ATOM      8  C   UNL     1      36.541 -20.525 -19.251  0.00  0.00    +0.003 C 
ATOM      9  C   UNL     1      34.720 -20.010 -20.749  0.00  0.00    +0.139 C 
ATOM     10  C   UNL     1      36.057 -19.876 -20.387  0.00  0.00    +0.037 C 
ENDROOT
BRANCH   1  11
ATOM     11  S   UNL     1      35.916 -23.589 -15.105  0.00  0.00    +0.061 S 
ATOM     12  O   UNL     1      35.446 -24.960 -15.142  0.00  0.00    -0.153 OA
ATOM     13  O   UNL     1      37.336 -23.305 -15.028  0.00  0.00    -0.153 OA
BRANCH  11  14
ATOM     14  N   UNL     1      35.119 -22.752 -13.857  0.00  0.00    -0.170 NA
ATOM     15  H   UNL     1      34.300 -22.312 -14.276  0.00  0.00    +0.149 HD
BRANCH  14  16
ATOM     16  C   UNL     1      34.647 -23.485 -12.662  0.00  0.00    +0.174 C 
BRANCH  16  18
ATOM     17  O   UNL     1      32.812 -24.895 -13.410  0.00  0.00    -0.249 OA
ATOM     18  C   UNL     1      33.201 -23.860 -12.883  0.00  0.00    +0.330 C 
BRANCH  18  19
ATOM     19  O   UNL     1      32.349 -22.916 -12.408  0.00  0.00    -0.479 OA
ATOM     20  H   UNL     1      32.549 -22.461 -11.613  0.00  0.00    +0.295 HD
ENDBRANCH  18  19
ENDBRANCH  16  18
BRANCH  16  21
ATOM     21  C   UNL     1      35.574 -24.668 -12.359  0.00  0.00    +0.040 C 
BRANCH  21  22
ATOM     22  C   UNL     1      36.472 -24.531 -11.125  0.00  0.00    +0.111 C 
BRANCH  22  24
ATOM     23  O   UNL     1      38.606 -23.827 -12.011  0.00  0.00    -0.250 OA
ATOM     24  C   UNL     1      37.629 -23.583 -11.315  0.00  0.00    +0.314 C 
BRANCH  24  25
ATOM     25  O   UNL     1      37.483 -22.430 -10.614  0.00  0.00    -0.480 OA
ATOM     26  H   UNL     1      37.338 -22.460  -9.689  0.00  0.00    +0.295 HD
ENDBRANCH  24  25
ENDBRANCH  22  24
ENDBRANCH  21  22
ENDBRANCH  16  21
ENDBRANCH  14  16
ENDBRANCH  11  14
ENDBRANCH   1  11
BRANCH   9  27
ATOM     27  O   UNL     1      34.249 -19.377 -21.858  0.00  0.00    -0.471 OA
BRANCH  27  28
ATOM     28  C   UNL     1      35.215 -18.908 -22.798  0.00  0.00    +0.232 C 
BRANCH  28  29
ATOM     29  C   UNL     1      34.765 -17.586 -23.345  0.00  0.00    +0.021 C 
ATOM     30  C   UNL     1      33.976 -17.539 -24.494  0.00  0.00    -0.000 C 
ATOM     31  C   UNL     1      35.138 -16.403 -22.706  0.00  0.00    -0.000 C 
ATOM     32  C   UNL     1      33.558 -16.310 -25.003  0.00  0.00    +0.010 C 
ATOM     33  C   UNL     1      34.720 -15.174 -23.215  0.00  0.00    +0.010 C 
ATOM     34  C   UNL     1      33.931 -15.128 -24.364  0.00  0.00    +0.068 C 
BRANCH  34  36
ATOM     35  N   UNL     1      33.153 -12.845 -25.310  0.00  0.00    -0.191 NA
ATOM     36  C   UNL     1      33.501 -13.868 -24.886  0.00  0.00    +0.100 C 
ENDBRANCH  34  36
ENDBRANCH  28  29
ENDBRANCH  27  28
ENDBRANCH   9  27
TORSDOF 13
ENDMDL
