MODEL 1
REMARK VINA RESULT:     -11.4      0.000      0.000
REMARK  Name = 127737
REMARK  3 active torsions:
REMARK  status: ('A' for Active; 'I' for Inactive)
REMARK    1  A    between atoms: N_2  and  S_15
REMARK    2  A    between atoms: N_3  and  C_9
REMARK    3  A    between atoms: S_15  and  C_23
REMARK                            x       y       z     vdW  Elec       q    Type
REMARK                         _______ _______ _______ _____ _____    ______ ____
ROOT
ATOM      1  O   UNL     1      32.935 -20.180 -20.458  0.00  0.00    -0.251 OA
ATOM      2  N   UNL     1      34.785 -21.250 -19.545  0.00  0.00    -0.169 N 
ATOM      3  N   UNL     1      35.081 -19.625 -21.189  0.00  0.00    -0.267 N 
ATOM      4  C   UNL     1      34.152 -20.312 -20.427  0.00  0.00    +0.323 C 
ATOM      5  H   UNL     1      35.769 -21.269 -19.536  0.00  0.00    +0.178 HD
ATOM      6  H   UNL     1      36.025 -19.860 -21.033  0.00  0.00    +0.156 HD
ENDROOT
BRANCH   3   9
ATOM      7 CL   UNL     1      35.031 -14.663 -22.337  0.00  0.00    -0.081 Cl
ATOM      8 CL   UNL     1      34.068 -15.506 -25.309  0.00  0.00    -0.081 Cl
ATOM      9  C   UNL     1      34.843 -18.629 -22.164  0.00  0.00    +0.053 C 
ATOM     10  C   UNL     1      35.026 -17.297 -21.831  0.00  0.00    +0.027 C 
ATOM     11  C   UNL     1      34.430 -19.006 -23.432  0.00  0.00    +0.016 C 
ATOM     12  C   UNL     1      34.791 -16.313 -22.793  0.00  0.00    +0.069 C 
ATOM     13  C   UNL     1      34.195 -18.022 -24.393  0.00  0.00    +0.014 C 
ATOM     14  C   UNL     1      34.375 -16.677 -24.074  0.00  0.00    +0.068 C 
ENDBRANCH   3   9
BRANCH   2  15
ATOM     15  S   UNL     1      33.964 -22.339 -18.508  0.00  0.00    +0.077 S 
ATOM     16  O   UNL     1      33.909 -23.647 -19.147  0.00  0.00    -0.150 OA
ATOM     17  O   UNL     1      32.735 -21.712 -18.048  0.00  0.00    -0.150 OA
BRANCH  15  23
ATOM     18  O   UNL     1      37.543 -22.643 -13.869  0.00  0.00    -0.475 OA
ATOM     19  C   UNL     1      35.530 -23.083 -14.905  0.00  0.00    +0.017 C 
ATOM     20  C   UNL     1      35.341 -23.607 -13.535  0.00  0.00    +0.077 C 
ATOM     21  C   UNL     1      36.795 -22.526 -15.013  0.00  0.00    +0.135 C 
ATOM     22  C   UNL     1      36.798 -23.591 -13.068  0.00  0.00    +0.210 C 
ATOM     23  C   UNL     1      35.056 -22.421 -17.146  0.00  0.00    +0.125 C 
ATOM     24  C   UNL     1      34.641 -23.036 -15.962  0.00  0.00    +0.019 C 
ATOM     25  C   UNL     1      37.223 -21.902 -16.169  0.00  0.00    +0.038 C 
ATOM     26  C   UNL     1      36.338 -21.857 -17.248  0.00  0.00    +0.023 C 
ENDBRANCH  15  23
ENDBRANCH   2  15
TORSDOF 3
ENDMDL
MODEL 2
REMARK VINA RESULT:     -11.3      3.466      5.247
REMARK  Name = 127737
REMARK  3 active torsions:
REMARK  status: ('A' for Active; 'I' for Inactive)
REMARK    1  A    between atoms: N_2  and  S_15
REMARK    2  A    between atoms: N_3  and  C_9
REMARK    3  A    between atoms: S_15  and  C_23
REMARK                            x       y       z     vdW  Elec       q    Type
REMARK                         _______ _______ _______ _____ _____    ______ ____
ROOT
ATOM      1  O   UNL     1      34.579 -16.460 -22.481  0.00  0.00    -0.251 OA
ATOM      2  N   UNL     1      35.679 -17.148 -20.553  0.00  0.00    -0.169 N 
ATOM      3  N   UNL     1      34.707 -15.032 -20.639  0.00  0.00    -0.267 N 
ATOM      4  C   UNL     1      34.937 -16.204 -21.338  0.00  0.00    +0.323 C 
ATOM      5  H   UNL     1      35.891 -16.896 -19.625  0.00  0.00    +0.178 HD
ATOM      6  H   UNL     1      35.069 -14.997 -19.724  0.00  0.00    +0.156 HD
ENDROOT
BRANCH   3   9
ATOM      7 CL   UNL     1      34.297 -11.335 -24.118  0.00  0.00    -0.081 Cl
ATOM      8 CL   UNL     1      31.784 -10.209 -22.419  0.00  0.00    -0.081 Cl
ATOM      9  C   UNL     1      34.017 -13.877 -21.077  0.00  0.00    +0.053 C 
ATOM     10  C   UNL     1      34.430 -13.240 -22.236  0.00  0.00    +0.027 C 
ATOM     11  C   UNL     1      32.944 -13.407 -20.338  0.00  0.00    +0.016 C 
ATOM     12  C   UNL     1      33.750 -12.101 -22.668  0.00  0.00    +0.069 C 
ATOM     13  C   UNL     1      32.264 -12.268 -20.771  0.00  0.00    +0.014 C 
ATOM     14  C   UNL     1      32.666 -11.615 -21.935  0.00  0.00    +0.068 C 
ENDBRANCH   3   9
BRANCH   2  15
ATOM     15  S   UNL     1      36.226 -18.676 -21.102  0.00  0.00    +0.077 S 
ATOM     16  O   UNL     1      37.565 -18.912 -20.579  0.00  0.00    -0.150 OA
ATOM     17  O   UNL     1      35.985 -18.773 -22.533  0.00  0.00    -0.150 OA
BRANCH  15  23
ATOM     18  O   UNL     1      32.564 -22.373 -18.392  0.00  0.00    -0.475 OA
ATOM     19  C   UNL     1      34.678 -21.534 -18.773  0.00  0.00    +0.017 C 
ATOM     20  C   UNL     1      34.907 -22.643 -17.822  0.00  0.00    +0.077 C 
ATOM     21  C   UNL     1      33.326 -21.458 -19.073  0.00  0.00    +0.135 C 
ATOM     22  C   UNL     1      33.462 -22.882 -17.378  0.00  0.00    +0.210 C 
ATOM     23  C   UNL     1      35.109 -19.758 -20.305  0.00  0.00    +0.125 C 
ATOM     24  C   UNL     1      35.589 -20.694 -19.385  0.00  0.00    +0.019 C 
ATOM     25  C   UNL     1      32.830 -20.549 -19.987  0.00  0.00    +0.038 C 
ATOM     26  C   UNL     1      33.739 -19.687 -20.605  0.00  0.00    +0.023 C 
ENDBRANCH  15  23
ENDBRANCH   2  15
TORSDOF 3
ENDMDL
MODEL 3
REMARK VINA RESULT:     -11.2      1.188      1.838
REMARK  Name = 127737
REMARK  3 active torsions:
REMARK  status: ('A' for Active; 'I' for Inactive)
REMARK    1  A    between atoms: N_2  and  S_15
REMARK    2  A    between atoms: N_3  and  C_9
REMARK    3  A    between atoms: S_15  and  C_23
REMARK                            x       y       z     vdW  Elec       q    Type
REMARK                         _______ _______ _______ _____ _____    ______ ____
ROOT
ATOM      1  O   UNL     1      32.930 -20.472 -19.877  0.00  0.00    -0.251 OA
ATOM      2  N   UNL     1      34.617 -21.621 -18.766  0.00  0.00    -0.169 N 
ATOM      3  N   UNL     1      35.159 -19.846 -20.175  0.00  0.00    -0.267 N 
ATOM      4  C   UNL     1      34.127 -20.604 -19.651  0.00  0.00    +0.323 C 
ATOM      5  H   UNL     1      35.587 -21.639 -18.591  0.00  0.00    +0.178 HD
ATOM      6  H   UNL     1      36.067 -20.093 -19.884  0.00  0.00    +0.156 HD
ENDROOT
BRANCH   3   9
ATOM      7 CL   UNL     1      33.900 -18.232 -24.839  0.00  0.00    -0.081 Cl
ATOM      8 CL   UNL     1      34.818 -15.272 -23.907  0.00  0.00    -0.081 Cl
ATOM      9  C   UNL     1      35.072 -18.762 -21.079  0.00  0.00    +0.053 C 
ATOM     10  C   UNL     1      34.591 -18.983 -22.359  0.00  0.00    +0.027 C 
ATOM     11  C   UNL     1      35.470 -17.501 -20.665  0.00  0.00    +0.016 C 
ATOM     12  C   UNL     1      34.505 -17.913 -23.251  0.00  0.00    +0.069 C 
ATOM     13  C   UNL     1      35.383 -16.431 -21.557  0.00  0.00    +0.014 C 
ATOM     14  C   UNL     1      34.901 -16.637 -22.849  0.00  0.00    +0.068 C 
ENDBRANCH   3   9
BRANCH   2  15
ATOM     15  S   UNL     1      33.653 -22.806 -17.991  0.00  0.00    +0.077 S 
ATOM     16  O   UNL     1      33.801 -24.071 -18.700  0.00  0.00    -0.150 OA
ATOM     17  O   UNL     1      32.323 -22.257 -17.771  0.00  0.00    -0.150 OA
BRANCH  15  23
ATOM     18  O   UNL     1      36.176 -23.259 -12.714  0.00  0.00    -0.475 OA
ATOM     19  C   UNL     1      34.382 -23.559 -14.133  0.00  0.00    +0.017 C 
ATOM     20  C   UNL     1      33.873 -24.018 -12.822  0.00  0.00    +0.077 C 
ATOM     21  C   UNL     1      35.689 -23.117 -13.989  0.00  0.00    +0.135 C 
ATOM     22  C   UNL     1      35.201 -24.111 -12.067  0.00  0.00    +0.210 C 
ATOM     23  C   UNL     1      34.434 -22.936 -16.434  0.00  0.00    +0.125 C 
ATOM     24  C   UNL     1      33.734 -23.472 -15.350  0.00  0.00    +0.019 C 
ATOM     25  C   UNL     1      36.397 -22.573 -15.043  0.00  0.00    +0.038 C 
ATOM     26  C   UNL     1      35.757 -22.488 -16.280  0.00  0.00    +0.023 C 
ENDBRANCH  15  23
ENDBRANCH   2  15
TORSDOF 3
ENDMDL
MODEL 4
REMARK VINA RESULT:     -11.1      3.728      5.243
REMARK  Name = 127737
REMARK  3 active torsions:
REMARK  status: ('A' for Active; 'I' for Inactive)
REMARK    1  A    between atoms: N_2  and  S_15
REMARK    2  A    between atoms: N_3  and  C_9
REMARK    3  A    between atoms: S_15  and  C_23
REMARK                            x       y       z     vdW  Elec       q    Type
REMARK                         _______ _______ _______ _____ _____    ______ ____
ROOT
ATOM      1  O   UNL     1      35.164 -15.988 -23.116  0.00  0.00    -0.251 OA
ATOM      2  N   UNL     1      35.293 -17.184 -21.128  0.00  0.00    -0.169 N 
ATOM      3  N   UNL     1      34.363 -15.048 -21.136  0.00  0.00    -0.267 N 
ATOM      4  C   UNL     1      34.946 -16.034 -21.912  0.00  0.00    +0.323 C 
ATOM      5  H   UNL     1      35.044 -17.173 -20.175  0.00  0.00    +0.178 HD
ATOM      6  H   UNL     1      34.264 -15.254 -20.178  0.00  0.00    +0.156 HD
ENDROOT
BRANCH   3   9
ATOM      7 CL   UNL     1      31.220 -11.137 -20.255  0.00  0.00    -0.081 Cl
ATOM      8 CL   UNL     1      32.435  -9.746 -22.911  0.00  0.00    -0.081 Cl
ATOM      9  C   UNL     1      33.892 -13.779 -21.548  0.00  0.00    +0.053 C 
ATOM     10  C   UNL     1      32.910 -13.145 -20.804  0.00  0.00    +0.027 C 
ATOM     11  C   UNL     1      34.422 -13.197 -22.688  0.00  0.00    +0.016 C 
ATOM     12  C   UNL     1      32.446 -11.894 -21.211  0.00  0.00    +0.069 C 
ATOM     13  C   UNL     1      33.957 -11.945 -23.095  0.00  0.00    +0.014 C 
ATOM     14  C   UNL     1      32.970 -11.294 -22.356  0.00  0.00    +0.068 C 
ENDBRANCH   3   9
BRANCH   2  15
ATOM     15  S   UNL     1      36.107 -18.572 -21.716  0.00  0.00    +0.077 S 
ATOM     16  O   UNL     1      37.541 -18.315 -21.710  0.00  0.00    -0.150 OA
ATOM     17  O   UNL     1      35.459 -19.009 -22.944  0.00  0.00    -0.150 OA
BRANCH  15  23
ATOM     18  O   UNL     1      34.763 -22.495 -17.566  0.00  0.00    -0.475 OA
ATOM     19  C   UNL     1      34.155 -21.042 -19.250  0.00  0.00    +0.017 C 
ATOM     20  C   UNL     1      32.862 -21.553 -18.746  0.00  0.00    +0.077 C 
ATOM     21  C   UNL     1      35.190 -21.600 -18.514  0.00  0.00    +0.135 C 
ATOM     22  C   UNL     1      33.377 -22.729 -17.914  0.00  0.00    +0.210 C 
ATOM     23  C   UNL     1      35.738 -19.749 -20.478  0.00  0.00    +0.125 C 
ATOM     24  C   UNL     1      34.410 -20.107 -20.236  0.00  0.00    +0.019 C 
ATOM     25  C   UNL     1      36.509 -21.253 -18.727  0.00  0.00    +0.038 C 
ATOM     26  C   UNL     1      36.781 -20.317 -19.728  0.00  0.00    +0.023 C 
ENDBRANCH  15  23
ENDBRANCH   2  15
TORSDOF 3
ENDMDL
MODEL 5
REMARK VINA RESULT:     -10.1      4.979      9.361
REMARK  Name = 127737
REMARK  3 active torsions:
REMARK  status: ('A' for Active; 'I' for Inactive)
REMARK    1  A    between atoms: N_2  and  S_15
REMARK    2  A    between atoms: N_3  and  C_9
REMARK    3  A    between atoms: S_15  and  C_23
REMARK                            x       y       z     vdW  Elec       q    Type
REMARK                         _______ _______ _______ _____ _____    ______ ____
ROOT
ATOM      1  O   UNL     1      33.634 -23.535 -16.067  0.00  0.00    -0.251 OA
ATOM      2  N   UNL     1      34.973 -22.157 -17.376  0.00  0.00    -0.169 N 
ATOM      3  N   UNL     1      35.602 -22.641 -15.185  0.00  0.00    -0.267 N 
ATOM      4  C   UNL     1      34.647 -22.853 -16.164  0.00  0.00    +0.323 C 
ATOM      5  H   UNL     1      35.827 -21.668 -17.400  0.00  0.00    +0.178 HD
ATOM      6  H   UNL     1      36.356 -22.061 -15.436  0.00  0.00    +0.156 HD
ENDROOT
BRANCH   3   9
ATOM      7 CL   UNL     1      38.380 -23.779 -11.071  0.00  0.00    -0.081 Cl
ATOM      8 CL   UNL     1      35.643 -24.800  -9.680  0.00  0.00    -0.081 Cl
ATOM      9  C   UNL     1      35.627 -23.155 -13.867  0.00  0.00    +0.053 C 
ATOM     10  C   UNL     1      36.832 -23.214 -13.186  0.00  0.00    +0.027 C 
ATOM     11  C   UNL     1      34.447 -23.589 -13.286  0.00  0.00    +0.016 C 
ATOM     12  C   UNL     1      36.857 -23.721 -11.886  0.00  0.00    +0.069 C 
ATOM     13  C   UNL     1      34.473 -24.096 -11.986  0.00  0.00    +0.014 C 
ATOM     14  C   UNL     1      35.677 -24.162 -11.286  0.00  0.00    +0.068 C 
ENDBRANCH   3   9
BRANCH   2  15
ATOM     15  S   UNL     1      33.994 -22.109 -18.781  0.00  0.00    +0.077 S 
ATOM     16  O   UNL     1      32.670 -21.622 -18.416  0.00  0.00    -0.150 OA
ATOM     17  O   UNL     1      34.125 -23.374 -19.487  0.00  0.00    -0.150 OA
BRANCH  15  23
ATOM     18  O   UNL     1      36.627 -18.016 -22.057  0.00  0.00    -0.475 OA
ATOM     19  C   UNL     1      34.793 -19.306 -21.518  0.00  0.00    +0.017 C 
ATOM     20  C   UNL     1      34.349 -18.545 -22.706  0.00  0.00    +0.077 C 
ATOM     21  C   UNL     1      36.107 -18.974 -21.224  0.00  0.00    +0.135 C 
ATOM     22  C   UNL     1      35.468 -17.502 -22.756  0.00  0.00    +0.210 C 
ATOM     23  C   UNL     1      34.802 -20.887 -19.734  0.00  0.00    +0.125 C 
ATOM     24  C   UNL     1      34.123 -20.267 -20.786  0.00  0.00    +0.019 C 
ATOM     25  C   UNL     1      36.802 -19.581 -20.197  0.00  0.00    +0.038 C 
ATOM     26  C   UNL     1      36.134 -20.547 -19.442  0.00  0.00    +0.023 C 
ENDBRANCH  15  23
ENDBRANCH   2  15
TORSDOF 3
ENDMDL
MODEL 6
REMARK VINA RESULT:     -10.1      4.376      8.855
REMARK  Name = 127737
REMARK  3 active torsions:
REMARK  status: ('A' for Active; 'I' for Inactive)
REMARK    1  A    between atoms: N_2  and  S_15
REMARK    2  A    between atoms: N_3  and  C_9
REMARK    3  A    between atoms: S_15  and  C_23
REMARK                            x       y       z     vdW  Elec       q    Type
REMARK                         _______ _______ _______ _____ _____    ______ ____
ROOT
ATOM      1  O   UNL     1      36.557 -19.781 -19.543  0.00  0.00    -0.251 OA
ATOM      2  N   UNL     1      35.064 -19.493 -21.300  0.00  0.00    -0.169 N 
ATOM      3  N   UNL     1      34.544 -20.962 -19.568  0.00  0.00    -0.267 N 
ATOM      4  C   UNL     1      35.485 -20.073 -20.058  0.00  0.00    +0.323 C 
ATOM      5  H   UNL     1      34.169 -19.736 -21.632  0.00  0.00    +0.178 HD
ATOM      6  H   UNL     1      33.734 -21.078 -20.115  0.00  0.00    +0.156 HD
ENDROOT
BRANCH   3   9
ATOM      7 CL   UNL     1      37.344 -22.561 -15.625  0.00  0.00    -0.081 Cl
ATOM      8 CL   UNL     1      34.729 -24.170 -14.603  0.00  0.00    -0.081 Cl
ATOM      9  C   UNL     1      34.603 -21.725 -18.378  0.00  0.00    +0.053 C 
ATOM     10  C   UNL     1      35.788 -21.773 -17.662  0.00  0.00    +0.027 C 
ATOM     11  C   UNL     1      33.475 -22.409 -17.954  0.00  0.00    +0.016 C 
ATOM     12  C   UNL     1      35.847 -22.526 -16.488  0.00  0.00    +0.069 C 
ATOM     13  C   UNL     1      33.534 -23.162 -16.781  0.00  0.00    +0.014 C 
ATOM     14  C   UNL     1      34.719 -23.220 -16.048  0.00  0.00    +0.068 C 
ENDBRANCH   3   9
BRANCH   2  15
ATOM     15  S   UNL     1      35.993 -18.414 -22.252  0.00  0.00    +0.077 S 
ATOM     16  O   UNL     1      35.701 -18.656 -23.658  0.00  0.00    -0.150 OA
ATOM     17  O   UNL     1      37.372 -18.448 -21.788  0.00  0.00    -0.150 OA
BRANCH  15  23
ATOM     18  O   UNL     1      33.751 -13.186 -20.815  0.00  0.00    -0.475 OA
ATOM     19  C   UNL     1      34.421 -14.739 -22.382  0.00  0.00    +0.017 C 
ATOM     20  C   UNL     1      34.008 -13.576 -23.196  0.00  0.00    +0.077 C 
ATOM     21  C   UNL     1      34.273 -14.435 -21.037  0.00  0.00    +0.135 C 
ATOM     22  C   UNL     1      33.273 -12.777 -22.118  0.00  0.00    +0.210 C 
ATOM     23  C   UNL     1      35.320 -16.868 -21.793  0.00  0.00    +0.125 C 
ATOM     24  C   UNL     1      34.950 -15.952 -22.781  0.00  0.00    +0.019 C 
ATOM     25  C   UNL     1      34.644 -15.319 -20.043  0.00  0.00    +0.038 C 
ATOM     26  C   UNL     1      35.170 -16.552 -20.432  0.00  0.00    +0.023 C 
ENDBRANCH  15  23
ENDBRANCH   2  15
TORSDOF 3
ENDMDL
MODEL 7
REMARK VINA RESULT:      -9.9      8.142     12.534
REMARK  Name = 127737
REMARK  3 active torsions:
REMARK  status: ('A' for Active; 'I' for Inactive)
REMARK    1  A    between atoms: N_2  and  S_15
REMARK    2  A    between atoms: N_3  and  C_9
REMARK    3  A    between atoms: S_15  and  C_23
REMARK                            x       y       z     vdW  Elec       q    Type
REMARK                         _______ _______ _______ _____ _____    ______ ____
ROOT
ATOM      1  O   UNL     1      31.992 -13.413 -20.349  0.00  0.00    -0.251 OA
ATOM      2  N   UNL     1      32.576 -11.303 -21.127  0.00  0.00    -0.169 N 
ATOM      3  N   UNL     1      33.818 -13.162 -21.782  0.00  0.00    -0.267 N 
ATOM      4  C   UNL     1      32.741 -12.724 -21.030  0.00  0.00    +0.323 C 
ATOM      5  H   UNL     1      33.183 -10.817 -21.731  0.00  0.00    +0.178 HD
ATOM      6  H   UNL     1      34.314 -12.467 -22.270  0.00  0.00    +0.156 HD
ENDROOT
BRANCH   3   9
ATOM      7 CL   UNL     1      34.589 -17.117 -24.896  0.00  0.00    -0.081 Cl
ATOM      8 CL   UNL     1      35.819 -18.697 -22.355  0.00  0.00    -0.081 Cl
ATOM      9  C   UNL     1      34.293 -14.486 -21.934  0.00  0.00    +0.053 C 
ATOM     10  C   UNL     1      34.225 -15.092 -23.178  0.00  0.00    +0.027 C 
ATOM     11  C   UNL     1      34.816 -15.149 -20.836  0.00  0.00    +0.016 C 
ATOM     12  C   UNL     1      34.693 -16.398 -23.328  0.00  0.00    +0.069 C 
ATOM     13  C   UNL     1      35.284 -16.455 -20.987  0.00  0.00    +0.014 C 
ATOM     14  C   UNL     1      35.223 -17.079 -22.232  0.00  0.00    +0.068 C 
ENDBRANCH   3   9
BRANCH   2  15
ATOM     15  S   UNL     1      31.407 -10.384 -20.276  0.00  0.00    +0.077 S 
ATOM     16  O   UNL     1      31.735 -10.404 -18.857  0.00  0.00    -0.150 OA
ATOM     17  O   UNL     1      30.080 -10.793 -20.713  0.00  0.00    -0.150 OA
BRANCH  15  23
ATOM     18  O   UNL     1      32.340  -5.025 -22.474  0.00  0.00    -0.475 OA
ATOM     19  C   UNL     1      31.412  -7.132 -22.602  0.00  0.00    +0.017 C 
ATOM     20  C   UNL     1      31.034  -6.503 -23.887  0.00  0.00    +0.077 C 
ATOM     21  C   UNL     1      32.177  -6.242 -21.862  0.00  0.00    +0.135 C 
ATOM     22  C   UNL     1      31.376  -5.050 -23.553  0.00  0.00    +0.210 C 
ATOM     23  C   UNL     1      31.695  -8.778 -20.900  0.00  0.00    +0.125 C 
ATOM     24  C   UNL     1      31.164  -8.410 -22.139  0.00  0.00    +0.019 C 
ATOM     25  C   UNL     1      32.722  -6.587 -20.641  0.00  0.00    +0.038 C 
ATOM     26  C   UNL     1      32.471  -7.872 -20.157  0.00  0.00    +0.023 C 
ENDBRANCH  15  23
ENDBRANCH   2  15
TORSDOF 3
ENDMDL
MODEL 8
REMARK VINA RESULT:      -9.7      5.416     10.253
REMARK  Name = 127737
REMARK  3 active torsions:
REMARK  status: ('A' for Active; 'I' for Inactive)
REMARK    1  A    between atoms: N_2  and  S_15
REMARK    2  A    between atoms: N_3  and  C_9
REMARK    3  A    between atoms: S_15  and  C_23
REMARK                            x       y       z     vdW  Elec       q    Type
REMARK                         _______ _______ _______ _____ _____    ______ ____
ROOT
ATOM      1  O   UNL     1      34.145 -18.111 -23.644  0.00  0.00    -0.251 OA
ATOM      2  N   UNL     1      34.676 -15.855 -23.477  0.00  0.00    -0.169 N 
ATOM      3  N   UNL     1      35.279 -17.316 -21.765  0.00  0.00    -0.267 N 
ATOM      4  C   UNL     1      34.660 -17.207 -22.998  0.00  0.00    +0.323 C 
ATOM      5  H   UNL     1      35.150 -15.187 -22.930  0.00  0.00    +0.178 HD
ATOM      6  H   UNL     1      35.640 -16.482 -21.388  0.00  0.00    +0.156 HD
ENDROOT
BRANCH   3   9
ATOM      7 CL   UNL     1      33.113 -21.246 -19.356  0.00  0.00    -0.081 Cl
ATOM      8 CL   UNL     1      36.089 -22.168 -18.482  0.00  0.00    -0.081 Cl
ATOM      9  C   UNL     1      35.458 -18.479 -20.980  0.00  0.00    +0.053 C 
ATOM     10  C   UNL     1      34.348 -19.213 -20.593  0.00  0.00    +0.027 C 
ATOM     11  C   UNL     1      36.738 -18.860 -20.613  0.00  0.00    +0.016 C 
ATOM     12  C   UNL     1      34.523 -20.360 -19.818  0.00  0.00    +0.069 C 
ATOM     13  C   UNL     1      36.913 -20.007 -19.839  0.00  0.00    +0.014 C 
ATOM     14  C   UNL     1      35.807 -20.757 -19.441  0.00  0.00    +0.068 C 
ENDBRANCH   3   9
BRANCH   2  15
ATOM     15  S   UNL     1      33.936 -15.310 -24.922  0.00  0.00    +0.077 S 
ATOM     16  O   UNL     1      32.666 -16.004 -25.092  0.00  0.00    -0.150 OA
ATOM     17  O   UNL     1      34.921 -15.341 -25.993  0.00  0.00    -0.150 OA
BRANCH  15  23
ATOM     18  O   UNL     1      32.816  -9.712 -23.570  0.00  0.00    -0.475 OA
ATOM     19  C   UNL     1      32.951 -11.943 -23.003  0.00  0.00    +0.017 C 
ATOM     20  C   UNL     1      32.440 -11.299 -21.773  0.00  0.00    +0.077 C 
ATOM     21  C   UNL     1      33.115 -10.983 -23.991  0.00  0.00    +0.135 C 
ATOM     22  C   UNL     1      32.723  -9.839 -22.131  0.00  0.00    +0.210 C 
ATOM     23  C   UNL     1      33.618 -13.633 -24.547  0.00  0.00    +0.125 C 
ATOM     24  C   UNL     1      33.193 -13.279 -23.265  0.00  0.00    +0.019 C 
ATOM     25  C   UNL     1      33.522 -11.311 -25.269  0.00  0.00    +0.038 C 
ATOM     26  C   UNL     1      33.780 -12.655 -25.543  0.00  0.00    +0.023 C 
ENDBRANCH  15  23
ENDBRANCH   2  15
TORSDOF 3
ENDMDL
MODEL 9
REMARK VINA RESULT:      -9.7      4.439      8.901
REMARK  Name = 127737
REMARK  3 active torsions:
REMARK  status: ('A' for Active; 'I' for Inactive)
REMARK    1  A    between atoms: N_2  and  S_15
REMARK    2  A    between atoms: N_3  and  C_9
REMARK    3  A    between atoms: S_15  and  C_23
REMARK                            x       y       z     vdW  Elec       q    Type
REMARK                         _______ _______ _______ _____ _____    ______ ____
ROOT
ATOM      1  O   UNL     1      36.370 -19.779 -19.522  0.00  0.00    -0.251 OA
ATOM      2  N   UNL     1      34.956 -19.499 -21.345  0.00  0.00    -0.169 N 
ATOM      3  N   UNL     1      34.351 -20.946 -19.622  0.00  0.00    -0.267 N 
ATOM      4  C   UNL     1      35.319 -20.069 -20.079  0.00  0.00    +0.323 C 
ATOM      5  H   UNL     1      34.075 -19.739 -21.712  0.00  0.00    +0.178 HD
ATOM      6  H   UNL     1      33.564 -21.061 -20.202  0.00  0.00    +0.156 HD
ENDROOT
BRANCH   3   9
ATOM      7 CL   UNL     1      31.639 -23.504 -16.151  0.00  0.00    -0.081 Cl
ATOM      8 CL   UNL     1      34.423 -24.077 -14.606  0.00  0.00    -0.081 Cl
ATOM      9  C   UNL     1      34.353 -21.697 -18.423  0.00  0.00    +0.053 C 
ATOM     10  C   UNL     1      33.154 -22.179 -17.923  0.00  0.00    +0.027 C 
ATOM     11  C   UNL     1      35.553 -21.933 -17.772  0.00  0.00    +0.016 C 
ATOM     12  C   UNL     1      33.155 -22.920 -16.741  0.00  0.00    +0.069 C 
ATOM     13  C   UNL     1      35.554 -22.673 -16.590  0.00  0.00    +0.014 C 
ATOM     14  C   UNL     1      34.356 -23.167 -16.074  0.00  0.00    +0.068 C 
ENDBRANCH   3   9
BRANCH   2  15
ATOM     15  S   UNL     1      35.934 -18.437 -22.267  0.00  0.00    +0.077 S 
ATOM     16  O   UNL     1      35.671 -18.663 -23.681  0.00  0.00    -0.150 OA
ATOM     17  O   UNL     1      37.300 -18.506 -21.769  0.00  0.00    -0.150 OA
BRANCH  15  23
ATOM     18  O   UNL     1      33.779 -13.167 -20.852  0.00  0.00    -0.475 OA
ATOM     19  C   UNL     1      34.403 -14.746 -22.412  0.00  0.00    +0.017 C 
ATOM     20  C   UNL     1      33.990 -13.586 -23.233  0.00  0.00    +0.077 C 
ATOM     21  C   UNL     1      34.282 -14.424 -21.068  0.00  0.00    +0.135 C 
ATOM     22  C   UNL     1      33.283 -12.766 -22.151  0.00  0.00    +0.210 C 
ATOM     23  C   UNL     1      35.288 -16.878 -21.814  0.00  0.00    +0.125 C 
ATOM     24  C   UNL     1      34.911 -15.969 -22.806  0.00  0.00    +0.019 C 
ATOM     25  C   UNL     1      34.659 -15.301 -20.070  0.00  0.00    +0.038 C 
ATOM     26  C   UNL     1      35.164 -16.545 -20.455  0.00  0.00    +0.023 C 
ENDBRANCH  15  23
ENDBRANCH   2  15
TORSDOF 3
ENDMDL
