MODEL 1
REMARK VINA RESULT:     -11.6      0.000      0.000
REMARK  Name = 446346
REMARK  6 active torsions:
REMARK  status: ('A' for Active; 'I' for Inactive)
REMARK    1  A    between atoms: N_1  and  C_20
REMARK    2  A    between atoms: N_2  and  S_8
REMARK    3  A    between atoms: S_8  and  C_11
REMARK    4  A    between atoms: C_12  and  C_14
REMARK    5  A    between atoms: C_20  and  C_22
REMARK    6  A    between atoms: N_21  and  C_28
REMARK                            x       y       z     vdW  Elec       q    Type
REMARK                         _______ _______ _______ _____ _____    ______ ____
ROOT
ATOM      1  N   UNL     1      35.459 -19.090 -20.722  0.00  0.00    +0.389 N 
ATOM      2  N   UNL     1      34.383 -21.461 -19.503  0.00  0.00    -0.160 NA
ATOM      3  C   UNL     1      34.193 -19.673 -21.189  0.00  0.00    -0.058 C 
ATOM      4  C   UNL     1      36.344 -20.135 -20.193  0.00  0.00    -0.058 C 
ATOM      5  C   UNL     1      33.482 -20.410 -20.055  0.00  0.00    +0.073 C 
ATOM      6  C   UNL     1      35.676 -20.881 -19.039  0.00  0.00    +0.073 C 
ATOM      7  H   UNL     1      35.251 -18.432 -19.971  0.00  0.00    -0.080 HD
ENDROOT
BRANCH   2   8
ATOM      8  S   UNL     1      33.647 -22.573 -18.429  0.00  0.00    +0.064 S 
ATOM      9  O   UNL     1      33.778 -23.900 -19.008  0.00  0.00    -0.153 OA
ATOM     10  O   UNL     1      32.332 -22.060 -18.090  0.00  0.00    -0.153 OA
BRANCH   8  11
ATOM     11  C   UNL     1      34.633 -22.507 -17.008  0.00  0.00    +0.141 C 
ATOM     12  C   UNL     1      34.296 -23.312 -15.993  0.00  0.00    +0.021 C 
BRANCH  12  14
ATOM     13 CL   UNL     1      37.229 -23.665 -10.810  0.00  0.00    -0.082 Cl
ATOM     14  C   UNL     1      35.021 -23.398 -14.713  0.00  0.00    +0.001 C 
ATOM     15  C   UNL     1      36.368 -23.076 -14.672  0.00  0.00    +0.001 C 
ATOM     16  C   UNL     1      34.341 -23.801 -13.574  0.00  0.00    +0.001 C 
ATOM     17  C   UNL     1      37.053 -23.160 -13.460  0.00  0.00    +0.011 C 
ATOM     18  C   UNL     1      35.027 -23.884 -12.362  0.00  0.00    +0.011 C 
ATOM     19  C   UNL     1      36.384 -23.563 -12.305  0.00  0.00    +0.058 C 
ENDBRANCH  12  14
ENDBRANCH   8  11
ENDBRANCH   2   8
BRANCH   1  20
ATOM     20  C   UNL     1      36.116 -18.357 -21.803  0.00  0.00    -0.077 C 
BRANCH  20  22
ATOM     21  N   UNL     1      34.119 -14.548 -21.557  0.00  0.00    -0.307 N 
ATOM     22  C   UNL     1      35.862 -16.855 -21.697  0.00  0.00    -0.017 C 
ATOM     23  C   UNL     1      35.064 -16.526 -20.431  0.00  0.00    +0.019 C 
ATOM     24  C   UNL     1      35.107 -16.340 -22.925  0.00  0.00    +0.019 C 
ATOM     25  C   UNL     1      34.769 -15.030 -20.330  0.00  0.00    +0.091 C 
ATOM     26  C   UNL     1      34.807 -14.845 -22.817  0.00  0.00    +0.091 C 
BRANCH  21  28
ATOM     27  N   UNL     1      31.738 -11.076 -21.257  0.00  0.00    -0.242 NA
ATOM     28  C   UNL     1      33.329 -13.397 -21.457  0.00  0.00    +0.051 C 
ATOM     29  C   UNL     1      33.380 -12.396 -22.441  0.00  0.00    +0.035 C 
ATOM     30  C   UNL     1      32.461 -13.205 -20.371  0.00  0.00    +0.035 C 
ATOM     31  C   UNL     1      32.579 -11.276 -22.297  0.00  0.00    +0.100 C 
ATOM     32  C   UNL     1      31.701 -12.049 -20.319  0.00  0.00    +0.100 C 
ENDBRANCH  21  28
ENDBRANCH  20  22
ENDBRANCH   1  20
TORSDOF 6
ENDMDL
MODEL 2
REMARK VINA RESULT:     -11.6      1.458      2.201
REMARK  Name = 446346
REMARK  6 active torsions:
REMARK  status: ('A' for Active; 'I' for Inactive)
REMARK    1  A    between atoms: N_1  and  C_20
REMARK    2  A    between atoms: N_2  and  S_8
REMARK    3  A    between atoms: S_8  and  C_11
REMARK    4  A    between atoms: C_12  and  C_14
REMARK    5  A    between atoms: C_20  and  C_22
REMARK    6  A    between atoms: N_21  and  C_28
REMARK                            x       y       z     vdW  Elec       q    Type
REMARK                         _______ _______ _______ _____ _____    ______ ____
ROOT
ATOM      1  N   UNL     1      35.426 -19.210 -20.279  0.00  0.00    +0.389 N 
ATOM      2  N   UNL     1      34.318 -21.651 -19.239  0.00  0.00    -0.160 NA
ATOM      3  C   UNL     1      34.104 -19.685 -20.711  0.00  0.00    -0.058 C 
ATOM      4  C   UNL     1      36.292 -20.344 -19.927  0.00  0.00    -0.058 C 
ATOM      5  C   UNL     1      33.436 -20.508 -19.612  0.00  0.00    +0.073 C 
ATOM      6  C   UNL     1      35.667 -21.180 -18.813  0.00  0.00    +0.073 C 
ATOM      7  H   UNL     1      35.303 -18.629 -19.449  0.00  0.00    -0.080 HD
ENDROOT
BRANCH   2   8
ATOM      8  S   UNL     1      33.601 -22.840 -18.237  0.00  0.00    +0.064 S 
ATOM      9  O   UNL     1      33.823 -24.134 -18.858  0.00  0.00    -0.153 OA
ATOM     10  O   UNL     1      32.248 -22.408 -17.933  0.00  0.00    -0.153 OA
BRANCH   8  11
ATOM     11  C   UNL     1      34.527 -22.778 -16.776  0.00  0.00    +0.141 C 
ATOM     12  C   UNL     1      34.040 -23.436 -15.716  0.00  0.00    +0.021 C 
BRANCH  12  14
ATOM     13 CL   UNL     1      36.681 -23.702 -10.374  0.00  0.00    -0.082 Cl
ATOM     14  C   UNL     1      34.693 -23.502 -14.397  0.00  0.00    +0.001 C 
ATOM     15  C   UNL     1      33.996 -24.028 -13.321  0.00  0.00    +0.001 C 
ATOM     16  C   UNL     1      35.991 -23.037 -14.257  0.00  0.00    +0.001 C 
ATOM     17  C   UNL     1      34.614 -24.089 -12.071  0.00  0.00    +0.011 C 
ATOM     18  C   UNL     1      36.608 -23.099 -13.008  0.00  0.00    +0.011 C 
ATOM     19  C   UNL     1      35.919 -23.626 -11.915  0.00  0.00    +0.058 C 
ENDBRANCH  12  14
ENDBRANCH   8  11
ENDBRANCH   2   8
BRANCH   1  20
ATOM     20  C   UNL     1      36.045 -18.394 -21.322  0.00  0.00    -0.077 C 
BRANCH  20  22
ATOM     21  N   UNL     1      34.441 -14.892 -23.251  0.00  0.00    -0.307 N 
ATOM     22  C   UNL     1      35.066 -17.367 -21.885  0.00  0.00    -0.017 C 
ATOM     23  C   UNL     1      35.244 -17.217 -23.399  0.00  0.00    +0.019 C 
ATOM     24  C   UNL     1      35.255 -16.005 -21.211  0.00  0.00    +0.019 C 
ATOM     25  C   UNL     1      34.295 -16.165 -23.972  0.00  0.00    +0.091 C 
ATOM     26  C   UNL     1      34.310 -14.952 -21.792  0.00  0.00    +0.091 C 
BRANCH  21  28
ATOM     27  N   UNL     1      33.336 -11.367 -25.292  0.00  0.00    -0.242 NA
ATOM     28  C   UNL     1      34.075 -13.723 -23.928  0.00  0.00    +0.051 C 
ATOM     29  C   UNL     1      34.205 -12.464 -23.322  0.00  0.00    +0.035 C 
ATOM     30  C   UNL     1      33.565 -13.773 -25.235  0.00  0.00    +0.035 C 
ATOM     31  C   UNL     1      33.829 -11.337 -24.034  0.00  0.00    +0.100 C 
ATOM     32  C   UNL     1      33.217 -12.588 -25.862  0.00  0.00    +0.100 C 
ENDBRANCH  21  28
ENDBRANCH  20  22
ENDBRANCH   1  20
TORSDOF 6
ENDMDL
MODEL 3
REMARK VINA RESULT:     -11.3      4.988     10.988
REMARK  Name = 446346
REMARK  6 active torsions:
REMARK  status: ('A' for Active; 'I' for Inactive)
REMARK    1  A    between atoms: N_1  and  C_20
REMARK    2  A    between atoms: N_2  and  S_8
REMARK    3  A    between atoms: S_8  and  C_11
REMARK    4  A    between atoms: C_12  and  C_14
REMARK    5  A    between atoms: C_20  and  C_22
REMARK    6  A    between atoms: N_21  and  C_28
REMARK                            x       y       z     vdW  Elec       q    Type
REMARK                         _______ _______ _______ _____ _____    ______ ____
ROOT
ATOM      1  N   UNL     1      35.341 -18.912 -21.308  0.00  0.00    +0.389 N 
ATOM      2  N   UNL     1      34.788 -17.236 -23.578  0.00  0.00    -0.160 NA
ATOM      3  C   UNL     1      35.897 -17.554 -21.400  0.00  0.00    -0.058 C 
ATOM      4  C   UNL     1      35.164 -19.488 -22.648  0.00  0.00    -0.058 C 
ATOM      5  C   UNL     1      34.984 -16.647 -22.223  0.00  0.00    +0.073 C 
ATOM      6  C   UNL     1      34.237 -18.619 -23.496  0.00  0.00    +0.073 C 
ATOM      7  H   UNL     1      34.427 -18.855 -20.859  0.00  0.00    -0.080 HD
ENDROOT
BRANCH   2   8
ATOM      8  S   UNL     1      34.037 -16.211 -24.726  0.00  0.00    +0.064 S 
ATOM      9  O   UNL     1      32.893 -16.921 -25.271  0.00  0.00    -0.153 OA
ATOM     10  O   UNL     1      35.069 -15.711 -25.617  0.00  0.00    -0.153 OA
BRANCH   8  11
ATOM     11  C   UNL     1      33.448 -14.882 -23.786  0.00  0.00    +0.141 C 
ATOM     12  C   UNL     1      33.807 -13.652 -24.175  0.00  0.00    +0.021 C 
BRANCH  12  14
ATOM     13 CL   UNL     1      32.139  -8.605 -21.469  0.00  0.00    -0.082 Cl
ATOM     14  C   UNL     1      33.395 -12.406 -23.506  0.00  0.00    +0.001 C 
ATOM     15  C   UNL     1      32.684 -12.475 -22.319  0.00  0.00    +0.001 C 
ATOM     16  C   UNL     1      33.727 -11.187 -24.078  0.00  0.00    +0.001 C 
ATOM     17  C   UNL     1      32.294 -11.295 -21.687  0.00  0.00    +0.011 C 
ATOM     18  C   UNL     1      33.337 -10.007 -23.445  0.00  0.00    +0.011 C 
ATOM     19  C   UNL     1      32.620 -10.061 -22.249  0.00  0.00    +0.058 C 
ENDBRANCH  12  14
ENDBRANCH   8  11
ENDBRANCH   2   8
BRANCH   1  20
ATOM     20  C   UNL     1      36.201 -19.766 -20.490  0.00  0.00    -0.077 C 
BRANCH  20  22
ATOM     21  N   UNL     1      33.857 -22.071 -17.707  0.00  0.00    -0.307 N 
ATOM     22  C   UNL     1      35.414 -20.908 -19.853  0.00  0.00    -0.017 C 
ATOM     23  C   UNL     1      33.962 -20.491 -19.595  0.00  0.00    +0.019 C 
ATOM     24  C   UNL     1      36.060 -21.349 -18.537  0.00  0.00    +0.019 C 
ATOM     25  C   UNL     1      33.171 -21.612 -18.923  0.00  0.00    +0.091 C 
ATOM     26  C   UNL     1      35.261 -22.465 -17.863  0.00  0.00    +0.091 C 
BRANCH  21  28
ATOM     27  N   UNL     1      31.504 -23.906 -14.722  0.00  0.00    -0.242 NA
ATOM     28  C   UNL     1      33.077 -22.680 -16.717  0.00  0.00    +0.051 C 
ATOM     29  C   UNL     1      33.671 -23.350 -15.636  0.00  0.00    +0.035 C 
ATOM     30  C   UNL     1      31.675 -22.639 -16.773  0.00  0.00    +0.035 C 
ATOM     31  C   UNL     1      32.855 -23.936 -14.683  0.00  0.00    +0.100 C 
ATOM     32  C   UNL     1      30.948 -23.257 -15.769  0.00  0.00    +0.100 C 
ENDBRANCH  21  28
ENDBRANCH  20  22
ENDBRANCH   1  20
TORSDOF 6
ENDMDL
MODEL 4
REMARK VINA RESULT:     -10.9      4.859      8.015
REMARK  Name = 446346
REMARK  6 active torsions:
REMARK  status: ('A' for Active; 'I' for Inactive)
REMARK    1  A    between atoms: N_1  and  C_20
REMARK    2  A    between atoms: N_2  and  S_8
REMARK    3  A    between atoms: S_8  and  C_11
REMARK    4  A    between atoms: C_12  and  C_14
REMARK    5  A    between atoms: C_20  and  C_22
REMARK    6  A    between atoms: N_21  and  C_28
REMARK                            x       y       z     vdW  Elec       q    Type
REMARK                         _______ _______ _______ _____ _____    ______ ____
ROOT
ATOM      1  N   UNL     1      33.429 -12.442 -22.544  0.00  0.00    +0.389 N 
ATOM      2  N   UNL     1      33.772 -15.038 -23.731  0.00  0.00    -0.160 NA
ATOM      3  C   UNL     1      33.754 -13.615 -21.719  0.00  0.00    -0.058 C 
ATOM      4  C   UNL     1      32.653 -12.841 -23.725  0.00  0.00    -0.058 C 
ATOM      5  C   UNL     1      34.549 -14.642 -22.522  0.00  0.00    +0.073 C 
ATOM      6  C   UNL     1      33.426 -13.854 -24.568  0.00  0.00    +0.073 C 
ATOM      7  H   UNL     1      34.303 -12.021 -22.860  0.00  0.00    -0.080 HD
ENDROOT
BRANCH   2   8
ATOM      8  S   UNL     1      34.378 -16.393 -24.586  0.00  0.00    +0.064 S 
ATOM      9  O   UNL     1      35.353 -15.909 -25.547  0.00  0.00    -0.153 OA
ATOM     10  O   UNL     1      33.242 -17.176 -25.040  0.00  0.00    -0.153 OA
BRANCH   8  11
ATOM     11  C   UNL     1      35.218 -17.311 -23.383  0.00  0.00    +0.141 C 
ATOM     12  C   UNL     1      34.477 -18.075 -22.569  0.00  0.00    +0.021 C 
BRANCH  12  14
ATOM     13 CL   UNL     1      36.660 -21.535 -18.228  0.00  0.00    -0.082 Cl
ATOM     14  C   UNL     1      35.016 -18.929 -21.497  0.00  0.00    +0.001 C 
ATOM     15  C   UNL     1      36.345 -18.796 -21.126  0.00  0.00    +0.001 C 
ATOM     16  C   UNL     1      34.184 -19.850 -20.879  0.00  0.00    +0.001 C 
ATOM     17  C   UNL     1      36.855 -19.606 -20.112  0.00  0.00    +0.011 C 
ATOM     18  C   UNL     1      34.695 -20.659 -19.864  0.00  0.00    +0.011 C 
ATOM     19  C   UNL     1      36.031 -20.537 -19.480  0.00  0.00    +0.058 C 
ENDBRANCH  12  14
ENDBRANCH   8  11
ENDBRANCH   2   8
BRANCH   1  20
ATOM     20  C   UNL     1      32.699 -11.448 -21.760  0.00  0.00    -0.077 C 
BRANCH  20  22
ATOM     21  N   UNL     1      32.403  -7.308 -22.913  0.00  0.00    -0.307 N 
ATOM     22  C   UNL     1      32.430 -10.182 -22.571  0.00  0.00    -0.017 C 
ATOM     23  C   UNL     1      33.722  -9.385 -22.780  0.00  0.00    +0.019 C 
ATOM     24  C   UNL     1      31.391  -9.298 -21.876  0.00  0.00    +0.019 C 
ATOM     25  C   UNL     1      33.462  -8.096 -23.558  0.00  0.00    +0.091 C 
ATOM     26  C   UNL     1      31.140  -8.006 -22.653  0.00  0.00    +0.091 C 
BRANCH  21  28
ATOM     27  N   UNL     1      32.370  -3.148 -23.624  0.00  0.00    -0.242 NA
ATOM     28  C   UNL     1      32.392  -5.928 -23.149  0.00  0.00    +0.051 C 
ATOM     29  C   UNL     1      33.120  -5.369 -24.212  0.00  0.00    +0.035 C 
ATOM     30  C   UNL     1      31.653  -5.059 -22.331  0.00  0.00    +0.035 C 
ATOM     31  C   UNL     1      33.076  -3.998 -24.403  0.00  0.00    +0.100 C 
ATOM     32  C   UNL     1      31.675  -3.702 -22.606  0.00  0.00    +0.100 C 
ENDBRANCH  21  28
ENDBRANCH  20  22
ENDBRANCH   1  20
TORSDOF 6
ENDMDL
MODEL 5
REMARK VINA RESULT:     -10.8      4.848      8.001
REMARK  Name = 446346
REMARK  6 active torsions:
REMARK  status: ('A' for Active; 'I' for Inactive)
REMARK    1  A    between atoms: N_1  and  C_20
REMARK    2  A    between atoms: N_2  and  S_8
REMARK    3  A    between atoms: S_8  and  C_11
REMARK    4  A    between atoms: C_12  and  C_14
REMARK    5  A    between atoms: C_20  and  C_22
REMARK    6  A    between atoms: N_21  and  C_28
REMARK                            x       y       z     vdW  Elec       q    Type
REMARK                         _______ _______ _______ _____ _____    ______ ____
ROOT
ATOM      1  N   UNL     1      33.036 -12.508 -22.412  0.00  0.00    +0.389 N 
ATOM      2  N   UNL     1      33.708 -15.030 -23.618  0.00  0.00    -0.160 NA
ATOM      3  C   UNL     1      33.575 -13.613 -21.605  0.00  0.00    -0.058 C 
ATOM      4  C   UNL     1      32.270 -13.028 -23.553  0.00  0.00    -0.058 C 
ATOM      5  C   UNL     1      34.475 -14.513 -22.449  0.00  0.00    +0.073 C 
ATOM      6  C   UNL     1      33.145 -13.918 -24.435  0.00  0.00    +0.073 C 
ATOM      7  H   UNL     1      33.819 -11.962 -22.771  0.00  0.00    -0.080 HD
ENDROOT
BRANCH   2   8
ATOM      8  S   UNL     1      34.468 -16.283 -24.503  0.00  0.00    +0.064 S 
ATOM      9  O   UNL     1      35.473 -15.674 -25.357  0.00  0.00    -0.153 OA
ATOM     10  O   UNL     1      33.427 -17.110 -25.087  0.00  0.00    -0.153 OA
BRANCH   8  11
ATOM     11  C   UNL     1      35.284 -17.220 -23.296  0.00  0.00    +0.141 C 
ATOM     12  C   UNL     1      34.531 -18.026 -22.538  0.00  0.00    +0.021 C 
BRANCH  12  14
ATOM     13 CL   UNL     1      36.630 -21.565 -18.219  0.00  0.00    -0.082 Cl
ATOM     14  C   UNL     1      35.049 -18.901 -21.472  0.00  0.00    +0.001 C 
ATOM     15  C   UNL     1      34.200 -19.818 -20.872  0.00  0.00    +0.001 C 
ATOM     16  C   UNL     1      36.377 -18.790 -21.087  0.00  0.00    +0.001 C 
ATOM     17  C   UNL     1      34.691 -20.645 -19.862  0.00  0.00    +0.011 C 
ATOM     18  C   UNL     1      36.867 -19.618 -20.077  0.00  0.00    +0.011 C 
ATOM     19  C   UNL     1      36.024 -20.545 -19.464  0.00  0.00    +0.058 C 
ENDBRANCH  12  14
ENDBRANCH   8  11
ENDBRANCH   2   8
BRANCH   1  20
ATOM     20  C   UNL     1      32.203 -11.630 -21.591  0.00  0.00    -0.077 C 
BRANCH  20  22
ATOM     21  N   UNL     1      32.384  -7.361 -22.132  0.00  0.00    -0.307 N 
ATOM     22  C   UNL     1      32.711 -10.191 -21.618  0.00  0.00    -0.017 C 
ATOM     23  C   UNL     1      31.869  -9.299 -20.700  0.00  0.00    +0.019 C 
ATOM     24  C   UNL     1      32.684  -9.629 -23.042  0.00  0.00    +0.019 C 
ATOM     25  C   UNL     1      32.342  -7.846 -20.745  0.00  0.00    +0.091 C 
ATOM     26  C   UNL     1      33.150  -8.173 -23.082  0.00  0.00    +0.091 C 
BRANCH  21  28
ATOM     27  N   UNL     1      32.067  -3.196 -22.741  0.00  0.00    -0.242 NA
ATOM     28  C   UNL     1      32.279  -5.979 -22.334  0.00  0.00    +0.051 C 
ATOM     29  C   UNL     1      31.805  -5.133 -21.319  0.00  0.00    +0.035 C 
ATOM     30  C   UNL     1      32.644  -5.397 -23.558  0.00  0.00    +0.035 C 
ATOM     31  C   UNL     1      31.720  -3.773 -21.569  0.00  0.00    +0.100 C 
ATOM     32  C   UNL     1      32.521  -4.026 -23.708  0.00  0.00    +0.100 C 
ENDBRANCH  21  28
ENDBRANCH  20  22
ENDBRANCH   1  20
TORSDOF 6
ENDMDL
MODEL 6
REMARK VINA RESULT:     -10.8      3.586      5.964
REMARK  Name = 446346
REMARK  6 active torsions:
REMARK  status: ('A' for Active; 'I' for Inactive)
REMARK    1  A    between atoms: N_1  and  C_20
REMARK    2  A    between atoms: N_2  and  S_8
REMARK    3  A    between atoms: S_8  and  C_11
REMARK    4  A    between atoms: C_12  and  C_14
REMARK    5  A    between atoms: C_20  and  C_22
REMARK    6  A    between atoms: N_21  and  C_28
REMARK                            x       y       z     vdW  Elec       q    Type
REMARK                         _______ _______ _______ _____ _____    ______ ____
ROOT
ATOM      1  N   UNL     1      34.044 -14.448 -23.861  0.00  0.00    +0.389 N 
ATOM      2  N   UNL     1      34.783 -17.048 -22.882  0.00  0.00    -0.160 NA
ATOM      3  C   UNL     1      34.174 -14.704 -22.420  0.00  0.00    -0.058 C 
ATOM      4  C   UNL     1      33.629 -15.667 -24.567  0.00  0.00    -0.058 C 
ATOM      5  C   UNL     1      35.191 -15.812 -22.154  0.00  0.00    +0.073 C 
ATOM      6  C   UNL     1      34.635 -16.795 -24.344  0.00  0.00    +0.073 C 
ATOM      7  H   UNL     1      34.956 -14.163 -24.220  0.00  0.00    -0.080 HD
ENDROOT
BRANCH   2   8
ATOM      8  S   UNL     1      35.643 -18.468 -22.463  0.00  0.00    +0.064 S 
ATOM      9  O   UNL     1      36.926 -18.063 -21.915  0.00  0.00    -0.153 OA
ATOM     10  O   UNL     1      35.596 -19.368 -23.602  0.00  0.00    -0.153 OA
BRANCH   8  11
ATOM     11  C   UNL     1      34.708 -19.169 -21.185  0.00  0.00    +0.141 C 
ATOM     12  C   UNL     1      35.170 -20.303 -20.643  0.00  0.00    +0.021 C 
BRANCH  12  14
ATOM     13 CL   UNL     1      32.521 -23.267 -16.195  0.00  0.00    -0.082 Cl
ATOM     14  C   UNL     1      34.516 -21.034 -19.544  0.00  0.00    +0.001 C 
ATOM     15  C   UNL     1      35.291 -21.772 -18.664  0.00  0.00    +0.001 C 
ATOM     16  C   UNL     1      33.137 -20.971 -19.411  0.00  0.00    +0.001 C 
ATOM     17  C   UNL     1      34.671 -22.466 -17.624  0.00  0.00    +0.011 C 
ATOM     18  C   UNL     1      32.519 -21.664 -18.371  0.00  0.00    +0.011 C 
ATOM     19  C   UNL     1      33.286 -22.412 -17.477  0.00  0.00    +0.058 C 
ENDBRANCH  12  14
ENDBRANCH   8  11
ENDBRANCH   2   8
BRANCH   1  20
ATOM     20  C   UNL     1      33.096 -13.363 -24.107  0.00  0.00    -0.077 C 
BRANCH  20  22
ATOM     21  N   UNL     1      33.170  -9.290 -22.705  0.00  0.00    -0.307 N 
ATOM     22  C   UNL     1      33.496 -12.090 -23.364  0.00  0.00    -0.017 C 
ATOM     23  C   UNL     1      32.356 -11.603 -22.464  0.00  0.00    +0.019 C 
ATOM     24  C   UNL     1      33.879 -10.981 -24.348  0.00  0.00    +0.019 C 
ATOM     25  C   UNL     1      32.728 -10.309 -21.742  0.00  0.00    +0.091 C 
ATOM     26  C   UNL     1      34.243  -9.685 -23.623  0.00  0.00    +0.091 C 
BRANCH  21  28
ATOM     27  N   UNL     1      32.800  -5.245 -21.559  0.00  0.00    -0.242 NA
ATOM     28  C   UNL     1      33.048  -7.949 -22.325  0.00  0.00    +0.051 C 
ATOM     29  C   UNL     1      32.681  -7.597 -21.016  0.00  0.00    +0.035 C 
ATOM     30  C   UNL     1      33.287  -6.912 -23.240  0.00  0.00    +0.035 C 
ATOM     31  C   UNL     1      32.573  -6.255 -20.690  0.00  0.00    +0.100 C 
ATOM     32  C   UNL     1      33.152  -5.601 -22.815  0.00  0.00    +0.100 C 
ENDBRANCH  21  28
ENDBRANCH  20  22
ENDBRANCH   1  20
TORSDOF 6
ENDMDL
MODEL 7
REMARK VINA RESULT:     -10.8      4.404     11.256
REMARK  Name = 446346
REMARK  6 active torsions:
REMARK  status: ('A' for Active; 'I' for Inactive)
REMARK    1  A    between atoms: N_1  and  C_20
REMARK    2  A    between atoms: N_2  and  S_8
REMARK    3  A    between atoms: S_8  and  C_11
REMARK    4  A    between atoms: C_12  and  C_14
REMARK    5  A    between atoms: C_20  and  C_22
REMARK    6  A    between atoms: N_21  and  C_28
REMARK                            x       y       z     vdW  Elec       q    Type
REMARK                         _______ _______ _______ _____ _____    ______ ____
ROOT
ATOM      1  N   UNL     1      34.452 -21.227 -18.845  0.00  0.00    +0.389 N 
ATOM      2  N   UNL     1      35.585 -19.648 -20.964  0.00  0.00    -0.160 NA
ATOM      3  C   UNL     1      35.821 -21.472 -19.322  0.00  0.00    -0.058 C 
ATOM      4  C   UNL     1      33.612 -20.707 -19.932  0.00  0.00    -0.058 C 
ATOM      5  C   UNL     1      36.443 -20.190 -19.871  0.00  0.00    +0.073 C 
ATOM      6  C   UNL     1      34.191 -19.410 -20.494  0.00  0.00    +0.073 C 
ATOM      7  H   UNL     1      34.491 -20.526 -18.105  0.00  0.00    -0.080 HD
ENDROOT
BRANCH   2   8
ATOM      8  S   UNL     1      36.278 -18.384 -21.888  0.00  0.00    +0.064 S 
ATOM      9  O   UNL     1      35.998 -18.654 -23.288  0.00  0.00    -0.153 OA
ATOM     10  O   UNL     1      37.651 -18.212 -21.446  0.00  0.00    -0.153 OA
BRANCH   8  11
ATOM     11  C   UNL     1      35.383 -16.978 -21.421  0.00  0.00    +0.141 C 
ATOM     12  C   UNL     1      35.131 -16.071 -22.373  0.00  0.00    +0.021 C 
BRANCH  12  14
ATOM     13 CL   UNL     1      32.086 -11.011 -21.529  0.00  0.00    -0.082 Cl
ATOM     14  C   UNL     1      34.379 -14.822 -22.165  0.00  0.00    +0.001 C 
ATOM     15  C   UNL     1      34.014 -14.057 -23.262  0.00  0.00    +0.001 C 
ATOM     16  C   UNL     1      34.050 -14.434 -20.876  0.00  0.00    +0.001 C 
ATOM     17  C   UNL     1      33.303 -12.874 -23.064  0.00  0.00    +0.011 C 
ATOM     18  C   UNL     1      33.338 -13.250 -20.679  0.00  0.00    +0.011 C 
ATOM     19  C   UNL     1      32.964 -12.471 -21.773  0.00  0.00    +0.058 C 
ENDBRANCH  12  14
ENDBRANCH   8  11
ENDBRANCH   2   8
BRANCH   1  20
ATOM     20  C   UNL     1      33.875 -22.450 -18.289  0.00  0.00    -0.077 C 
BRANCH  20  22
ATOM     21  N   UNL     1      35.147 -23.864 -14.424  0.00  0.00    -0.307 N 
ATOM     22  C   UNL     1      34.110 -22.545 -16.783  0.00  0.00    -0.017 C 
ATOM     23  C   UNL     1      35.609 -22.565 -16.466  0.00  0.00    +0.019 C 
ATOM     24  C   UNL     1      33.449 -23.800 -16.206  0.00  0.00    +0.019 C 
ATOM     25  C   UNL     1      35.860 -22.699 -14.965  0.00  0.00    +0.091 C 
ATOM     26  C   UNL     1      33.709 -23.935 -14.705  0.00  0.00    +0.091 C 
BRANCH  21  28
ATOM     27  N   UNL     1      36.659 -25.595 -10.883  0.00  0.00    -0.242 NA
ATOM     28  C   UNL     1      35.648 -24.438 -13.249  0.00  0.00    +0.051 C 
ATOM     29  C   UNL     1      35.165 -24.050 -11.990  0.00  0.00    +0.035 C 
ATOM     30  C   UNL     1      36.650 -25.420 -13.294  0.00  0.00    +0.035 C 
ATOM     31  C   UNL     1      35.693 -24.648 -10.858  0.00  0.00    +0.100 C 
ATOM     32  C   UNL     1      37.113 -25.956 -12.104  0.00  0.00    +0.100 C 
ENDBRANCH  21  28
ENDBRANCH  20  22
ENDBRANCH   1  20
TORSDOF 6
ENDMDL
MODEL 8
REMARK VINA RESULT:     -10.3      3.723      4.602
REMARK  Name = 446346
REMARK  6 active torsions:
REMARK  status: ('A' for Active; 'I' for Inactive)
REMARK    1  A    between atoms: N_1  and  C_20
REMARK    2  A    between atoms: N_2  and  S_8
REMARK    3  A    between atoms: S_8  and  C_11
REMARK    4  A    between atoms: C_12  and  C_14
REMARK    5  A    between atoms: C_20  and  C_22
REMARK    6  A    between atoms: N_21  and  C_28
REMARK                            x       y       z     vdW  Elec       q    Type
REMARK                         _______ _______ _______ _____ _____    ______ ____
ROOT
ATOM      1  N   UNL     1      35.502 -19.776 -19.855  0.00  0.00    +0.389 N 
ATOM      2  N   UNL     1      34.494 -22.130 -18.546  0.00  0.00    -0.160 NA
ATOM      3  C   UNL     1      34.192 -20.339 -20.214  0.00  0.00    -0.058 C 
ATOM      4  C   UNL     1      36.411 -20.836 -19.399  0.00  0.00    -0.058 C 
ATOM      5  C   UNL     1      33.567 -21.064 -19.024  0.00  0.00    +0.073 C 
ATOM      6  C   UNL     1      35.830 -21.570 -18.193  0.00  0.00    +0.073 C 
ATOM      7  H   UNL     1      35.368 -19.115 -19.089  0.00  0.00    -0.080 HD
ENDROOT
BRANCH   2   8
ATOM      8  S   UNL     1      33.832 -23.229 -17.413  0.00  0.00    +0.064 S 
ATOM      9  O   UNL     1      34.568 -23.081 -16.170  0.00  0.00    -0.153 OA
ATOM     10  O   UNL     1      33.749 -24.530 -18.053  0.00  0.00    -0.153 OA
BRANCH   8  11
ATOM     11  C   UNL     1      32.220 -22.653 -17.156  0.00  0.00    +0.141 C 
ATOM     12  C   UNL     1      31.454 -23.343 -16.301  0.00  0.00    +0.021 C 
BRANCH  12  14
ATOM     13 CL   UNL     1      25.829 -21.952 -14.885  0.00  0.00    -0.082 Cl
ATOM     14  C   UNL     1      30.065 -22.999 -15.951  0.00  0.00    +0.001 C 
ATOM     15  C   UNL     1      29.783 -22.517 -14.683  0.00  0.00    +0.001 C 
ATOM     16  C   UNL     1      29.065 -23.165 -16.897  0.00  0.00    +0.001 C 
ATOM     17  C   UNL     1      28.468 -22.193 -14.352  0.00  0.00    +0.011 C 
ATOM     18  C   UNL     1      27.750 -22.839 -16.566  0.00  0.00    +0.011 C 
ATOM     19  C   UNL     1      27.452 -22.353 -15.293  0.00  0.00    +0.058 C 
ENDBRANCH  12  14
ENDBRANCH   8  11
ENDBRANCH   2   8
BRANCH   1  20
ATOM     20  C   UNL     1      36.079 -19.054 -20.988  0.00  0.00    -0.077 C 
BRANCH  20  22
ATOM     21  N   UNL     1      34.556 -15.506 -22.897  0.00  0.00    -0.307 N 
ATOM     22  C   UNL     1      35.125 -17.986 -21.515  0.00  0.00    -0.017 C 
ATOM     23  C   UNL     1      35.222 -17.874 -23.040  0.00  0.00    +0.019 C 
ATOM     24  C   UNL     1      35.427 -16.624 -20.883  0.00  0.00    +0.019 C 
ATOM     25  C   UNL     1      34.300 -16.782 -23.580  0.00  0.00    +0.091 C 
ATOM     26  C   UNL     1      34.508 -15.532 -21.432  0.00  0.00    +0.091 C 
BRANCH  21  28
ATOM     27  N   UNL     1      33.526 -11.963 -24.947  0.00  0.00    -0.242 NA
ATOM     28  C   UNL     1      34.215 -14.331 -23.577  0.00  0.00    +0.051 C 
ATOM     29  C   UNL     1      34.358 -13.074 -22.968  0.00  0.00    +0.035 C 
ATOM     30  C   UNL     1      33.718 -14.372 -24.889  0.00  0.00    +0.035 C 
ATOM     31  C   UNL     1      34.006 -11.941 -23.683  0.00  0.00    +0.100 C 
ATOM     32  C   UNL     1      33.395 -13.181 -25.518  0.00  0.00    +0.100 C 
ENDBRANCH  21  28
ENDBRANCH  20  22
ENDBRANCH   1  20
TORSDOF 6
ENDMDL
MODEL 9
REMARK VINA RESULT:     -10.2      6.745     12.898
REMARK  Name = 446346
REMARK  6 active torsions:
REMARK  status: ('A' for Active; 'I' for Inactive)
REMARK    1  A    between atoms: N_1  and  C_20
REMARK    2  A    between atoms: N_2  and  S_8
REMARK    3  A    between atoms: S_8  and  C_11
REMARK    4  A    between atoms: C_12  and  C_14
REMARK    5  A    between atoms: C_20  and  C_22
REMARK    6  A    between atoms: N_21  and  C_28
REMARK                            x       y       z     vdW  Elec       q    Type
REMARK                         _______ _______ _______ _____ _____    ______ ____
ROOT
ATOM      1  N   UNL     1      34.187 -13.650 -22.816  0.00  0.00    +0.389 N 
ATOM      2  N   UNL     1      32.334 -11.713 -21.775  0.00  0.00    -0.160 NA
ATOM      3  C   UNL     1      33.913 -12.400 -23.539  0.00  0.00    -0.058 C 
ATOM      4  C   UNL     1      33.008 -14.069 -22.046  0.00  0.00    -0.058 C 
ATOM      5  C   UNL     1      33.520 -11.286 -22.571  0.00  0.00    +0.073 C 
ATOM      6  C   UNL     1      32.596 -12.988 -21.049  0.00  0.00    +0.073 C 
ATOM      7  H   UNL     1      34.954 -13.483 -22.164  0.00  0.00    -0.080 HD
ENDROOT
BRANCH   2   8
ATOM      8  S   UNL     1      31.581 -10.482 -20.855  0.00  0.00    +0.064 S 
ATOM      9  O   UNL     1      32.322 -10.342 -19.613  0.00  0.00    -0.153 OA
ATOM     10  O   UNL     1      30.156 -10.761 -20.819  0.00  0.00    -0.153 OA
BRANCH   8  11
ATOM     11  C   UNL     1      31.824  -9.045 -21.790  0.00  0.00    +0.141 C 
ATOM     12  C   UNL     1      31.598  -7.874 -21.180  0.00  0.00    +0.021 C 
BRANCH  12  14
ATOM     13 CL   UNL     1      32.257  -2.524 -23.734  0.00  0.00    -0.082 Cl
ATOM     14  C   UNL     1      31.761  -6.554 -21.812  0.00  0.00    +0.001 C 
ATOM     15  C   UNL     1      32.773  -6.364 -22.739  0.00  0.00    +0.001 C 
ATOM     16  C   UNL     1      30.898  -5.525 -21.466  0.00  0.00    +0.001 C 
ATOM     17  C   UNL     1      32.927  -5.112 -23.335  0.00  0.00    +0.011 C 
ATOM     18  C   UNL     1      31.053  -4.274 -22.063  0.00  0.00    +0.011 C 
ATOM     19  C   UNL     1      32.067  -4.068 -22.998  0.00  0.00    +0.058 C 
ENDBRANCH  12  14
ENDBRANCH   8  11
ENDBRANCH   2   8
BRANCH   1  20
ATOM     20  C   UNL     1      34.596 -14.703 -23.744  0.00  0.00    -0.077 C 
BRANCH  20  22
ATOM     21  N   UNL     1      34.999 -18.246 -21.328  0.00  0.00    -0.307 N 
ATOM     22  C   UNL     1      35.199 -15.896 -23.008  0.00  0.00    -0.017 C 
ATOM     23  C   UNL     1      34.612 -17.212 -23.531  0.00  0.00    +0.019 C 
ATOM     24  C   UNL     1      34.950 -15.790 -21.500  0.00  0.00    +0.019 C 
ATOM     25  C   UNL     1      35.178 -18.414 -22.776  0.00  0.00    +0.091 C 
ATOM     26  C   UNL     1      35.510 -16.999 -20.750  0.00  0.00    +0.091 C 
BRANCH  21  28
ATOM     27  N   UNL     1      34.893 -21.740 -18.963  0.00  0.00    -0.242 NA
ATOM     28  C   UNL     1      34.964 -19.405 -20.544  0.00  0.00    +0.051 C 
ATOM     29  C   UNL     1      33.744 -20.007 -20.196  0.00  0.00    +0.035 C 
ATOM     30  C   UNL     1      36.146 -20.001 -20.079  0.00  0.00    +0.035 C 
ATOM     31  C   UNL     1      33.763 -21.153 -19.418  0.00  0.00    +0.100 C 
ATOM     32  C   UNL     1      36.058 -21.147 -19.307  0.00  0.00    +0.100 C 
ENDBRANCH  21  28
ENDBRANCH  20  22
ENDBRANCH   1  20
TORSDOF 6
ENDMDL
