MODEL 1
REMARK VINA RESULT:     -11.4      0.000      0.000
REMARK  Name = 4261
REMARK  8 active torsions:
REMARK  status: ('A' for Active; 'I' for Inactive)
REMARK    1  A    between atoms: C_1  and  C_20
REMARK    2  A    between atoms: C_2  and  C_9
REMARK    3  A    between atoms: N_8  and  C_11
REMARK    4  A    between atoms: C_12  and  N_17
REMARK    5  A    between atoms: C_20  and  N_22
REMARK    6  A    between atoms: C_23  and  O_25
REMARK    7  A    between atoms: O_25  and  C_26
REMARK    8  A    between atoms: C_26  and  C_28
REMARK                            x       y       z     vdW  Elec       q    Type
REMARK                         _______ _______ _______ _____ _____    ______ ____
ROOT
ATOM      1  C   UNL     1      35.308 -19.980 -20.294  0.00  0.00    -0.002 C 
ATOM      2  C   UNL     1      33.959 -21.819 -18.702  0.00  0.00    +0.054 C 
ATOM      3  C   UNL     1      36.030 -20.873 -19.510  0.00  0.00    -0.002 C 
ATOM      4  C   UNL     1      33.917 -19.997 -20.289  0.00  0.00    -0.002 C 
ATOM      5  C   UNL     1      35.354 -21.795 -18.712  0.00  0.00    +0.004 C 
ATOM      6  C   UNL     1      33.241 -20.919 -19.492  0.00  0.00    +0.004 C 
ENDROOT
BRANCH   2   9
ATOM      7  O   UNL     1      33.573 -23.977 -17.927  0.00  0.00    -0.270 OA
ATOM      8  N   UNL     1      32.262 -22.249 -17.030  0.00  0.00    -0.279 N 
ATOM      9  C   UNL     1      33.254 -22.779 -17.869  0.00  0.00    +0.250 C 
ATOM     10  H   UNL     1      32.121 -21.277 -17.096  0.00  0.00    +0.155 HD
BRANCH   8  11
ATOM     11  C   UNL     1      31.438 -22.930 -16.102  0.00  0.00    +0.064 C 
ATOM     12  C   UNL     1      31.995 -23.559 -15.001  0.00  0.00    +0.055 C 
ATOM     13  C   UNL     1      30.070 -22.947 -16.325  0.00  0.00    +0.016 C 
ATOM     14  C   UNL     1      31.162 -24.224 -14.099  0.00  0.00    +0.015 C 
ATOM     15  C   UNL     1      29.238 -23.611 -15.425  0.00  0.00    +0.001 C 
ATOM     16  C   UNL     1      29.784 -24.250 -14.312  0.00  0.00    +0.001 C 
BRANCH  12  17
ATOM     17  N   UNL     1      33.388 -23.546 -14.765  0.00  0.00    -0.356 N 
ATOM     18  H   UNL     1      33.887 -22.698 -14.816  0.00  0.00    +0.142 HD
ATOM     19  H   UNL     1      33.860 -24.382 -14.551  0.00  0.00    +0.142 HD
ENDBRANCH  12  17
ENDBRANCH   8  11
ENDBRANCH   2   9
BRANCH   1  20
ATOM     20  C   UNL     1      36.036 -18.989 -21.154  0.00  0.00    +0.119 C 
BRANCH  20  22
ATOM     21  O   UNL     1      35.406 -16.995 -23.170  0.00  0.00    -0.226 OA
ATOM     22  N   UNL     1      35.557 -17.641 -20.947  0.00  0.00    -0.267 N 
ATOM     23  C   UNL     1      35.284 -16.761 -21.973  0.00  0.00    +0.402 C 
ATOM     24  H   UNL     1      35.418 -17.334 -20.022  0.00  0.00    +0.153 HD
BRANCH  23  25
ATOM     25  O   UNL     1      34.851 -15.572 -21.456  0.00  0.00    -0.430 OA
BRANCH  25  26
ATOM     26  C   UNL     1      34.668 -14.510 -22.400  0.00  0.00    +0.238 C 
BRANCH  26  28
ATOM     27  N   UNL     1      32.486 -11.453 -22.096  0.00  0.00    -0.243 NA
ATOM     28  C   UNL     1      33.675 -13.529 -21.847  0.00  0.00    +0.040 C 
ATOM     29  C   UNL     1      33.051 -13.767 -20.635  0.00  0.00    +0.002 C 
ATOM     30  C   UNL     1      33.369 -12.376 -22.537  0.00  0.00    +0.098 C 
ATOM     31  C   UNL     1      32.136 -12.841 -20.149  0.00  0.00    +0.020 C 
ATOM     32  C   UNL     1      31.890 -11.710 -20.910  0.00  0.00    +0.099 C 
ENDBRANCH  26  28
ENDBRANCH  25  26
ENDBRANCH  23  25
ENDBRANCH  20  22
ENDBRANCH   1  20
TORSDOF 8
ENDMDL
MODEL 2
REMARK VINA RESULT:     -11.3      0.646      1.323
REMARK  Name = 4261
REMARK  8 active torsions:
REMARK  status: ('A' for Active; 'I' for Inactive)
REMARK    1  A    between atoms: C_1  and  C_20
REMARK    2  A    between atoms: C_2  and  C_9
REMARK    3  A    between atoms: N_8  and  C_11
REMARK    4  A    between atoms: C_12  and  N_17
REMARK    5  A    between atoms: C_20  and  N_22
REMARK    6  A    between atoms: C_23  and  O_25
REMARK    7  A    between atoms: O_25  and  C_26
REMARK    8  A    between atoms: C_26  and  C_28
REMARK                            x       y       z     vdW  Elec       q    Type
REMARK                         _______ _______ _______ _____ _____    ______ ____
ROOT
ATOM      1  C   UNL     1      35.379 -20.033 -20.214  0.00  0.00    -0.002 C 
ATOM      2  C   UNL     1      34.162 -21.942 -18.599  0.00  0.00    +0.054 C 
ATOM      3  C   UNL     1      36.164 -20.879 -19.437  0.00  0.00    -0.002 C 
ATOM      4  C   UNL     1      33.992 -20.133 -20.192  0.00  0.00    -0.002 C 
ATOM      5  C   UNL     1      35.553 -21.836 -18.627  0.00  0.00    +0.004 C 
ATOM      6  C   UNL     1      33.382 -21.090 -19.382  0.00  0.00    +0.004 C 
ENDROOT
BRANCH   2   9
ATOM      7  O   UNL     1      33.557 -24.131 -18.099  0.00  0.00    -0.270 OA
ATOM      8  N   UNL     1      32.938 -22.457 -16.575  0.00  0.00    -0.279 N 
ATOM      9  C   UNL     1      33.527 -22.939 -17.754  0.00  0.00    +0.250 C 
ATOM     10  H   UNL     1      32.994 -21.484 -16.437  0.00  0.00    +0.155 HD
BRANCH   8  11
ATOM     11  C   UNL     1      32.276 -23.186 -15.558  0.00  0.00    +0.064 C 
ATOM     12  C   UNL     1      30.894 -23.277 -15.549  0.00  0.00    +0.055 C 
ATOM     13  C   UNL     1      33.045 -23.801 -14.582  0.00  0.00    +0.016 C 
ATOM     14  C   UNL     1      30.264 -24.002 -14.536  0.00  0.00    +0.015 C 
ATOM     15  C   UNL     1      32.415 -24.525 -13.571  0.00  0.00    +0.001 C 
ATOM     16  C   UNL     1      31.024 -24.625 -13.547  0.00  0.00    +0.001 C 
BRANCH  12  17
ATOM     17  N   UNL     1      30.103 -22.654 -16.540  0.00  0.00    -0.356 N 
ATOM     18  H   UNL     1      29.661 -23.200 -17.230  0.00  0.00    +0.142 HD
ATOM     19  H   UNL     1      29.995 -21.677 -16.541  0.00  0.00    +0.142 HD
ENDBRANCH  12  17
ENDBRANCH   8  11
ENDBRANCH   2   9
BRANCH   1  20
ATOM     20  C   UNL     1      36.036 -19.004 -21.087  0.00  0.00    +0.119 C 
BRANCH  20  22
ATOM     21  O   UNL     1      35.555 -16.936 -23.068  0.00  0.00    -0.226 OA
ATOM     22  N   UNL     1      35.485 -17.685 -20.875  0.00  0.00    -0.267 N 
ATOM     23  C   UNL     1      35.292 -16.765 -21.883  0.00  0.00    +0.402 C 
ATOM     24  H   UNL     1      35.233 -17.429 -19.958  0.00  0.00    +0.153 HD
BRANCH  23  25
ATOM     25  O   UNL     1      34.758 -15.619 -21.365  0.00  0.00    -0.430 OA
BRANCH  25  26
ATOM     26  C   UNL     1      34.669 -14.508 -22.265  0.00  0.00    +0.238 C 
BRANCH  26  28
ATOM     27  N   UNL     1      32.447 -11.474 -22.035  0.00  0.00    -0.243 NA
ATOM     28  C   UNL     1      33.648 -13.539 -21.746  0.00  0.00    +0.040 C 
ATOM     29  C   UNL     1      32.984 -13.784 -20.557  0.00  0.00    +0.002 C 
ATOM     30  C   UNL     1      33.354 -12.388 -22.446  0.00  0.00    +0.098 C 
ATOM     31  C   UNL     1      32.044 -12.868 -20.102  0.00  0.00    +0.020 C 
ATOM     32  C   UNL     1      31.813 -11.738 -20.871  0.00  0.00    +0.099 C 
ENDBRANCH  26  28
ENDBRANCH  25  26
ENDBRANCH  23  25
ENDBRANCH  20  22
ENDBRANCH   1  20
TORSDOF 8
ENDMDL
MODEL 3
REMARK VINA RESULT:     -11.3      1.607      2.102
REMARK  Name = 4261
REMARK  8 active torsions:
REMARK  status: ('A' for Active; 'I' for Inactive)
REMARK    1  A    between atoms: C_1  and  C_20
REMARK    2  A    between atoms: C_2  and  C_9
REMARK    3  A    between atoms: N_8  and  C_11
REMARK    4  A    between atoms: C_12  and  N_17
REMARK    5  A    between atoms: C_20  and  N_22
REMARK    6  A    between atoms: C_23  and  O_25
REMARK    7  A    between atoms: O_25  and  C_26
REMARK    8  A    between atoms: C_26  and  C_28
REMARK                            x       y       z     vdW  Elec       q    Type
REMARK                         _______ _______ _______ _____ _____    ______ ____
ROOT
ATOM      1  C   UNL     1      35.159 -20.078 -20.241  0.00  0.00    -0.002 C 
ATOM      2  C   UNL     1      33.853 -21.901 -18.596  0.00  0.00    +0.054 C 
ATOM      3  C   UNL     1      35.902 -20.981 -19.488  0.00  0.00    -0.002 C 
ATOM      4  C   UNL     1      33.770 -20.078 -20.180  0.00  0.00    -0.002 C 
ATOM      5  C   UNL     1      35.247 -21.895 -18.663  0.00  0.00    +0.004 C 
ATOM      6  C   UNL     1      33.115 -20.992 -19.355  0.00  0.00    +0.004 C 
ENDROOT
BRANCH   2   9
ATOM      7  O   UNL     1      33.520 -24.044 -17.757  0.00  0.00    -0.270 OA
ATOM      8  N   UNL     1      32.165 -22.323 -16.913  0.00  0.00    -0.279 N 
ATOM      9  C   UNL     1      33.171 -22.852 -17.735  0.00  0.00    +0.250 C 
ATOM     10  H   UNL     1      32.001 -21.357 -17.008  0.00  0.00    +0.155 HD
BRANCH   8  11
ATOM     11  C   UNL     1      31.356 -22.995 -15.965  0.00  0.00    +0.064 C 
ATOM     12  C   UNL     1      31.929 -23.593 -14.854  0.00  0.00    +0.055 C 
ATOM     13  C   UNL     1      29.987 -23.036 -16.180  0.00  0.00    +0.016 C 
ATOM     14  C   UNL     1      31.112 -24.250 -13.934  0.00  0.00    +0.015 C 
ATOM     15  C   UNL     1      29.170 -23.693 -15.260  0.00  0.00    +0.001 C 
ATOM     16  C   UNL     1      29.733 -24.300 -14.137  0.00  0.00    +0.001 C 
BRANCH  12  17
ATOM     17  N   UNL     1      33.324 -23.554 -14.629  0.00  0.00    -0.356 N 
ATOM     18  H   UNL     1      33.945 -23.570 -15.391  0.00  0.00    +0.142 HD
ATOM     19  H   UNL     1      33.672 -23.511 -13.710  0.00  0.00    +0.142 HD
ENDBRANCH  12  17
ENDBRANCH   8  11
ENDBRANCH   2   9
BRANCH   1  20
ATOM     20  C   UNL     1      35.864 -19.096 -21.130  0.00  0.00    +0.119 C 
BRANCH  20  22
ATOM     21  O   UNL     1      34.968 -19.823 -23.796  0.00  0.00    -0.226 OA
ATOM     22  N   UNL     1      34.941 -18.379 -21.981  0.00  0.00    -0.267 N 
ATOM     23  C   UNL     1      34.573 -18.804 -23.239  0.00  0.00    +0.402 C 
ATOM     24  H   UNL     1      34.554 -17.539 -21.642  0.00  0.00    +0.153 HD
BRANCH  23  25
ATOM     25  O   UNL     1      33.692 -17.914 -23.787  0.00  0.00    -0.430 OA
BRANCH  25  26
ATOM     26  C   UNL     1      34.237 -17.010 -24.756  0.00  0.00    +0.238 C 
BRANCH  26  28
ATOM     27  N   UNL     1      34.825 -13.962 -22.620  0.00  0.00    -0.243 NA
ATOM     28  C   UNL     1      34.131 -15.608 -24.231  0.00  0.00    +0.040 C 
ATOM     29  C   UNL     1      33.285 -14.694 -24.834  0.00  0.00    +0.002 C 
ATOM     30  C   UNL     1      34.874 -15.208 -23.142  0.00  0.00    +0.098 C 
ATOM     31  C   UNL     1      33.207 -13.403 -24.326  0.00  0.00    +0.020 C 
ATOM     32  C   UNL     1      33.991 -13.089 -23.227  0.00  0.00    +0.099 C 
ENDBRANCH  26  28
ENDBRANCH  25  26
ENDBRANCH  23  25
ENDBRANCH  20  22
ENDBRANCH   1  20
TORSDOF 8
ENDMDL
MODEL 4
REMARK VINA RESULT:     -11.2      3.169      5.385
REMARK  Name = 4261
REMARK  8 active torsions:
REMARK  status: ('A' for Active; 'I' for Inactive)
REMARK    1  A    between atoms: C_1  and  C_20
REMARK    2  A    between atoms: C_2  and  C_9
REMARK    3  A    between atoms: N_8  and  C_11
REMARK    4  A    between atoms: C_12  and  N_17
REMARK    5  A    between atoms: C_20  and  N_22
REMARK    6  A    between atoms: C_23  and  O_25
REMARK    7  A    between atoms: O_25  and  C_26
REMARK    8  A    between atoms: C_26  and  C_28
REMARK                            x       y       z     vdW  Elec       q    Type
REMARK                         _______ _______ _______ _____ _____    ______ ____
ROOT
ATOM      1  C   UNL     1      34.281 -16.008 -24.380  0.00  0.00    -0.002 C 
ATOM      2  C   UNL     1      35.017 -17.539 -22.179  0.00  0.00    +0.054 C 
ATOM      3  C   UNL     1      34.729 -15.379 -23.223  0.00  0.00    -0.002 C 
ATOM      4  C   UNL     1      34.197 -17.394 -24.447  0.00  0.00    -0.002 C 
ATOM      5  C   UNL     1      35.098 -16.148 -22.120  0.00  0.00    +0.004 C 
ATOM      6  C   UNL     1      34.566 -18.162 -23.343  0.00  0.00    +0.004 C 
ENDROOT
BRANCH   2   9
ATOM      7  O   UNL     1      36.293 -17.922 -20.273  0.00  0.00    -0.270 OA
ATOM      8  N   UNL     1      34.691 -19.537 -20.851  0.00  0.00    -0.279 N 
ATOM      9  C   UNL     1      35.400 -18.340 -21.028  0.00  0.00    +0.250 C 
ATOM     10  H   UNL     1      34.010 -19.735 -21.534  0.00  0.00    +0.155 HD
BRANCH   8  11
ATOM     11  C   UNL     1      34.826 -20.497 -19.819  0.00  0.00    +0.064 C 
ATOM     12  C   UNL     1      33.706 -21.118 -19.289  0.00  0.00    +0.055 C 
ATOM     13  C   UNL     1      36.099 -20.795 -19.360  0.00  0.00    +0.016 C 
ATOM     14  C   UNL     1      33.864 -22.060 -18.273  0.00  0.00    +0.015 C 
ATOM     15  C   UNL     1      36.257 -21.737 -18.345  0.00  0.00    +0.001 C 
ATOM     16  C   UNL     1      35.139 -22.370 -17.801  0.00  0.00    +0.001 C 
BRANCH  12  17
ATOM     17  N   UNL     1      32.405 -20.820 -19.753  0.00  0.00    -0.356 N 
ATOM     18  H   UNL     1      31.841 -20.183 -19.258  0.00  0.00    +0.142 HD
ATOM     19  H   UNL     1      32.063 -21.250 -20.569  0.00  0.00    +0.142 HD
ENDBRANCH  12  17
ENDBRANCH   8  11
ENDBRANCH   2   9
BRANCH   1  20
ATOM     20  C   UNL     1      33.885 -15.181 -25.568  0.00  0.00    +0.119 C 
BRANCH  20  22
ATOM     21  O   UNL     1      34.240 -12.718 -27.066  0.00  0.00    -0.226 OA
ATOM     22  N   UNL     1      33.480 -13.847 -25.188  0.00  0.00    -0.267 N 
ATOM     23  C   UNL     1      33.692 -12.731 -25.969  0.00  0.00    +0.402 C 
ATOM     24  H   UNL     1      33.026 -13.729 -24.322  0.00  0.00    +0.153 HD
BRANCH  23  25
ATOM     25  O   UNL     1      33.197 -11.625 -25.336  0.00  0.00    -0.430 OA
BRANCH  25  26
ATOM     26  C   UNL     1      34.000 -11.104 -24.271  0.00  0.00    +0.238 C 
BRANCH  26  28
ATOM     27  N   UNL     1      31.903  -9.663 -21.491  0.00  0.00    -0.243 NA
ATOM     28  C   UNL     1      33.165 -11.019 -23.026  0.00  0.00    +0.040 C 
ATOM     29  C   UNL     1      32.891 -12.154 -22.284  0.00  0.00    +0.002 C 
ATOM     30  C   UNL     1      32.660  -9.809 -22.602  0.00  0.00    +0.098 C 
ATOM     31  C   UNL     1      32.116 -12.045 -21.136  0.00  0.00    +0.020 C 
ATOM     32  C   UNL     1      31.650 -10.788 -20.785  0.00  0.00    +0.099 C 
ENDBRANCH  26  28
ENDBRANCH  25  26
ENDBRANCH  23  25
ENDBRANCH  20  22
ENDBRANCH   1  20
TORSDOF 8
ENDMDL
MODEL 5
REMARK VINA RESULT:     -11.0      2.280      2.827
REMARK  Name = 4261
REMARK  8 active torsions:
REMARK  status: ('A' for Active; 'I' for Inactive)
REMARK    1  A    between atoms: C_1  and  C_20
REMARK    2  A    between atoms: C_2  and  C_9
REMARK    3  A    between atoms: N_8  and  C_11
REMARK    4  A    between atoms: C_12  and  N_17
REMARK    5  A    between atoms: C_20  and  N_22
REMARK    6  A    between atoms: C_23  and  O_25
REMARK    7  A    between atoms: O_25  and  C_26
REMARK    8  A    between atoms: C_26  and  C_28
REMARK                            x       y       z     vdW  Elec       q    Type
REMARK                         _______ _______ _______ _____ _____    ______ ____
ROOT
ATOM      1  C   UNL     1      34.680 -19.974 -20.696  0.00  0.00    -0.002 C 
ATOM      2  C   UNL     1      34.573 -21.723 -18.537  0.00  0.00    +0.054 C 
ATOM      3  C   UNL     1      35.861 -20.439 -20.128  0.00  0.00    -0.002 C 
ATOM      4  C   UNL     1      33.447 -20.376 -20.196  0.00  0.00    -0.002 C 
ATOM      5  C   UNL     1      35.807 -21.316 -19.045  0.00  0.00    +0.004 C 
ATOM      6  C   UNL     1      33.393 -21.253 -19.114  0.00  0.00    +0.004 C 
ENDROOT
BRANCH   2   9
ATOM      7  O   UNL     1      33.736 -23.600 -17.449  0.00  0.00    -0.270 OA
ATOM      8  N   UNL     1      35.394 -22.355 -16.349  0.00  0.00    -0.279 N 
ATOM      9  C   UNL     1      34.517 -22.636 -17.408  0.00  0.00    +0.250 C 
ATOM     10  H   UNL     1      35.955 -21.553 -16.460  0.00  0.00    +0.155 HD
BRANCH   8  11
ATOM     11  C   UNL     1      35.578 -23.073 -15.143  0.00  0.00    +0.064 C 
ATOM     12  C   UNL     1      36.847 -23.471 -14.752  0.00  0.00    +0.055 C 
ATOM     13  C   UNL     1      34.463 -23.362 -14.373  0.00  0.00    +0.016 C 
ATOM     14  C   UNL     1      37.003 -24.178 -13.559  0.00  0.00    +0.015 C 
ATOM     15  C   UNL     1      34.620 -24.068 -13.180  0.00  0.00    +0.001 C 
ATOM     16  C   UNL     1      35.890 -24.476 -12.774  0.00  0.00    +0.001 C 
BRANCH  12  17
ATOM     17  N   UNL     1      37.988 -23.179 -15.531  0.00  0.00    -0.356 N 
ATOM     18  H   UNL     1      38.575 -23.909 -15.836  0.00  0.00    +0.142 HD
ATOM     19  H   UNL     1      38.197 -22.247 -15.769  0.00  0.00    +0.142 HD
ENDBRANCH  12  17
ENDBRANCH   8  11
ENDBRANCH   2   9
BRANCH   1  20
ATOM     20  C   UNL     1      34.738 -19.031 -21.863  0.00  0.00    +0.119 C 
BRANCH  20  22
ATOM     21  O   UNL     1      35.067 -16.689 -23.548  0.00  0.00    -0.226 OA
ATOM     22  N   UNL     1      35.087 -17.689 -21.456  0.00  0.00    -0.267 N 
ATOM     23  C   UNL     1      35.221 -16.635 -22.333  0.00  0.00    +0.402 C 
ATOM     24  H   UNL     1      35.237 -17.519 -20.498  0.00  0.00    +0.153 HD
BRANCH  23  25
ATOM     25  O   UNL     1      35.556 -15.503 -21.644  0.00  0.00    -0.430 OA
BRANCH  25  26
ATOM     26  C   UNL     1      34.694 -15.157 -20.554  0.00  0.00    +0.238 C 
BRANCH  26  28
ATOM     27  N   UNL     1      33.345 -12.252 -22.539  0.00  0.00    -0.243 NA
ATOM     28  C   UNL     1      33.816 -14.013 -20.969  0.00  0.00    +0.040 C 
ATOM     29  C   UNL     1      32.712 -13.663 -20.211  0.00  0.00    +0.002 C 
ATOM     30  C   UNL     1      34.094 -13.293 -22.110  0.00  0.00    +0.098 C 
ATOM     31  C   UNL     1      31.917 -12.599 -20.619  0.00  0.00    +0.020 C 
ATOM     32  C   UNL     1      32.272 -11.931 -21.781  0.00  0.00    +0.099 C 
ENDBRANCH  26  28
ENDBRANCH  25  26
ENDBRANCH  23  25
ENDBRANCH  20  22
ENDBRANCH   1  20
TORSDOF 8
ENDMDL
MODEL 6
REMARK VINA RESULT:     -10.9      3.644      6.163
REMARK  Name = 4261
REMARK  8 active torsions:
REMARK  status: ('A' for Active; 'I' for Inactive)
REMARK    1  A    between atoms: C_1  and  C_20
REMARK    2  A    between atoms: C_2  and  C_9
REMARK    3  A    between atoms: N_8  and  C_11
REMARK    4  A    between atoms: C_12  and  N_17
REMARK    5  A    between atoms: C_20  and  N_22
REMARK    6  A    between atoms: C_23  and  O_25
REMARK    7  A    between atoms: O_25  and  C_26
REMARK    8  A    between atoms: C_26  and  C_28
REMARK                            x       y       z     vdW  Elec       q    Type
REMARK                         _______ _______ _______ _____ _____    ______ ____
ROOT
ATOM      1  C   UNL     1      34.067 -15.089 -24.457  0.00  0.00    -0.002 C 
ATOM      2  C   UNL     1      34.552 -17.532 -23.221  0.00  0.00    +0.054 C 
ATOM      3  C   UNL     1      34.704 -15.121 -23.221  0.00  0.00    -0.002 C 
ATOM      4  C   UNL     1      33.671 -16.267 -25.080  0.00  0.00    -0.002 C 
ATOM      5  C   UNL     1      34.947 -16.346 -22.601  0.00  0.00    +0.004 C 
ATOM      6  C   UNL     1      33.914 -17.492 -24.461  0.00  0.00    +0.004 C 
ENDROOT
BRANCH   2   9
ATOM      7  O   UNL     1      35.166 -19.775 -23.265  0.00  0.00    -0.270 OA
ATOM      8  N   UNL     1      34.636 -18.834 -21.181  0.00  0.00    -0.279 N 
ATOM      9  C   UNL     1      34.804 -18.809 -22.574  0.00  0.00    +0.250 C 
ATOM     10  H   UNL     1      34.345 -17.988 -20.771  0.00  0.00    +0.155 HD
BRANCH   8  11
ATOM     11  C   UNL     1      34.831 -19.915 -20.289  0.00  0.00    +0.064 C 
ATOM     12  C   UNL     1      33.745 -20.613 -19.785  0.00  0.00    +0.055 C 
ATOM     13  C   UNL     1      36.129 -20.252 -19.938  0.00  0.00    +0.016 C 
ATOM     14  C   UNL     1      33.963 -21.675 -18.907  0.00  0.00    +0.015 C 
ATOM     15  C   UNL     1      36.347 -21.314 -19.061  0.00  0.00    +0.001 C 
ATOM     16  C   UNL     1      35.264 -22.026 -18.545  0.00  0.00    +0.001 C 
BRANCH  12  17
ATOM     17  N   UNL     1      32.419 -20.276 -20.139  0.00  0.00    -0.356 N 
ATOM     18  H   UNL     1      31.985 -20.725 -20.900  0.00  0.00    +0.142 HD
ATOM     19  H   UNL     1      31.931 -19.593 -19.625  0.00  0.00    +0.142 HD
ENDBRANCH  12  17
ENDBRANCH   8  11
ENDBRANCH   2   9
BRANCH   1  20
ATOM     20  C   UNL     1      33.807 -13.771 -25.124  0.00  0.00    +0.119 C 
BRANCH  20  22
ATOM     21  O   UNL     1      34.576 -10.972 -25.000  0.00  0.00    -0.226 OA
ATOM     22  N   UNL     1      33.356 -12.769 -24.185  0.00  0.00    -0.267 N 
ATOM     23  C   UNL     1      33.779 -11.457 -24.204  0.00  0.00    +0.402 C 
ATOM     24  H   UNL     1      32.710 -13.039 -23.493  0.00  0.00    +0.153 HD
BRANCH  23  25
ATOM     25  O   UNL     1      33.174 -10.764 -23.194  0.00  0.00    -0.430 OA
BRANCH  25  26
ATOM     26  C   UNL     1      33.284  -9.337 -23.261  0.00  0.00    +0.238 C 
BRANCH  26  28
ATOM     27  N   UNL     1      31.583  -8.928 -19.924  0.00  0.00    -0.243 NA
ATOM     28  C   UNL     1      32.889  -8.752 -21.937  0.00  0.00    +0.040 C 
ATOM     29  C   UNL     1      33.429  -7.553 -21.508  0.00  0.00    +0.002 C 
ATOM     30  C   UNL     1      31.981  -9.400 -21.127  0.00  0.00    +0.098 C 
ATOM     31  C   UNL     1      33.044  -7.035 -20.277  0.00  0.00    +0.020 C 
ATOM     32  C   UNL     1      32.126  -7.755 -19.529  0.00  0.00    +0.099 C 
ENDBRANCH  26  28
ENDBRANCH  25  26
ENDBRANCH  23  25
ENDBRANCH  20  22
ENDBRANCH   1  20
TORSDOF 8
ENDMDL
MODEL 7
REMARK VINA RESULT:     -10.9      3.493     10.771
REMARK  Name = 4261
REMARK  8 active torsions:
REMARK  status: ('A' for Active; 'I' for Inactive)
REMARK    1  A    between atoms: C_1  and  C_20
REMARK    2  A    between atoms: C_2  and  C_9
REMARK    3  A    between atoms: N_8  and  C_11
REMARK    4  A    between atoms: C_12  and  N_17
REMARK    5  A    between atoms: C_20  and  N_22
REMARK    6  A    between atoms: C_23  and  O_25
REMARK    7  A    between atoms: O_25  and  C_26
REMARK    8  A    between atoms: C_26  and  C_28
REMARK                            x       y       z     vdW  Elec       q    Type
REMARK                         _______ _______ _______ _____ _____    ______ ____
ROOT
ATOM      1  C   UNL     1      34.114 -22.285 -18.023  0.00  0.00    -0.002 C 
ATOM      2  C   UNL     1      34.948 -20.403 -19.892  0.00  0.00    +0.054 C 
ATOM      3  C   UNL     1      33.169 -21.607 -18.785  0.00  0.00    -0.002 C 
ATOM      4  C   UNL     1      35.471 -22.032 -18.186  0.00  0.00    -0.002 C 
ATOM      5  C   UNL     1      33.587 -20.664 -19.722  0.00  0.00    +0.004 C 
ATOM      6  C   UNL     1      35.889 -21.089 -19.123  0.00  0.00    +0.004 C 
ENDROOT
BRANCH   2   9
ATOM      7  O   UNL     1      36.590 -19.137 -20.945  0.00  0.00    -0.270 OA
ATOM      8  N   UNL     1      34.377 -18.874 -21.680  0.00  0.00    -0.279 N 
ATOM      9  C   UNL     1      35.383 -19.419 -20.868  0.00  0.00    +0.250 C 
ATOM     10  H   UNL     1      33.464 -19.196 -21.501  0.00  0.00    +0.155 HD
BRANCH   8  11
ATOM     11  C   UNL     1      34.502 -17.924 -22.721  0.00  0.00    +0.064 C 
ATOM     12  C   UNL     1      34.960 -16.644 -22.451  0.00  0.00    +0.055 C 
ATOM     13  C   UNL     1      34.157 -18.309 -24.008  0.00  0.00    +0.016 C 
ATOM     14  C   UNL     1      35.075 -15.725 -23.495  0.00  0.00    +0.015 C 
ATOM     15  C   UNL     1      34.273 -17.390 -25.051  0.00  0.00    +0.001 C 
ATOM     16  C   UNL     1      34.731 -16.098 -24.794  0.00  0.00    +0.001 C 
BRANCH  12  17
ATOM     17  N   UNL     1      35.314 -16.245 -21.143  0.00  0.00    -0.356 N 
ATOM     18  H   UNL     1      35.611 -16.917 -20.488  0.00  0.00    +0.142 HD
ATOM     19  H   UNL     1      35.265 -15.296 -20.888  0.00  0.00    +0.142 HD
ENDBRANCH  12  17
ENDBRANCH   8  11
ENDBRANCH   2   9
BRANCH   1  20
ATOM     20  C   UNL     1      33.664 -23.302 -17.015  0.00  0.00    +0.119 C 
BRANCH  20  22
ATOM     21  O   UNL     1      32.780 -23.243 -14.248  0.00  0.00    -0.226 OA
ATOM     22  N   UNL     1      34.482 -23.281 -15.823  0.00  0.00    -0.267 N 
ATOM     23  C   UNL     1      33.970 -23.253 -14.544  0.00  0.00    +0.402 C 
ATOM     24  H   UNL     1      35.461 -23.286 -15.932  0.00  0.00    +0.153 HD
BRANCH  23  25
ATOM     25  O   UNL     1      34.993 -23.238 -13.639  0.00  0.00    -0.430 OA
BRANCH  25  26
ATOM     26  C   UNL     1      35.208 -24.458 -12.918  0.00  0.00    +0.238 C 
BRANCH  26  28
ATOM     27  N   UNL     1      37.873 -26.495 -14.633  0.00  0.00    -0.243 NA
ATOM     28  C   UNL     1      36.558 -25.007 -13.276  0.00  0.00    +0.040 C 
ATOM     29  C   UNL     1      37.694 -24.565 -12.620  0.00  0.00    +0.002 C 
ATOM     30  C   UNL     1      36.689 -25.960 -14.263  0.00  0.00    +0.098 C 
ATOM     31  C   UNL     1      38.930 -25.092 -12.973  0.00  0.00    +0.020 C 
ATOM     32  C   UNL     1      38.967 -26.046 -13.977  0.00  0.00    +0.099 C 
ENDBRANCH  26  28
ENDBRANCH  25  26
ENDBRANCH  23  25
ENDBRANCH  20  22
ENDBRANCH   1  20
TORSDOF 8
ENDMDL
MODEL 8
REMARK VINA RESULT:     -10.9      2.704     10.711
REMARK  Name = 4261
REMARK  8 active torsions:
REMARK  status: ('A' for Active; 'I' for Inactive)
REMARK    1  A    between atoms: C_1  and  C_20
REMARK    2  A    between atoms: C_2  and  C_9
REMARK    3  A    between atoms: N_8  and  C_11
REMARK    4  A    between atoms: C_12  and  N_17
REMARK    5  A    between atoms: C_20  and  N_22
REMARK    6  A    between atoms: C_23  and  O_25
REMARK    7  A    between atoms: O_25  and  C_26
REMARK    8  A    between atoms: C_26  and  C_28
REMARK                            x       y       z     vdW  Elec       q    Type
REMARK                         _______ _______ _______ _____ _____    ______ ____
ROOT
ATOM      1  C   UNL     1      35.109 -17.247 -23.226  0.00  0.00    -0.002 C 
ATOM      2  C   UNL     1      34.059 -14.700 -23.602  0.00  0.00    +0.054 C 
ATOM      3  C   UNL     1      34.422 -16.952 -24.399  0.00  0.00    -0.002 C 
ATOM      4  C   UNL     1      35.275 -16.281 -22.240  0.00  0.00    -0.002 C 
ATOM      5  C   UNL     1      33.896 -15.675 -24.587  0.00  0.00    +0.004 C 
ATOM      6  C   UNL     1      34.749 -15.004 -22.428  0.00  0.00    +0.004 C 
ENDROOT
BRANCH   2   9
ATOM      7  O   UNL     1      32.965 -13.094 -24.880  0.00  0.00    -0.270 OA
ATOM      8  N   UNL     1      33.622 -12.493 -22.708  0.00  0.00    -0.279 N 
ATOM      9  C   UNL     1      33.509 -13.369 -23.798  0.00  0.00    +0.250 C 
ATOM     10  H   UNL     1      34.080 -12.854 -21.916  0.00  0.00    +0.155 HD
BRANCH   8  11
ATOM     11  C   UNL     1      33.163 -11.158 -22.599  0.00  0.00    +0.064 C 
ATOM     12  C   UNL     1      33.776 -10.145 -23.319  0.00  0.00    +0.055 C 
ATOM     13  C   UNL     1      32.092 -10.898 -21.759  0.00  0.00    +0.016 C 
ATOM     14  C   UNL     1      33.306  -8.838 -23.195  0.00  0.00    +0.015 C 
ATOM     15  C   UNL     1      31.622  -9.591 -21.635  0.00  0.00    +0.001 C 
ATOM     16  C   UNL     1      32.229  -8.560 -22.353  0.00  0.00    +0.001 C 
BRANCH  12  17
ATOM     17  N   UNL     1      34.868 -10.403 -24.179  0.00  0.00    -0.356 N 
ATOM     18  H   UNL     1      34.930  -9.942 -25.046  0.00  0.00    +0.142 HD
ATOM     19  H   UNL     1      35.565 -11.044 -23.910  0.00  0.00    +0.142 HD
ENDBRANCH  12  17
ENDBRANCH   8  11
ENDBRANCH   2   9
BRANCH   1  20
ATOM     20  C   UNL     1      35.676 -18.622 -23.023  0.00  0.00    +0.119 C 
BRANCH  20  22
ATOM     21  O   UNL     1      37.857 -18.684 -21.106  0.00  0.00    -0.226 OA
ATOM     22  N   UNL     1      35.626 -19.028 -21.637  0.00  0.00    -0.267 N 
ATOM     23  C   UNL     1      36.720 -19.024 -20.799  0.00  0.00    +0.402 C 
ATOM     24  H   UNL     1      34.761 -19.324 -21.271  0.00  0.00    +0.153 HD
BRANCH  23  25
ATOM     25  O   UNL     1      36.350 -19.460 -19.557  0.00  0.00    -0.430 OA
BRANCH  25  26
ATOM     26  C   UNL     1      36.720 -20.805 -19.232  0.00  0.00    +0.238 C 
BRANCH  26  28
ATOM     27  N   UNL     1      34.724 -22.826 -16.755  0.00  0.00    -0.243 NA
ATOM     28  C   UNL     1      35.557 -21.487 -18.573  0.00  0.00    +0.040 C 
ATOM     29  C   UNL     1      34.293 -21.422 -19.133  0.00  0.00    +0.002 C 
ATOM     30  C   UNL     1      35.728 -22.189 -17.399  0.00  0.00    +0.098 C 
ATOM     31  C   UNL     1      33.236 -22.064 -18.501  0.00  0.00    +0.020 C 
ATOM     32  C   UNL     1      33.500 -22.746 -17.324  0.00  0.00    +0.099 C 
ENDBRANCH  26  28
ENDBRANCH  25  26
ENDBRANCH  23  25
ENDBRANCH  20  22
ENDBRANCH   1  20
TORSDOF 8
ENDMDL
MODEL 9
REMARK VINA RESULT:     -10.9      3.575      6.127
REMARK  Name = 4261
REMARK  8 active torsions:
REMARK  status: ('A' for Active; 'I' for Inactive)
REMARK    1  A    between atoms: C_1  and  C_20
REMARK    2  A    between atoms: C_2  and  C_9
REMARK    3  A    between atoms: N_8  and  C_11
REMARK    4  A    between atoms: C_12  and  N_17
REMARK    5  A    between atoms: C_20  and  N_22
REMARK    6  A    between atoms: C_23  and  O_25
REMARK    7  A    between atoms: O_25  and  C_26
REMARK    8  A    between atoms: C_26  and  C_28
REMARK                            x       y       z     vdW  Elec       q    Type
REMARK                         _______ _______ _______ _____ _____    ______ ____
ROOT
ATOM      1  C   UNL     1      34.012 -14.654 -24.042  0.00  0.00    -0.002 C 
ATOM      2  C   UNL     1      35.003 -16.878 -22.699  0.00  0.00    +0.054 C 
ATOM      3  C   UNL     1      34.495 -14.517 -22.745  0.00  0.00    -0.002 C 
ATOM      4  C   UNL     1      34.020 -15.892 -24.674  0.00  0.00    -0.002 C 
ATOM      5  C   UNL     1      34.992 -15.632 -22.072  0.00  0.00    +0.004 C 
ATOM      6  C   UNL     1      34.517 -17.008 -24.001  0.00  0.00    +0.004 C 
ENDROOT
BRANCH   2   9
ATOM      7  O   UNL     1      36.697 -18.387 -22.186  0.00  0.00    -0.270 OA
ATOM      8  N   UNL     1      34.625 -18.676 -21.123  0.00  0.00    -0.279 N 
ATOM      9  C   UNL     1      35.520 -18.041 -21.997  0.00  0.00    +0.250 C 
ATOM     10  H   UNL     1      33.722 -18.287 -21.079  0.00  0.00    +0.155 HD
BRANCH   8  11
ATOM     11  C   UNL     1      34.850 -19.803 -20.296  0.00  0.00    +0.064 C 
ATOM     12  C   UNL     1      33.784 -20.561 -19.839  0.00  0.00    +0.055 C 
ATOM     13  C   UNL     1      36.157 -20.122 -19.962  0.00  0.00    +0.016 C 
ATOM     14  C   UNL     1      34.032 -21.667 -19.025  0.00  0.00    +0.015 C 
ATOM     15  C   UNL     1      36.404 -21.228 -19.148  0.00  0.00    +0.001 C 
ATOM     16  C   UNL     1      35.341 -22.000 -18.679  0.00  0.00    +0.001 C 
BRANCH  12  17
ATOM     17  N   UNL     1      32.450 -20.242 -20.176  0.00  0.00    -0.356 N 
ATOM     18  H   UNL     1      32.213 -19.320 -20.425  0.00  0.00    +0.142 HD
ATOM     19  H   UNL     1      31.758 -20.942 -20.163  0.00  0.00    +0.142 HD
ENDBRANCH  12  17
ENDBRANCH   8  11
ENDBRANCH   2   9
BRANCH   1  20
ATOM     20  C   UNL     1      33.479 -13.453 -24.767  0.00  0.00    +0.119 C 
BRANCH  20  22
ATOM     21  O   UNL     1      34.751 -10.921 -25.404  0.00  0.00    -0.226 OA
ATOM     22  N   UNL     1      33.536 -12.261 -23.952  0.00  0.00    -0.267 N 
ATOM     23  C   UNL     1      34.167 -11.098 -24.341  0.00  0.00    +0.402 C 
ATOM     24  H   UNL     1      33.099 -12.280 -23.070  0.00  0.00    +0.153 HD
BRANCH  23  25
ATOM     25  O   UNL     1      34.046 -10.158 -23.357  0.00  0.00    -0.430 OA
BRANCH  25  26
ATOM     26  C   UNL     1      32.775  -9.502 -23.272  0.00  0.00    +0.238 C 
BRANCH  26  28
ATOM     27  N   UNL     1      31.937  -8.419 -19.761  0.00  0.00    -0.243 NA
ATOM     28  C   UNL     1      32.290  -9.556 -21.852  0.00  0.00    +0.040 C 
ATOM     29  C   UNL     1      31.772 -10.727 -21.329  0.00  0.00    +0.002 C 
ATOM     30  C   UNL     1      32.355  -8.439 -21.047  0.00  0.00    +0.098 C 
ATOM     31  C   UNL     1      31.332 -10.746 -20.011  0.00  0.00    +0.020 C 
ATOM     32  C   UNL     1      31.435  -9.577 -19.275  0.00  0.00    +0.099 C 
ENDBRANCH  26  28
ENDBRANCH  25  26
ENDBRANCH  23  25
ENDBRANCH  20  22
ENDBRANCH   1  20
TORSDOF 8
ENDMDL
