MODEL 1
REMARK VINA RESULT:     -11.7      0.000      0.000
REMARK  Name = 153241
REMARK  8 active torsions:
REMARK  status: ('A' for Active; 'I' for Inactive)
REMARK    1  A    between atoms: N_2  and  C_9
REMARK    2  A    between atoms: N_3  and  C_24
REMARK    3  A    between atoms: C_7  and  C_13
REMARK    4  A    between atoms: C_13  and  N_15
REMARK    5  A    between atoms: C_16  and  O_18
REMARK    6  A    between atoms: O_18  and  C_20
REMARK    7  A    between atoms: C_25  and  C_32
REMARK    8  A    between atoms: C_26  and  O_35
REMARK                            x       y       z     vdW  Elec       q    Type
REMARK                         _______ _______ _______ _____ _____    ______ ____
ROOT
ATOM      1  O   UNL     1      34.172 -18.830 -19.926  0.00  0.00    -0.252 OA
ATOM      2  N   UNL     1      35.489 -20.741 -20.247  0.00  0.00    -0.268 N 
ATOM      3  N   UNL     1      35.288 -19.193 -21.949  0.00  0.00    -0.268 N 
ATOM      4  C   UNL     1      34.904 -19.511 -20.637  0.00  0.00    +0.308 C 
ATOM      5  H   UNL     1      36.056 -21.178 -20.923  0.00  0.00    +0.156 HD
ATOM      6  H   UNL     1      35.882 -19.840 -22.394  0.00  0.00    +0.156 HD
ENDROOT
BRANCH   2   9
ATOM      7  C   UNL     1      36.291 -22.075 -16.908  0.00  0.00    -0.001 C 
ATOM      8  C   UNL     1      36.421 -21.400 -18.117  0.00  0.00    +0.012 C 
ATOM      9  C   UNL     1      35.368 -21.416 -19.031  0.00  0.00    +0.051 C 
ATOM     10  C   UNL     1      35.123 -22.764 -16.601  0.00  0.00    -0.003 C 
ATOM     11  C   UNL     1      34.192 -22.104 -18.730  0.00  0.00    +0.015 C 
ATOM     12  C   UNL     1      34.070 -22.778 -17.516  0.00  0.00    +0.001 C 
BRANCH   7  13
ATOM     13  C   UNL     1      37.424 -22.061 -15.924  0.00  0.00    +0.119 C 
BRANCH  13  15
ATOM     14  O   UNL     1      38.842 -24.242 -14.633  0.00  0.00    -0.226 OA
ATOM     15  N   UNL     1      37.080 -22.734 -14.693  0.00  0.00    -0.267 N 
ATOM     16  C   UNL     1      37.819 -23.767 -14.154  0.00  0.00    +0.402 C 
ATOM     17  H   UNL     1      36.273 -22.440 -14.213  0.00  0.00    +0.153 HD
BRANCH  16  18
ATOM     18  O   UNL     1      37.240 -24.196 -12.988  0.00  0.00    -0.436 OA
BRANCH  18  20
ATOM     19  O   UNL     1      36.742 -23.816 -10.019  0.00  0.00    -0.350 OA
ATOM     20  C   UNL     1      36.437 -23.243 -12.298  0.00  0.00    +0.202 C 
ATOM     21  C   UNL     1      35.175 -23.900 -11.795  0.00  0.00    +0.078 C 
ATOM     22  C   UNL     1      37.133 -22.852 -11.011  0.00  0.00    +0.186 C 
ATOM     23  C   UNL     1      35.660 -24.599 -10.540  0.00  0.00    +0.146 C 
ENDBRANCH  18  20
ENDBRANCH  16  18
ENDBRANCH  13  15
ENDBRANCH   7  13
ENDBRANCH   2   9
BRANCH   3  24
ATOM     24  C   UNL     1      34.926 -18.058 -22.712  0.00  0.00    +0.055 C 
ATOM     25  C   UNL     1      34.216 -15.835 -24.205  0.00  0.00    +0.070 C 
ATOM     26  C   UNL     1      34.873 -15.675 -22.985  0.00  0.00    +0.143 C 
ATOM     27  C   UNL     1      35.230 -16.794 -22.232  0.00  0.00    +0.052 C 
ATOM     28  C   UNL     1      34.274 -18.234 -23.921  0.00  0.00    +0.015 C 
ATOM     29  C   UNL     1      33.917 -17.114 -24.673  0.00  0.00    +0.007 C 
BRANCH  25  32
ATOM     30  O   UNL     1      34.383 -14.620 -26.239  0.00  0.00    -0.431 OA
ATOM     31  N   UNL     1      33.046 -12.820 -25.937  0.00  0.00    -0.203 NA
ATOM     32  C   UNL     1      33.838 -14.689 -24.999  0.00  0.00    +0.169 C 
ATOM     33  C   UNL     1      33.032 -13.604 -24.813  0.00  0.00    +0.140 C 
ATOM     34  C   UNL     1      33.859 -13.468 -26.742  0.00  0.00    +0.285 C 
ENDBRANCH  25  32
BRANCH  26  35
ATOM     35  O   UNL     1      35.178 -14.436 -22.503  0.00  0.00    -0.471 OA
ATOM     36  C   UNL     1      34.440 -13.983 -21.371  0.00  0.00    +0.252 C 
ENDBRANCH  26  35
ENDBRANCH   3  24
TORSDOF 8
ENDMDL
MODEL 2
REMARK VINA RESULT:     -11.2      3.135      5.463
REMARK  Name = 153241
REMARK  8 active torsions:
REMARK  status: ('A' for Active; 'I' for Inactive)
REMARK    1  A    between atoms: N_2  and  C_9
REMARK    2  A    between atoms: N_3  and  C_24
REMARK    3  A    between atoms: C_7  and  C_13
REMARK    4  A    between atoms: C_13  and  N_15
REMARK    5  A    between atoms: C_16  and  O_18
REMARK    6  A    between atoms: O_18  and  C_20
REMARK    7  A    between atoms: C_25  and  C_32
REMARK    8  A    between atoms: C_26  and  O_35
REMARK                            x       y       z     vdW  Elec       q    Type
REMARK                         _______ _______ _______ _____ _____    ______ ____
ROOT
ATOM      1  O   UNL     1      35.322 -22.219 -17.845  0.00  0.00    -0.252 OA
ATOM      2  N   UNL     1      37.181 -21.863 -16.464  0.00  0.00    -0.268 N 
ATOM      3  N   UNL     1      36.882 -20.550 -18.340  0.00  0.00    -0.268 N 
ATOM      4  C   UNL     1      36.351 -21.606 -17.583  0.00  0.00    +0.308 C 
ATOM      5  H   UNL     1      37.977 -21.290 -16.381  0.00  0.00    +0.156 HD
ATOM      6  H   UNL     1      37.718 -20.154 -18.002  0.00  0.00    +0.156 HD
ENDROOT
BRANCH   2   9
ATOM      7  C   UNL     1      35.658 -23.876 -13.780  0.00  0.00    -0.001 C 
ATOM      8  C   UNL     1      35.809 -22.918 -14.776  0.00  0.00    +0.012 C 
ATOM      9  C   UNL     1      37.020 -22.822 -15.463  0.00  0.00    +0.051 C 
ATOM     10  C   UNL     1      36.699 -24.741 -13.463  0.00  0.00    -0.003 C 
ATOM     11  C   UNL     1      38.069 -23.687 -15.151  0.00  0.00    +0.015 C 
ATOM     12  C   UNL     1      37.909 -24.646 -14.151  0.00  0.00    +0.001 C 
BRANCH   7  13
ATOM     13  C   UNL     1      34.357 -23.978 -13.040  0.00  0.00    +0.119 C 
BRANCH  13  15
ATOM     14  O   UNL     1      31.740 -23.179 -12.063  0.00  0.00    -0.226 OA
ATOM     15  N   UNL     1      33.257 -23.430 -13.800  0.00  0.00    -0.267 N 
ATOM     16  C   UNL     1      32.044 -23.078 -13.246  0.00  0.00    +0.402 C 
ATOM     17  H   UNL     1      33.381 -23.301 -14.769  0.00  0.00    +0.153 HD
BRANCH  16  18
ATOM     18  O   UNL     1      31.210 -22.590 -14.219  0.00  0.00    -0.436 OA
BRANCH  18  20
ATOM     19  O   UNL     1      29.344 -22.264 -16.589  0.00  0.00    -0.350 OA
ATOM     20  C   UNL     1      30.918 -23.475 -15.296  0.00  0.00    +0.202 C 
ATOM     21  C   UNL     1      29.557 -24.095 -15.100  0.00  0.00    +0.078 C 
ATOM     22  C   UNL     1      30.725 -22.664 -16.561  0.00  0.00    +0.186 C 
ATOM     23  C   UNL     1      28.633 -22.992 -15.579  0.00  0.00    +0.146 C 
ENDBRANCH  18  20
ENDBRANCH  16  18
ENDBRANCH  13  15
ENDBRANCH   7  13
ENDBRANCH   2   9
BRANCH   3  24
ATOM     24  C   UNL     1      36.365 -19.983 -19.528  0.00  0.00    +0.055 C 
ATOM     25  C   UNL     1      35.350 -18.875 -21.856  0.00  0.00    +0.070 C 
ATOM     26  C   UNL     1      34.524 -19.632 -21.026  0.00  0.00    +0.143 C 
ATOM     27  C   UNL     1      35.034 -20.191 -19.854  0.00  0.00    +0.052 C 
ATOM     28  C   UNL     1      37.199 -19.234 -20.342  0.00  0.00    +0.015 C 
ATOM     29  C   UNL     1      36.688 -18.677 -21.514  0.00  0.00    +0.007 C 
BRANCH  25  32
ATOM     30  O   UNL     1      35.078 -16.963 -23.239  0.00  0.00    -0.431 OA
ATOM     31  N   UNL     1      33.933 -17.720 -25.037  0.00  0.00    -0.203 NA
ATOM     32  C   UNL     1      34.841 -18.289 -23.074  0.00  0.00    +0.169 C 
ATOM     33  C   UNL     1      34.150 -18.748 -24.157  0.00  0.00    +0.140 C 
ATOM     34  C   UNL     1      34.501 -16.695 -24.443  0.00  0.00    +0.285 C 
ENDBRANCH  25  32
BRANCH  26  35
ATOM     35  O   UNL     1      33.212 -19.842 -21.336  0.00  0.00    -0.471 OA
ATOM     36  C   UNL     1      32.357 -20.267 -20.278  0.00  0.00    +0.252 C 
ENDBRANCH  26  35
ENDBRANCH   3  24
TORSDOF 8
ENDMDL
MODEL 3
REMARK VINA RESULT:     -11.1      2.020     12.684
REMARK  Name = 153241
REMARK  8 active torsions:
REMARK  status: ('A' for Active; 'I' for Inactive)
REMARK    1  A    between atoms: N_2  and  C_9
REMARK    2  A    between atoms: N_3  and  C_24
REMARK    3  A    between atoms: C_7  and  C_13
REMARK    4  A    between atoms: C_13  and  N_15
REMARK    5  A    between atoms: C_16  and  O_18
REMARK    6  A    between atoms: O_18  and  C_20
REMARK    7  A    between atoms: C_25  and  C_32
REMARK    8  A    between atoms: C_26  and  O_35
REMARK                            x       y       z     vdW  Elec       q    Type
REMARK                         _______ _______ _______ _____ _____    ______ ____
ROOT
ATOM      1  O   UNL     1      36.748 -20.587 -17.576  0.00  0.00    -0.252 OA
ATOM      2  N   UNL     1      35.334 -21.001 -19.397  0.00  0.00    -0.268 N 
ATOM      3  N   UNL     1      35.108 -22.250 -17.469  0.00  0.00    -0.268 N 
ATOM      4  C   UNL     1      35.827 -21.216 -18.087  0.00  0.00    +0.308 C 
ATOM      5  H   UNL     1      34.589 -21.582 -19.674  0.00  0.00    +0.156 HD
ATOM      6  H   UNL     1      34.394 -22.662 -18.007  0.00  0.00    +0.156 HD
ENDROOT
BRANCH   2   9
ATOM      7  C   UNL     1      35.337 -18.744 -22.309  0.00  0.00    -0.001 C 
ATOM      8  C   UNL     1      34.901 -19.669 -21.367  0.00  0.00    +0.012 C 
ATOM      9  C   UNL     1      35.762 -20.073 -20.348  0.00  0.00    +0.051 C 
ATOM     10  C   UNL     1      36.621 -18.216 -22.245  0.00  0.00    -0.003 C 
ATOM     11  C   UNL     1      37.053 -19.548 -20.276  0.00  0.00    +0.015 C 
ATOM     12  C   UNL     1      37.482 -18.620 -21.224  0.00  0.00    +0.001 C 
BRANCH   7  13
ATOM     13  C   UNL     1      34.411 -18.310 -23.408  0.00  0.00    +0.119 C 
BRANCH  13  15
ATOM     14  O   UNL     1      33.121 -16.799 -25.527  0.00  0.00    -0.226 OA
ATOM     15  N   UNL     1      34.517 -16.894 -23.677  0.00  0.00    -0.267 N 
ATOM     16  C   UNL     1      33.863 -16.262 -24.714  0.00  0.00    +0.402 C 
ATOM     17  H   UNL     1      35.089 -16.351 -23.088  0.00  0.00    +0.153 HD
BRANCH  16  18
ATOM     18  O   UNL     1      34.163 -14.924 -24.709  0.00  0.00    -0.436 OA
BRANCH  18  20
ATOM     19  O   UNL     1      34.063 -11.891 -24.727  0.00  0.00    -0.350 OA
ATOM     20  C   UNL     1      33.057 -14.034 -24.604  0.00  0.00    +0.202 C 
ATOM     21  C   UNL     1      33.025 -13.408 -23.232  0.00  0.00    +0.078 C 
ATOM     22  C   UNL     1      33.302 -12.836 -25.499  0.00  0.00    +0.186 C 
ATOM     23  C   UNL     1      34.066 -12.314 -23.357  0.00  0.00    +0.146 C 
ENDBRANCH  18  20
ENDBRANCH  16  18
ENDBRANCH  13  15
ENDBRANCH   7  13
ENDBRANCH   2   9
BRANCH   3  24
ATOM     24  C   UNL     1      35.282 -22.775 -16.166  0.00  0.00    +0.055 C 
ATOM     25  C   UNL     1      35.625 -23.802 -13.616  0.00  0.00    +0.070 C 
ATOM     26  C   UNL     1      36.734 -23.413 -14.366  0.00  0.00    +0.143 C 
ATOM     27  C   UNL     1      36.563 -22.896 -15.651  0.00  0.00    +0.052 C 
ATOM     28  C   UNL     1      34.170 -23.155 -15.434  0.00  0.00    +0.015 C 
ATOM     29  C   UNL     1      34.343 -23.673 -14.150  0.00  0.00    +0.007 C 
BRANCH  25  32
ATOM     30  O   UNL     1      35.229 -23.612 -11.282  0.00  0.00    -0.431 OA
ATOM     31  N   UNL     1      36.203 -25.448 -10.389  0.00  0.00    -0.203 NA
ATOM     32  C   UNL     1      35.781 -24.340 -12.285  0.00  0.00    +0.169 C 
ATOM     33  C   UNL     1      36.371 -25.447 -11.749  0.00  0.00    +0.140 C 
ATOM     34  C   UNL     1      35.525 -24.344 -10.172  0.00  0.00    +0.285 C 
ENDBRANCH  25  32
BRANCH  26  35
ATOM     35  O   UNL     1      37.999 -23.529 -13.869  0.00  0.00    -0.471 OA
ATOM     36  C   UNL     1      38.770 -24.641 -14.316  0.00  0.00    +0.252 C 
ENDBRANCH  26  35
ENDBRANCH   3  24
TORSDOF 8
ENDMDL
MODEL 4
REMARK VINA RESULT:     -11.0      3.514      5.363
REMARK  Name = 153241
REMARK  8 active torsions:
REMARK  status: ('A' for Active; 'I' for Inactive)
REMARK    1  A    between atoms: N_2  and  C_9
REMARK    2  A    between atoms: N_3  and  C_24
REMARK    3  A    between atoms: C_7  and  C_13
REMARK    4  A    between atoms: C_13  and  N_15
REMARK    5  A    between atoms: C_16  and  O_18
REMARK    6  A    between atoms: O_18  and  C_20
REMARK    7  A    between atoms: C_25  and  C_32
REMARK    8  A    between atoms: C_26  and  O_35
REMARK                            x       y       z     vdW  Elec       q    Type
REMARK                         _______ _______ _______ _____ _____    ______ ____
ROOT
ATOM      1  O   UNL     1      34.586 -15.045 -20.530  0.00  0.00    -0.252 OA
ATOM      2  N   UNL     1      34.855 -16.648 -22.219  0.00  0.00    -0.268 N 
ATOM      3  N   UNL     1      34.134 -14.523 -22.764  0.00  0.00    -0.268 N 
ATOM      4  C   UNL     1      34.529 -15.365 -21.713  0.00  0.00    +0.308 C 
ATOM      5  H   UNL     1      34.762 -16.760 -23.192  0.00  0.00    +0.156 HD
ATOM      6  H   UNL     1      34.139 -14.923 -23.664  0.00  0.00    +0.156 HD
ENDROOT
BRANCH   2   9
ATOM      7  C   UNL     1      34.809 -19.796 -20.305  0.00  0.00    -0.001 C 
ATOM      8  C   UNL     1      34.364 -18.676 -21.000  0.00  0.00    +0.012 C 
ATOM      9  C   UNL     1      35.292 -17.774 -21.519  0.00  0.00    +0.051 C 
ATOM     10  C   UNL     1      36.169 -20.025 -20.123  0.00  0.00    -0.003 C 
ATOM     11  C   UNL     1      36.658 -17.997 -21.342  0.00  0.00    +0.015 C 
ATOM     12  C   UNL     1      37.096 -19.122 -20.644  0.00  0.00    +0.001 C 
BRANCH   7  13
ATOM     13  C   UNL     1      33.812 -20.767 -19.744  0.00  0.00    +0.119 C 
BRANCH  13  15
ATOM     14  O   UNL     1      32.482 -22.433 -17.772  0.00  0.00    -0.226 OA
ATOM     15  N   UNL     1      34.418 -21.683 -18.806  0.00  0.00    -0.267 N 
ATOM     16  C   UNL     1      33.701 -22.437 -17.901  0.00  0.00    +0.402 C 
ATOM     17  H   UNL     1      35.398 -21.774 -18.813  0.00  0.00    +0.153 HD
BRANCH  16  18
ATOM     18  O   UNL     1      34.554 -23.206 -17.152  0.00  0.00    -0.436 OA
BRANCH  18  20
ATOM     19  O   UNL     1      36.459 -24.264 -15.041  0.00  0.00    -0.350 OA
ATOM     20  C   UNL     1      34.845 -22.725 -15.844  0.00  0.00    +0.202 C 
ATOM     21  C   UNL     1      34.193 -23.611 -14.811  0.00  0.00    +0.078 C 
ATOM     22  C   UNL     1      36.319 -22.930 -15.561  0.00  0.00    +0.186 C 
ATOM     23  C   UNL     1      35.155 -24.780 -14.742  0.00  0.00    +0.146 C 
ENDBRANCH  18  20
ENDBRANCH  16  18
ENDBRANCH  13  15
ENDBRANCH   7  13
ENDBRANCH   2   9
BRANCH   3  24
ATOM     24  C   UNL     1      33.729 -13.169 -22.690  0.00  0.00    +0.055 C 
ATOM     25  C   UNL     1      32.935 -10.519 -22.546  0.00  0.00    +0.070 C 
ATOM     26  C   UNL     1      32.368 -11.465 -21.692  0.00  0.00    +0.143 C 
ATOM     27  C   UNL     1      32.767 -12.800 -21.764  0.00  0.00    +0.052 C 
ATOM     28  C   UNL     1      34.302 -12.242 -23.546  0.00  0.00    +0.015 C 
ATOM     29  C   UNL     1      33.902 -10.908 -23.473  0.00  0.00    +0.007 C 
BRANCH  25  32
ATOM     30  O   UNL     1      33.400  -8.291 -21.867  0.00  0.00    -0.431 OA
ATOM     31  N   UNL     1      31.616  -7.095 -22.578  0.00  0.00    -0.203 NA
ATOM     32  C   UNL     1      32.535  -9.132 -22.487  0.00  0.00    +0.169 C 
ATOM     33  C   UNL     1      31.457  -8.414 -22.916  0.00  0.00    +0.140 C 
ATOM     34  C   UNL     1      32.777  -7.084 -21.963  0.00  0.00    +0.285 C 
ENDBRANCH  25  32
BRANCH  26  35
ATOM     35  O   UNL     1      31.420 -11.112 -20.776  0.00  0.00    -0.471 OA
ATOM     36  C   UNL     1      31.867 -10.864 -19.446  0.00  0.00    +0.252 C 
ENDBRANCH  26  35
ENDBRANCH   3  24
TORSDOF 8
ENDMDL
MODEL 5
REMARK VINA RESULT:     -10.9      2.208     12.645
REMARK  Name = 153241
REMARK  8 active torsions:
REMARK  status: ('A' for Active; 'I' for Inactive)
REMARK    1  A    between atoms: N_2  and  C_9
REMARK    2  A    between atoms: N_3  and  C_24
REMARK    3  A    between atoms: C_7  and  C_13
REMARK    4  A    between atoms: C_13  and  N_15
REMARK    5  A    between atoms: C_16  and  O_18
REMARK    6  A    between atoms: O_18  and  C_20
REMARK    7  A    between atoms: C_25  and  C_32
REMARK    8  A    between atoms: C_26  and  O_35
REMARK                            x       y       z     vdW  Elec       q    Type
REMARK                         _______ _______ _______ _____ _____    ______ ____
ROOT
ATOM      1  O   UNL     1      36.814 -20.625 -17.644  0.00  0.00    -0.252 OA
ATOM      2  N   UNL     1      35.326 -20.952 -19.425  0.00  0.00    -0.268 N 
ATOM      3  N   UNL     1      35.103 -22.213 -17.503  0.00  0.00    -0.268 N 
ATOM      4  C   UNL     1      35.850 -21.205 -18.133  0.00  0.00    +0.308 C 
ATOM      5  H   UNL     1      34.547 -21.495 -19.684  0.00  0.00    +0.156 HD
ATOM      6  H   UNL     1      34.354 -22.585 -18.023  0.00  0.00    +0.156 HD
ENDROOT
BRANCH   2   9
ATOM      7  C   UNL     1      35.366 -18.720 -22.356  0.00  0.00    -0.001 C 
ATOM      8  C   UNL     1      34.918 -19.636 -21.411  0.00  0.00    +0.012 C 
ATOM      9  C   UNL     1      35.768 -20.033 -20.379  0.00  0.00    +0.051 C 
ATOM     10  C   UNL     1      36.652 -18.194 -22.282  0.00  0.00    -0.003 C 
ATOM     11  C   UNL     1      37.059 -19.510 -20.297  0.00  0.00    +0.015 C 
ATOM     12  C   UNL     1      37.500 -18.591 -21.248  0.00  0.00    +0.001 C 
BRANCH   7  13
ATOM     13  C   UNL     1      34.454 -18.293 -23.468  0.00  0.00    +0.119 C 
BRANCH  13  15
ATOM     14  O   UNL     1      33.057 -16.766 -25.507  0.00  0.00    -0.226 OA
ATOM     15  N   UNL     1      34.557 -16.878 -23.741  0.00  0.00    -0.267 N 
ATOM     16  C   UNL     1      33.850 -16.237 -24.736  0.00  0.00    +0.402 C 
ATOM     17  H   UNL     1      35.168 -16.342 -23.185  0.00  0.00    +0.153 HD
BRANCH  16  18
ATOM     18  O   UNL     1      34.162 -14.902 -24.746  0.00  0.00    -0.436 OA
BRANCH  18  20
ATOM     19  O   UNL     1      34.136 -11.895 -24.342  0.00  0.00    -0.350 OA
ATOM     20  C   UNL     1      33.074 -14.002 -24.562  0.00  0.00    +0.202 C 
ATOM     21  C   UNL     1      32.997 -13.574 -23.118  0.00  0.00    +0.078 C 
ATOM     22  C   UNL     1      33.387 -12.700 -25.269  0.00  0.00    +0.186 C 
ATOM     23  C   UNL     1      34.069 -12.504 -23.046  0.00  0.00    +0.146 C 
ENDBRANCH  18  20
ENDBRANCH  16  18
ENDBRANCH  13  15
ENDBRANCH   7  13
ENDBRANCH   2   9
BRANCH   3  24
ATOM     24  C   UNL     1      35.293 -22.760 -16.213  0.00  0.00    +0.055 C 
ATOM     25  C   UNL     1      35.666 -23.833 -13.686  0.00  0.00    +0.070 C 
ATOM     26  C   UNL     1      34.402 -23.857 -14.274  0.00  0.00    +0.143 C 
ATOM     27  C   UNL     1      34.213 -23.317 -15.547  0.00  0.00    +0.052 C 
ATOM     28  C   UNL     1      36.555 -22.729 -15.642  0.00  0.00    +0.015 C 
ATOM     29  C   UNL     1      36.742 -23.269 -14.370  0.00  0.00    +0.007 C 
BRANCH  25  32
ATOM     30  O   UNL     1      35.365 -23.677 -11.335  0.00  0.00    -0.431 OA
ATOM     31  N   UNL     1      36.390 -25.516 -10.507  0.00  0.00    -0.203 NA
ATOM     32  C   UNL     1      35.881 -24.387 -12.369  0.00  0.00    +0.169 C 
ATOM     33  C   UNL     1      36.502 -25.496 -11.873  0.00  0.00    +0.140 C 
ATOM     34  C   UNL     1      35.712 -24.420 -10.248  0.00  0.00    +0.285 C 
ENDBRANCH  25  32
BRANCH  26  35
ATOM     35  O   UNL     1      33.332 -24.402 -13.628  0.00  0.00    -0.471 OA
ATOM     36  C   UNL     1      32.149 -23.611 -13.555  0.00  0.00    +0.252 C 
ENDBRANCH  26  35
ENDBRANCH   3  24
TORSDOF 8
ENDMDL
MODEL 6
REMARK VINA RESULT:     -10.9      2.427     11.801
REMARK  Name = 153241
REMARK  8 active torsions:
REMARK  status: ('A' for Active; 'I' for Inactive)
REMARK    1  A    between atoms: N_2  and  C_9
REMARK    2  A    between atoms: N_3  and  C_24
REMARK    3  A    between atoms: C_7  and  C_13
REMARK    4  A    between atoms: C_13  and  N_15
REMARK    5  A    between atoms: C_16  and  O_18
REMARK    6  A    between atoms: O_18  and  C_20
REMARK    7  A    between atoms: C_25  and  C_32
REMARK    8  A    between atoms: C_26  and  O_35
REMARK                            x       y       z     vdW  Elec       q    Type
REMARK                         _______ _______ _______ _____ _____    ______ ____
ROOT
ATOM      1  O   UNL     1      33.890 -19.717 -20.138  0.00  0.00    -0.252 OA
ATOM      2  N   UNL     1      35.650 -19.388 -21.650  0.00  0.00    -0.268 N 
ATOM      3  N   UNL     1      35.976 -20.714 -19.787  0.00  0.00    -0.268 N 
ATOM      4  C   UNL     1      35.049 -19.922 -20.483  0.00  0.00    +0.308 C 
ATOM      5  H   UNL     1      36.591 -19.639 -21.799  0.00  0.00    +0.156 HD
ATOM      6  H   UNL     1      36.872 -20.785 -20.189  0.00  0.00    +0.156 HD
ENDROOT
BRANCH   2   9
ATOM      7  C   UNL     1      34.765 -16.361 -23.553  0.00  0.00    -0.001 C 
ATOM      8  C   UNL     1      35.331 -17.183 -22.585  0.00  0.00    +0.012 C 
ATOM      9  C   UNL     1      35.086 -18.555 -22.617  0.00  0.00    +0.051 C 
ATOM     10  C   UNL     1      33.958 -16.892 -24.552  0.00  0.00    -0.003 C 
ATOM     11  C   UNL     1      34.277 -19.097 -23.616  0.00  0.00    +0.015 C 
ATOM     12  C   UNL     1      33.714 -18.265 -24.584  0.00  0.00    +0.001 C 
BRANCH   7  13
ATOM     13  C   UNL     1      35.027 -14.883 -23.518  0.00  0.00    +0.119 C 
BRANCH  13  15
ATOM     14  O   UNL     1      32.753 -13.470 -24.645  0.00  0.00    -0.226 OA
ATOM     15  N   UNL     1      33.991 -14.167 -22.810  0.00  0.00    -0.267 N 
ATOM     16  C   UNL     1      32.944 -13.522 -23.435  0.00  0.00    +0.402 C 
ATOM     17  H   UNL     1      34.036 -14.137 -21.827  0.00  0.00    +0.153 HD
BRANCH  16  18
ATOM     18  O   UNL     1      32.130 -12.937 -22.499  0.00  0.00    -0.436 OA
BRANCH  18  20
ATOM     19  O   UNL     1      30.971 -11.256 -20.255  0.00  0.00    -0.350 OA
ATOM     20  C   UNL     1      32.767 -12.060 -21.576  0.00  0.00    +0.202 C 
ATOM     21  C   UNL     1      32.496 -10.625 -21.955  0.00  0.00    +0.078 C 
ATOM     22  C   UNL     1      32.077 -12.175 -20.232  0.00  0.00    +0.186 C 
ATOM     23  C   UNL     1      31.100 -10.409 -21.405  0.00  0.00    +0.146 C 
ENDBRANCH  18  20
ENDBRANCH  16  18
ENDBRANCH  13  15
ENDBRANCH   7  13
ENDBRANCH   2   9
BRANCH   3  24
ATOM     24  C   UNL     1      35.781 -21.424 -18.578  0.00  0.00    +0.055 C 
ATOM     25  C   UNL     1      35.398 -22.813 -16.212  0.00  0.00    +0.070 C 
ATOM     26  C   UNL     1      34.407 -22.819 -17.193  0.00  0.00    +0.143 C 
ATOM     27  C   UNL     1      34.598 -22.120 -18.385  0.00  0.00    +0.052 C 
ATOM     28  C   UNL     1      36.776 -21.408 -17.615  0.00  0.00    +0.015 C 
ATOM     29  C   UNL     1      36.583 -22.107 -16.423  0.00  0.00    +0.007 C 
BRANCH  25  32
ATOM     30  O   UNL     1      35.989 -24.635 -14.808  0.00  0.00    -0.431 OA
ATOM     31  N   UNL     1      34.694 -24.381 -12.971  0.00  0.00    -0.203 NA
ATOM     32  C   UNL     1      35.219 -23.530 -14.971  0.00  0.00    +0.169 C 
ATOM     33  C   UNL     1      34.436 -23.375 -13.866  0.00  0.00    +0.140 C 
ATOM     34  C   UNL     1      35.616 -25.092 -13.581  0.00  0.00    +0.285 C 
ENDBRANCH  25  32
BRANCH  26  35
ATOM     35  O   UNL     1      33.239 -23.501 -17.013  0.00  0.00    -0.471 OA
ATOM     36  C   UNL     1      32.075 -22.726 -16.737  0.00  0.00    +0.252 C 
ENDBRANCH  26  35
ENDBRANCH   3  24
TORSDOF 8
ENDMDL
MODEL 7
REMARK VINA RESULT:     -10.7      3.092      4.797
REMARK  Name = 153241
REMARK  8 active torsions:
REMARK  status: ('A' for Active; 'I' for Inactive)
REMARK    1  A    between atoms: N_2  and  C_9
REMARK    2  A    between atoms: N_3  and  C_24
REMARK    3  A    between atoms: C_7  and  C_13
REMARK    4  A    between atoms: C_13  and  N_15
REMARK    5  A    between atoms: C_16  and  O_18
REMARK    6  A    between atoms: O_18  and  C_20
REMARK    7  A    between atoms: C_25  and  C_32
REMARK    8  A    between atoms: C_26  and  O_35
REMARK                            x       y       z     vdW  Elec       q    Type
REMARK                         _______ _______ _______ _____ _____    ______ ____
ROOT
ATOM      1  O   UNL     1      34.495 -15.863 -20.216  0.00  0.00    -0.252 OA
ATOM      2  N   UNL     1      35.174 -17.456 -21.795  0.00  0.00    -0.268 N 
ATOM      3  N   UNL     1      34.531 -15.352 -22.497  0.00  0.00    -0.268 N 
ATOM      4  C   UNL     1      34.709 -16.183 -21.380  0.00  0.00    +0.308 C 
ATOM      5  H   UNL     1      35.301 -17.569 -22.765  0.00  0.00    +0.156 HD
ATOM      6  H   UNL     1      34.745 -15.751 -23.371  0.00  0.00    +0.156 HD
ENDROOT
BRANCH   2   9
ATOM      7  C   UNL     1      34.777 -20.543 -19.824  0.00  0.00    -0.001 C 
ATOM      8  C   UNL     1      34.464 -19.436 -20.605  0.00  0.00    +0.012 C 
ATOM      9  C   UNL     1      35.479 -18.569 -21.011  0.00  0.00    +0.051 C 
ATOM     10  C   UNL     1      36.091 -20.796 -19.445  0.00  0.00    -0.003 C 
ATOM     11  C   UNL     1      36.800 -18.816 -20.635  0.00  0.00    +0.015 C 
ATOM     12  C   UNL     1      37.105 -19.929 -19.852  0.00  0.00    +0.001 C 
BRANCH   7  13
ATOM     13  C   UNL     1      33.686 -21.475 -19.386  0.00  0.00    +0.119 C 
BRANCH  13  15
ATOM     14  O   UNL     1      32.119 -22.659 -17.245  0.00  0.00    -0.226 OA
ATOM     15  N   UNL     1      34.135 -22.389 -18.362  0.00  0.00    -0.267 N 
ATOM     16  C   UNL     1      33.313 -22.903 -17.380  0.00  0.00    +0.402 C 
ATOM     17  H   UNL     1      35.081 -22.661 -18.364  0.00  0.00    +0.153 HD
BRANCH  16  18
ATOM     18  O   UNL     1      34.028 -23.737 -16.560  0.00  0.00    -0.436 OA
BRANCH  18  20
ATOM     19  O   UNL     1      36.621 -24.156 -15.041  0.00  0.00    -0.350 OA
ATOM     20  C   UNL     1      34.485 -23.173 -15.335  0.00  0.00    +0.202 C 
ATOM     21  C   UNL     1      34.395 -24.197 -14.231  0.00  0.00    +0.078 C 
ATOM     22  C   UNL     1      35.977 -22.931 -15.431  0.00  0.00    +0.186 C 
ATOM     23  C   UNL     1      35.639 -25.029 -14.467  0.00  0.00    +0.146 C 
ENDBRANCH  18  20
ENDBRANCH  16  18
ENDBRANCH  13  15
ENDBRANCH   7  13
ENDBRANCH   2   9
BRANCH   3  24
ATOM     24  C   UNL     1      34.081 -14.011 -22.522  0.00  0.00    +0.055 C 
ATOM     25  C   UNL     1      33.200 -11.384 -22.570  0.00  0.00    +0.070 C 
ATOM     26  C   UNL     1      33.769 -11.951 -23.711  0.00  0.00    +0.143 C 
ATOM     27  C   UNL     1      34.213 -13.273 -23.687  0.00  0.00    +0.052 C 
ATOM     28  C   UNL     1      33.518 -13.463 -21.380  0.00  0.00    +0.015 C 
ATOM     29  C   UNL     1      33.075 -12.141 -21.405  0.00  0.00    +0.007 C 
BRANCH  25  32
ATOM     30  O   UNL     1      31.511  -9.805 -22.029  0.00  0.00    -0.431 OA
ATOM     31  N   UNL     1      32.336  -7.823 -22.742  0.00  0.00    -0.203 NA
ATOM     32  C   UNL     1      32.735 -10.017 -22.574  0.00  0.00    +0.169 C 
ATOM     33  C   UNL     1      33.235  -8.823 -23.006  0.00  0.00    +0.140 C 
ATOM     34  C   UNL     1      31.341  -8.461 -22.166  0.00  0.00    +0.285 C 
ENDBRANCH  25  32
BRANCH  26  35
ATOM     35  O   UNL     1      33.904 -11.234 -24.863  0.00  0.00    -0.471 OA
ATOM     36  C   UNL     1      33.657 -11.923 -26.086  0.00  0.00    +0.252 C 
ENDBRANCH  26  35
ENDBRANCH   3  24
TORSDOF 8
ENDMDL
MODEL 8
REMARK VINA RESULT:     -10.7      4.100      7.310
REMARK  Name = 153241
REMARK  8 active torsions:
REMARK  status: ('A' for Active; 'I' for Inactive)
REMARK    1  A    between atoms: N_2  and  C_9
REMARK    2  A    between atoms: N_3  and  C_24
REMARK    3  A    between atoms: C_7  and  C_13
REMARK    4  A    between atoms: C_13  and  N_15
REMARK    5  A    between atoms: C_16  and  O_18
REMARK    6  A    between atoms: O_18  and  C_20
REMARK    7  A    between atoms: C_25  and  C_32
REMARK    8  A    between atoms: C_26  and  O_35
REMARK                            x       y       z     vdW  Elec       q    Type
REMARK                         _______ _______ _______ _____ _____    ______ ____
ROOT
ATOM      1  O   UNL     1      33.570 -14.097 -21.985  0.00  0.00    -0.252 OA
ATOM      2  N   UNL     1      34.456 -14.959 -23.976  0.00  0.00    -0.268 N 
ATOM      3  N   UNL     1      34.037 -12.695 -23.798  0.00  0.00    -0.268 N 
ATOM      4  C   UNL     1      33.976 -13.928 -23.130  0.00  0.00    +0.308 C 
ATOM      5  H   UNL     1      34.750 -14.674 -24.871  0.00  0.00    +0.156 HD
ATOM      6  H   UNL     1      34.388 -12.718 -24.717  0.00  0.00    +0.156 HD
ENDROOT
BRANCH   2   9
ATOM      7  C   UNL     1      35.451 -18.125 -22.377  0.00  0.00    -0.001 C 
ATOM      8  C   UNL     1      35.346 -16.763 -22.637  0.00  0.00    +0.012 C 
ATOM      9  C   UNL     1      34.567 -16.324 -23.707  0.00  0.00    +0.051 C 
ATOM     10  C   UNL     1      34.787 -19.053 -23.172  0.00  0.00    -0.003 C 
ATOM     11  C   UNL     1      33.898 -17.248 -24.510  0.00  0.00    +0.015 C 
ATOM     12  C   UNL     1      34.008 -18.612 -24.242  0.00  0.00    +0.001 C 
BRANCH   7  13
ATOM     13  C   UNL     1      36.289 -18.599 -21.226  0.00  0.00    +0.119 C 
BRANCH  13  15
ATOM     14  O   UNL     1      37.176 -20.843 -19.609  0.00  0.00    -0.226 OA
ATOM     15  N   UNL     1      35.518 -19.363 -20.273  0.00  0.00    -0.267 N 
ATOM     16  C   UNL     1      36.028 -20.419 -19.547  0.00  0.00    +0.402 C 
ATOM     17  H   UNL     1      34.574 -19.117 -20.136  0.00  0.00    +0.153 HD
BRANCH  16  18
ATOM     18  O   UNL     1      35.056 -20.939 -18.733  0.00  0.00    -0.436 OA
BRANCH  18  20
ATOM     19  O   UNL     1      32.307 -21.811 -17.790  0.00  0.00    -0.350 OA
ATOM     20  C   UNL     1      34.074 -21.752 -19.368  0.00  0.00    +0.202 C 
ATOM     21  C   UNL     1      34.044 -23.119 -18.731  0.00  0.00    +0.078 C 
ATOM     22  C   UNL     1      32.698 -21.211 -19.037  0.00  0.00    +0.186 C 
ATOM     23  C   UNL     1      33.224 -22.870 -17.481  0.00  0.00    +0.146 C 
ENDBRANCH  18  20
ENDBRANCH  16  18
ENDBRANCH  13  15
ENDBRANCH   7  13
ENDBRANCH   2   9
BRANCH   3  24
ATOM     24  C   UNL     1      33.654 -11.422 -23.312  0.00  0.00    +0.055 C 
ATOM     25  C   UNL     1      32.905  -8.930 -22.361  0.00  0.00    +0.070 C 
ATOM     26  C   UNL     1      32.282 -10.079 -21.874  0.00  0.00    +0.143 C 
ATOM     27  C   UNL     1      32.659 -11.334 -22.353  0.00  0.00    +0.052 C 
ATOM     28  C   UNL     1      34.283 -10.291 -23.806  0.00  0.00    +0.015 C 
ATOM     29  C   UNL     1      33.906  -9.036 -23.327  0.00  0.00    +0.007 C 
BRANCH  25  32
ATOM     30  O   UNL     1      31.343  -7.141 -22.327  0.00  0.00    -0.431 OA
ATOM     31  N   UNL     1      32.265  -5.607 -20.945  0.00  0.00    -0.203 NA
ATOM     32  C   UNL     1      32.530  -7.621 -21.878  0.00  0.00    +0.169 C 
ATOM     33  C   UNL     1      33.089  -6.697 -21.045  0.00  0.00    +0.140 C 
ATOM     34  C   UNL     1      31.254  -5.925 -21.721  0.00  0.00    +0.285 C 
ENDBRANCH  25  32
BRANCH  26  35
ATOM     35  O   UNL     1      31.301 -10.004 -20.930  0.00  0.00    -0.471 OA
ATOM     36  C   UNL     1      31.606 -10.524 -19.638  0.00  0.00    +0.252 C 
ENDBRANCH  26  35
ENDBRANCH   3  24
TORSDOF 8
ENDMDL
MODEL 9
REMARK VINA RESULT:     -10.5      1.532      2.242
REMARK  Name = 153241
REMARK  8 active torsions:
REMARK  status: ('A' for Active; 'I' for Inactive)
REMARK    1  A    between atoms: N_2  and  C_9
REMARK    2  A    between atoms: N_3  and  C_24
REMARK    3  A    between atoms: C_7  and  C_13
REMARK    4  A    between atoms: C_13  and  N_15
REMARK    5  A    between atoms: C_16  and  O_18
REMARK    6  A    between atoms: O_18  and  C_20
REMARK    7  A    between atoms: C_25  and  C_32
REMARK    8  A    between atoms: C_26  and  O_35
REMARK                            x       y       z     vdW  Elec       q    Type
REMARK                         _______ _______ _______ _____ _____    ______ ____
ROOT
ATOM      1  O   UNL     1      34.937 -18.317 -20.165  0.00  0.00    -0.252 OA
ATOM      2  N   UNL     1      35.158 -20.605 -20.619  0.00  0.00    -0.268 N 
ATOM      3  N   UNL     1      34.769 -19.130 -22.352  0.00  0.00    -0.268 N 
ATOM      4  C   UNL     1      34.952 -19.247 -20.965  0.00  0.00    +0.308 C 
ATOM      5  H   UNL     1      35.145 -21.244 -21.368  0.00  0.00    +0.156 HD
ATOM      6  H   UNL     1      34.809 -19.969 -22.866  0.00  0.00    +0.156 HD
ENDROOT
BRANCH   2   9
ATOM      7  C   UNL     1      34.593 -22.414 -17.459  0.00  0.00    -0.001 C 
ATOM      8  C   UNL     1      34.363 -21.867 -18.717  0.00  0.00    +0.012 C 
ATOM      9  C   UNL     1      35.380 -21.158 -19.356  0.00  0.00    +0.051 C 
ATOM     10  C   UNL     1      35.826 -22.263 -16.834  0.00  0.00    -0.003 C 
ATOM     11  C   UNL     1      36.620 -21.002 -18.735  0.00  0.00    +0.015 C 
ATOM     12  C   UNL     1      36.842 -21.554 -17.475  0.00  0.00    +0.001 C 
BRANCH   7  13
ATOM     13  C   UNL     1      33.500 -23.176 -16.770  0.00  0.00    +0.119 C 
BRANCH  13  15
ATOM     14  O   UNL     1      32.546 -22.862 -14.044  0.00  0.00    -0.226 OA
ATOM     15  N   UNL     1      33.975 -23.849 -15.582  0.00  0.00    -0.267 N 
ATOM     16  C   UNL     1      33.457 -23.633 -14.322  0.00  0.00    +0.402 C 
ATOM     17  H   UNL     1      34.710 -24.496 -15.678  0.00  0.00    +0.153 HD
BRANCH  16  18
ATOM     18  O   UNL     1      34.114 -24.415 -13.407  0.00  0.00    -0.436 OA
BRANCH  18  20
ATOM     19  O   UNL     1      37.131 -24.289 -13.112  0.00  0.00    -0.350 OA
ATOM     20  C   UNL     1      34.923 -23.725 -12.460  0.00  0.00    +0.202 C 
ATOM     21  C   UNL     1      35.487 -24.700 -11.456  0.00  0.00    +0.078 C 
ATOM     22  C   UNL     1      36.171 -23.219 -13.154  0.00  0.00    +0.186 C 
ATOM     23  C   UNL     1      36.652 -25.301 -12.216  0.00  0.00    +0.146 C 
ENDBRANCH  18  20
ENDBRANCH  16  18
ENDBRANCH  13  15
ENDBRANCH   7  13
ENDBRANCH   2   9
BRANCH   3  24
ATOM     24  C   UNL     1      34.535 -17.954 -23.103  0.00  0.00    +0.055 C 
ATOM     25  C   UNL     1      34.076 -15.651 -24.573  0.00  0.00    +0.070 C 
ATOM     26  C   UNL     1      34.721 -15.573 -23.339  0.00  0.00    +0.143 C 
ATOM     27  C   UNL     1      34.952 -16.733 -22.598  0.00  0.00    +0.052 C 
ATOM     28  C   UNL     1      33.893 -18.047 -24.327  0.00  0.00    +0.015 C 
ATOM     29  C   UNL     1      33.662 -16.888 -25.067  0.00  0.00    +0.007 C 
BRANCH  25  32
ATOM     30  O   UNL     1      32.869 -13.628 -24.879  0.00  0.00    -0.431 OA
ATOM     31  N   UNL     1      33.706 -12.749 -26.788  0.00  0.00    -0.203 NA
ATOM     32  C   UNL     1      33.827 -14.462 -25.355  0.00  0.00    +0.169 C 
ATOM     33  C   UNL     1      34.333 -13.935 -26.507  0.00  0.00    +0.140 C 
ATOM     34  C   UNL     1      32.855 -12.621 -25.795  0.00  0.00    +0.285 C 
ENDBRANCH  25  32
BRANCH  26  35
ATOM     35  O   UNL     1      35.136 -14.377 -22.832  0.00  0.00    -0.471 OA
ATOM     36  C   UNL     1      34.458 -13.895 -21.674  0.00  0.00    +0.252 C 
ENDBRANCH  26  35
ENDBRANCH   3  24
TORSDOF 8
ENDMDL
