MODEL 1
REMARK VINA RESULT:     -11.6      0.000      0.000
REMARK  Name = 70798655
REMARK  2 active torsions:
REMARK  status: ('A' for Active; 'I' for Inactive)
REMARK    1  A    between atoms: C_3  and  C_29
REMARK    2  A    between atoms: C_5  and  C_13
REMARK                            x       y       z     vdW  Elec       q    Type
REMARK                         _______ _______ _______ _____ _____    ______ ____
ROOT
ATOM      1  N   UNL     1      33.945 -23.559 -14.802  0.00  0.00    -0.245 N 
ATOM      2  N   UNL     1      32.372 -24.569 -13.576  0.00  0.00    -0.227 NA
ATOM      3  C   UNL     1      34.563 -23.993 -13.656  0.00  0.00    +0.130 C 
ATOM      4  C   UNL     1      32.611 -23.935 -14.705  0.00  0.00    +0.139 C 
ATOM      5  C   UNL     1      33.684 -22.537 -16.926  0.00  0.00    +0.012 C 
ATOM      6  C   UNL     1      34.481 -22.873 -15.888  0.00  0.00    +0.071 C 
ATOM      7  C   UNL     1      33.578 -24.608 -12.922  0.00  0.00    +0.120 C 
ATOM      8  C   UNL     1      31.763 -23.587 -15.793  0.00  0.00    +0.035 C 
ATOM      9  C   UNL     1      32.271 -22.924 -16.850  0.00  0.00    +0.004 C 
ENDROOT
BRANCH   5  13
ATOM     10  O   UNL     1      35.674 -19.774 -21.316  0.00  0.00    -0.414 OA
ATOM     11  N   UNL     1      33.420 -19.750 -21.075  0.00  0.00    -0.356 NA
ATOM     12  N   UNL     1      34.490 -18.615 -22.908  0.00  0.00    -0.302 N 
ATOM     13  C   UNL     1      34.260 -21.817 -18.077  0.00  0.00    -0.014 C 
ATOM     14  C   UNL     1      33.406 -21.152 -18.969  0.00  0.00    +0.089 C 
ATOM     15  C   UNL     1      35.650 -21.809 -18.260  0.00  0.00    -0.001 C 
ATOM     16  C   UNL     1      33.983 -20.476 -20.054  0.00  0.00    +0.152 C 
ATOM     17  C   UNL     1      35.363 -20.494 -20.198  0.00  0.00    +0.175 C 
ATOM     18  C   UNL     1      36.240 -21.139 -19.337  0.00  0.00    +0.040 C 
ATOM     19  C   UNL     1      34.461 -19.364 -21.781  0.00  0.00    +0.341 C 
ATOM     20  H   UNL     1      35.351 -18.401 -23.335  0.00  0.00    +0.148 HD
ATOM     21  H   UNL     1      33.650 -18.284 -23.300  0.00  0.00    +0.148 HD
ENDBRANCH   5  13
BRANCH   3  29
ATOM     22  O   UNL     1      38.649 -26.946 -14.028  0.00  0.00    -0.350 OA
ATOM     23  O   UNL     1      36.260 -22.847 -12.616  0.00  0.00    -0.268 OA
ATOM     24  N   UNL     1      36.897 -24.750 -13.812  0.00  0.00    -0.270 N 
ATOM     25  C   UNL     1      38.319 -24.607 -13.503  0.00  0.00    +0.126 C 
ATOM     26  C   UNL     1      36.581 -25.869 -14.708  0.00  0.00    +0.126 C 
ATOM     27  C   UNL     1      37.245 -27.147 -14.209  0.00  0.00    +0.164 C 
ATOM     28  C   UNL     1      38.899 -25.936 -13.046  0.00  0.00    +0.164 C 
ATOM     29  C   UNL     1      35.982 -23.819 -13.317  0.00  0.00    +0.265 C 
ENDBRANCH   3  29
TORSDOF 2
ENDMDL
MODEL 2
REMARK VINA RESULT:     -11.1      1.254      1.842
REMARK  Name = 70798655
REMARK  2 active torsions:
REMARK  status: ('A' for Active; 'I' for Inactive)
REMARK    1  A    between atoms: C_3  and  C_29
REMARK    2  A    between atoms: C_5  and  C_13
REMARK                            x       y       z     vdW  Elec       q    Type
REMARK                         _______ _______ _______ _____ _____    ______ ____
ROOT
ATOM      1  N   UNL     1      33.538 -23.857 -15.128  0.00  0.00    -0.245 N 
ATOM      2  N   UNL     1      31.869 -24.566 -13.820  0.00  0.00    -0.227 NA
ATOM      3  C   UNL     1      34.113 -24.616 -14.140  0.00  0.00    +0.130 C 
ATOM      4  C   UNL     1      32.169 -23.858 -14.889  0.00  0.00    +0.139 C 
ATOM      5  C   UNL     1      33.377 -22.491 -17.060  0.00  0.00    +0.012 C 
ATOM      6  C   UNL     1      34.140 -23.190 -16.191  0.00  0.00    +0.071 C 
ATOM      7  C   UNL     1      33.069 -25.037 -13.351  0.00  0.00    +0.120 C 
ATOM      8  C   UNL     1      31.356 -23.126 -15.799  0.00  0.00    +0.035 C 
ATOM      9  C   UNL     1      31.927 -22.477 -16.832  0.00  0.00    +0.004 C 
ENDROOT
BRANCH   5  13
ATOM     10  O   UNL     1      35.625 -19.799 -21.369  0.00  0.00    -0.414 OA
ATOM     11  N   UNL     1      33.368 -19.673 -21.196  0.00  0.00    -0.356 NA
ATOM     12  N   UNL     1      34.544 -18.578 -22.988  0.00  0.00    -0.302 N 
ATOM     13  C   UNL     1      34.020 -21.792 -18.189  0.00  0.00    -0.014 C 
ATOM     14  C   UNL     1      33.225 -21.083 -19.101  0.00  0.00    +0.089 C 
ATOM     15  C   UNL     1      35.414 -21.848 -18.329  0.00  0.00    -0.001 C 
ATOM     16  C   UNL     1      33.865 -20.429 -20.164  0.00  0.00    +0.152 C 
ATOM     17  C   UNL     1      35.247 -20.510 -20.266  0.00  0.00    +0.175 C 
ATOM     18  C   UNL     1      36.067 -21.200 -19.383  0.00  0.00    +0.040 C 
ATOM     19  C   UNL     1      34.446 -19.331 -21.868  0.00  0.00    +0.341 C 
ATOM     20  H   UNL     1      35.427 -18.402 -23.387  0.00  0.00    +0.148 HD
ATOM     21  H   UNL     1      33.733 -18.207 -23.403  0.00  0.00    +0.148 HD
ENDBRANCH   5  13
BRANCH   3  29
ATOM     22  O   UNL     1      37.446 -23.908 -10.407  0.00  0.00    -0.350 OA
ATOM     23  O   UNL     1      36.159 -25.188 -15.012  0.00  0.00    -0.268 OA
ATOM     24  N   UNL     1      36.098 -24.822 -12.705  0.00  0.00    -0.270 N 
ATOM     25  C   UNL     1      37.519 -25.105 -12.508  0.00  0.00    +0.126 C 
ATOM     26  C   UNL     1      35.358 -24.548 -11.467  0.00  0.00    +0.126 C 
ATOM     27  C   UNL     1      36.093 -23.505 -10.634  0.00  0.00    +0.164 C 
ATOM     28  C   UNL     1      38.158 -24.031 -11.641  0.00  0.00    +0.164 C 
ATOM     29  C   UNL     1      35.547 -24.897 -13.985  0.00  0.00    +0.265 C 
ENDBRANCH   3  29
TORSDOF 2
ENDMDL
MODEL 3
REMARK VINA RESULT:     -10.8      1.332      1.807
REMARK  Name = 70798655
REMARK  2 active torsions:
REMARK  status: ('A' for Active; 'I' for Inactive)
REMARK    1  A    between atoms: C_3  and  C_29
REMARK    2  A    between atoms: C_5  and  C_13
REMARK                            x       y       z     vdW  Elec       q    Type
REMARK                         _______ _______ _______ _____ _____    ______ ____
ROOT
ATOM      1  N   UNL     1      34.752 -22.868 -16.395  0.00  0.00    -0.245 N 
ATOM      2  N   UNL     1      33.183 -24.045 -15.322  0.00  0.00    -0.227 NA
ATOM      3  C   UNL     1      35.377 -23.474 -15.334  0.00  0.00    +0.130 C 
ATOM      4  C   UNL     1      33.416 -23.248 -16.344  0.00  0.00    +0.139 C 
ATOM      5  C   UNL     1      34.480 -21.534 -18.336  0.00  0.00    +0.012 C 
ATOM      6  C   UNL     1      35.284 -22.028 -17.369  0.00  0.00    +0.071 C 
ATOM      7  C   UNL     1      34.393 -24.189 -14.693  0.00  0.00    +0.120 C 
ATOM      8  C   UNL     1      32.562 -22.735 -17.360  0.00  0.00    +0.035 C 
ATOM      9  C   UNL     1      33.066 -21.921 -18.308  0.00  0.00    +0.004 C 
ENDROOT
BRANCH   5  13
ATOM     10  O   UNL     1      36.454 -18.179 -22.302  0.00  0.00    -0.414 OA
ATOM     11  N   UNL     1      34.213 -18.523 -22.326  0.00  0.00    -0.356 NA
ATOM     12  N   UNL     1      35.274 -17.104 -23.954  0.00  0.00    -0.302 N 
ATOM     13  C   UNL     1      35.052 -20.650 -19.371  0.00  0.00    -0.014 C 
ATOM     14  C   UNL     1      34.202 -20.062 -20.318  0.00  0.00    +0.089 C 
ATOM     15  C   UNL     1      36.433 -20.414 -19.388  0.00  0.00    -0.001 C 
ATOM     16  C   UNL     1      34.774 -19.226 -21.288  0.00  0.00    +0.152 C 
ATOM     17  C   UNL     1      36.146 -19.019 -21.270  0.00  0.00    +0.175 C 
ATOM     18  C   UNL     1      37.019 -19.582 -20.349  0.00  0.00    +0.040 C 
ATOM     19  C   UNL     1      35.247 -17.929 -22.882  0.00  0.00    +0.341 C 
ATOM     20  H   UNL     1      36.130 -16.728 -24.264  0.00  0.00    +0.148 HD
ATOM     21  H   UNL     1      34.439 -16.879 -24.423  0.00  0.00    +0.148 HD
ENDBRANCH   5  13
BRANCH   3  29
ATOM     22  O   UNL     1      38.708 -26.576 -13.135  0.00  0.00    -0.350 OA
ATOM     23  O   UNL     1      37.287 -22.233 -15.039  0.00  0.00    -0.268 OA
ATOM     24  N   UNL     1      37.485 -24.525 -14.630  0.00  0.00    -0.270 N 
ATOM     25  C   UNL     1      38.904 -24.455 -14.284  0.00  0.00    +0.126 C 
ATOM     26  C   UNL     1      36.928 -25.883 -14.635  0.00  0.00    +0.126 C 
ATOM     27  C   UNL     1      37.293 -26.607 -13.344  0.00  0.00    +0.164 C 
ATOM     28  C   UNL     1      39.177 -25.231 -13.004  0.00  0.00    +0.164 C 
ATOM     29  C   UNL     1      36.799 -23.362 -14.985  0.00  0.00    +0.265 C 
ENDBRANCH   3  29
TORSDOF 2
ENDMDL
MODEL 4
REMARK VINA RESULT:     -10.4      4.327     10.621
REMARK  Name = 70798655
REMARK  2 active torsions:
REMARK  status: ('A' for Active; 'I' for Inactive)
REMARK    1  A    between atoms: C_3  and  C_29
REMARK    2  A    between atoms: C_5  and  C_13
REMARK                            x       y       z     vdW  Elec       q    Type
REMARK                         _______ _______ _______ _____ _____    ______ ____
ROOT
ATOM      1  N   UNL     1      34.757 -16.715 -22.159  0.00  0.00    -0.245 N 
ATOM      2  N   UNL     1      35.038 -15.916 -24.229  0.00  0.00    -0.227 NA
ATOM      3  C   UNL     1      34.559 -15.360 -22.083  0.00  0.00    +0.130 C 
ATOM      4  C   UNL     1      35.045 -17.005 -23.488  0.00  0.00    +0.139 C 
ATOM      5  C   UNL     1      34.929 -18.971 -21.448  0.00  0.00    +0.012 C 
ATOM      6  C   UNL     1      34.697 -17.674 -21.151  0.00  0.00    +0.071 C 
ATOM      7  C   UNL     1      34.738 -14.894 -23.364  0.00  0.00    +0.120 C 
ATOM      8  C   UNL     1      35.289 -18.369 -23.811  0.00  0.00    +0.035 C 
ATOM      9  C   UNL     1      35.234 -19.305 -22.844  0.00  0.00    +0.004 C 
ENDROOT
BRANCH   5  13
ATOM     10  O   UNL     1      34.460 -22.770 -17.421  0.00  0.00    -0.414 OA
ATOM     11  N   UNL     1      32.509 -21.957 -18.242  0.00  0.00    -0.356 NA
ATOM     12  N   UNL     1      32.533 -23.612 -16.495  0.00  0.00    -0.302 N 
ATOM     13  C   UNL     1      34.856 -19.983 -20.377  0.00  0.00    -0.014 C 
ATOM     14  C   UNL     1      33.601 -20.401 -19.911  0.00  0.00    +0.089 C 
ATOM     15  C   UNL     1      36.041 -20.509 -19.844  0.00  0.00    -0.001 C 
ATOM     16  C   UNL     1      33.563 -21.363 -18.892  0.00  0.00    +0.152 C 
ATOM     17  C   UNL     1      34.760 -21.858 -18.392  0.00  0.00    +0.175 C 
ATOM     18  C   UNL     1      36.020 -21.470 -18.827  0.00  0.00    +0.040 C 
ATOM     19  C   UNL     1      33.098 -22.772 -17.393  0.00  0.00    +0.341 C 
ATOM     20  H   UNL     1      33.103 -24.169 -15.916  0.00  0.00    +0.148 HD
ATOM     21  H   UNL     1      31.554 -23.665 -16.419  0.00  0.00    +0.148 HD
ENDBRANCH   5  13
BRANCH   3  29
ATOM     22  O   UNL     1      31.712 -11.285 -21.167  0.00  0.00    -0.350 OA
ATOM     23  O   UNL     1      34.909 -14.837 -19.875  0.00  0.00    -0.268 OA
ATOM     24  N   UNL     1      33.180 -13.679 -20.937  0.00  0.00    -0.270 N 
ATOM     25  C   UNL     1      32.815 -12.907 -19.750  0.00  0.00    +0.126 C 
ATOM     26  C   UNL     1      32.318 -13.443 -22.102  0.00  0.00    +0.126 C 
ATOM     27  C   UNL     1      32.166 -11.947 -22.350  0.00  0.00    +0.164 C 
ATOM     28  C   UNL     1      32.654 -11.436 -20.102  0.00  0.00    +0.164 C 
ATOM     29  C   UNL     1      34.229 -14.598 -20.872  0.00  0.00    +0.265 C 
ENDBRANCH   3  29
TORSDOF 2
ENDMDL
MODEL 5
REMARK VINA RESULT:     -10.3      2.902      4.728
REMARK  Name = 70798655
REMARK  2 active torsions:
REMARK  status: ('A' for Active; 'I' for Inactive)
REMARK    1  A    between atoms: C_3  and  C_29
REMARK    2  A    between atoms: C_5  and  C_13
REMARK                            x       y       z     vdW  Elec       q    Type
REMARK                         _______ _______ _______ _____ _____    ______ ____
ROOT
ATOM      1  N   UNL     1      34.772 -22.580 -16.586  0.00  0.00    -0.245 N 
ATOM      2  N   UNL     1      35.625 -23.643 -14.813  0.00  0.00    -0.227 NA
ATOM      3  C   UNL     1      33.717 -23.183 -15.949  0.00  0.00    +0.130 C 
ATOM      4  C   UNL     1      35.912 -22.889 -15.855  0.00  0.00    +0.139 C 
ATOM      5  C   UNL     1      35.943 -21.296 -18.200  0.00  0.00    +0.012 C 
ATOM      6  C   UNL     1      34.777 -21.798 -17.738  0.00  0.00    +0.071 C 
ATOM      7  C   UNL     1      34.267 -23.828 -14.867  0.00  0.00    +0.120 C 
ATOM      8  C   UNL     1      37.145 -22.363 -16.332  0.00  0.00    +0.035 C 
ATOM      9  C   UNL     1      37.162 -21.606 -17.446  0.00  0.00    +0.004 C 
ENDROOT
BRANCH   5  13
ATOM     10  O   UNL     1      35.746 -18.211 -22.816  0.00  0.00    -0.414 OA
ATOM     11  N   UNL     1      33.861 -19.370 -22.324  0.00  0.00    -0.356 NA
ATOM     12  N   UNL     1      33.989 -17.971 -24.278  0.00  0.00    -0.302 N 
ATOM     13  C   UNL     1      35.939 -20.462 -19.417  0.00  0.00    -0.014 C 
ATOM     14  C   UNL     1      34.786 -20.415 -20.215  0.00  0.00    +0.089 C 
ATOM     15  C   UNL     1      37.086 -19.731 -19.755  0.00  0.00    -0.001 C 
ATOM     16  C   UNL     1      34.813 -19.614 -21.365  0.00  0.00    +0.152 C 
ATOM     17  C   UNL     1      35.969 -18.906 -21.663  0.00  0.00    +0.175 C 
ATOM     18  C   UNL     1      37.128 -18.926 -20.898  0.00  0.00    +0.040 C 
ATOM     19  C   UNL     1      34.466 -18.541 -23.147  0.00  0.00    +0.341 C 
ATOM     20  H   UNL     1      34.560 -17.363 -24.801  0.00  0.00    +0.148 HD
ATOM     21  H   UNL     1      33.072 -18.165 -24.577  0.00  0.00    +0.148 HD
ENDBRANCH   5  13
BRANCH   3  29
ATOM     22  O   UNL     1      29.401 -24.866 -13.927  0.00  0.00    -0.350 OA
ATOM     23  O   UNL     1      32.094 -22.792 -17.525  0.00  0.00    -0.268 OA
ATOM     24  N   UNL     1      31.332 -23.460 -15.421  0.00  0.00    -0.270 N 
ATOM     25  C   UNL     1      29.919 -23.413 -15.792  0.00  0.00    +0.126 C 
ATOM     26  C   UNL     1      31.578 -23.795 -14.012  0.00  0.00    +0.126 C 
ATOM     27  C   UNL     1      30.787 -25.037 -13.620  0.00  0.00    +0.164 C 
ATOM     28  C   UNL     1      29.207 -24.676 -15.332  0.00  0.00    +0.164 C 
ATOM     29  C   UNL     1      32.309 -23.132 -16.363  0.00  0.00    +0.265 C 
ENDBRANCH   3  29
TORSDOF 2
ENDMDL
MODEL 6
REMARK VINA RESULT:      -9.7      7.852     12.706
REMARK  Name = 70798655
REMARK  2 active torsions:
REMARK  status: ('A' for Active; 'I' for Inactive)
REMARK    1  A    between atoms: C_3  and  C_29
REMARK    2  A    between atoms: C_5  and  C_13
REMARK                            x       y       z     vdW  Elec       q    Type
REMARK                         _______ _______ _______ _____ _____    ______ ____
ROOT
ATOM      1  N   UNL     1      34.047 -14.089 -23.965  0.00  0.00    -0.245 N 
ATOM      2  N   UNL     1      34.256 -15.242 -25.869  0.00  0.00    -0.227 NA
ATOM      3  C   UNL     1      34.538 -15.323 -23.621  0.00  0.00    +0.130 C 
ATOM      4  C   UNL     1      33.892 -14.089 -25.346  0.00  0.00    +0.139 C 
ATOM      5  C   UNL     1      33.261 -11.867 -23.703  0.00  0.00    +0.012 C 
ATOM      6  C   UNL     1      33.740 -13.002 -23.150  0.00  0.00    +0.071 C 
ATOM      7  C   UNL     1      34.656 -16.010 -24.805  0.00  0.00    +0.120 C 
ATOM      8  C   UNL     1      33.390 -12.897 -25.938  0.00  0.00    +0.035 C 
ATOM      9  C   UNL     1      33.090 -11.839 -25.159  0.00  0.00    +0.004 C 
ENDROOT
BRANCH   5  13
ATOM     10  O   UNL     1      32.163  -7.419 -20.559  0.00  0.00    -0.414 OA
ATOM     11  N   UNL     1      33.320  -7.017 -22.466  0.00  0.00    -0.356 NA
ATOM     12  N   UNL     1      32.739  -5.232 -20.961  0.00  0.00    -0.302 N 
ATOM     13  C   UNL     1      32.945 -10.717 -22.834  0.00  0.00    -0.014 C 
ATOM     14  C   UNL     1      33.365  -9.434 -23.213  0.00  0.00    +0.089 C 
ATOM     15  C   UNL     1      32.231 -10.926 -21.646  0.00  0.00    -0.001 C 
ATOM     16  C   UNL     1      33.051  -8.360 -22.368  0.00  0.00    +0.152 C 
ATOM     17  C   UNL     1      32.343  -8.611 -21.201  0.00  0.00    +0.175 C 
ATOM     18  C   UNL     1      31.909  -9.865 -20.792  0.00  0.00    +0.040 C 
ATOM     19  C   UNL     1      32.774  -6.519 -21.378  0.00  0.00    +0.341 C 
ATOM     20  H   UNL     1      32.290  -5.001 -20.115  0.00  0.00    +0.148 HD
ATOM     21  H   UNL     1      33.161  -4.528 -21.503  0.00  0.00    +0.148 HD
ENDBRANCH   5  13
BRANCH   3  29
ATOM     22  O   UNL     1      35.187 -19.871 -21.514  0.00  0.00    -0.350 OA
ATOM     23  O   UNL     1      34.774 -14.941 -21.369  0.00  0.00    -0.268 OA
ATOM     24  N   UNL     1      35.238 -17.114 -22.089  0.00  0.00    -0.270 N 
ATOM     25  C   UNL     1      35.573 -17.606 -20.754  0.00  0.00    +0.126 C 
ATOM     26  C   UNL     1      35.413 -18.102 -23.161  0.00  0.00    +0.126 C 
ATOM     27  C   UNL     1      34.728 -19.411 -22.788  0.00  0.00    +0.164 C 
ATOM     28  C   UNL     1      34.872 -18.929 -20.485  0.00  0.00    +0.164 C 
ATOM     29  C   UNL     1      34.859 -15.781 -22.263  0.00  0.00    +0.265 C 
ENDBRANCH   3  29
TORSDOF 2
ENDMDL
MODEL 7
REMARK VINA RESULT:      -9.5      4.611     11.504
REMARK  Name = 70798655
REMARK  2 active torsions:
REMARK  status: ('A' for Active; 'I' for Inactive)
REMARK    1  A    between atoms: C_3  and  C_29
REMARK    2  A    between atoms: C_5  and  C_13
REMARK                            x       y       z     vdW  Elec       q    Type
REMARK                         _______ _______ _______ _____ _____    ______ ____
ROOT
ATOM      1  N   UNL     1      34.360 -16.882 -23.646  0.00  0.00    -0.245 N 
ATOM      2  N   UNL     1      33.524 -16.809 -25.719  0.00  0.00    -0.227 NA
ATOM      3  C   UNL     1      34.176 -15.556 -23.945  0.00  0.00    +0.130 C 
ATOM      4  C   UNL     1      33.947 -17.605 -24.759  0.00  0.00    +0.139 C 
ATOM      5  C   UNL     1      34.953 -18.810 -22.398  0.00  0.00    +0.012 C 
ATOM      6  C   UNL     1      34.855 -17.465 -22.482  0.00  0.00    +0.071 C 
ATOM      7  C   UNL     1      33.664 -15.538 -25.220  0.00  0.00    +0.120 C 
ATOM      8  C   UNL     1      34.045 -19.022 -24.679  0.00  0.00    +0.035 C 
ATOM      9  C   UNL     1      34.522 -19.597 -23.558  0.00  0.00    +0.004 C 
ENDROOT
BRANCH   5  13
ATOM     10  O   UNL     1      36.738 -21.209 -17.715  0.00  0.00    -0.414 OA
ATOM     11  N   UNL     1      34.658 -21.800 -18.395  0.00  0.00    -0.356 NA
ATOM     12  N   UNL     1      35.623 -22.723 -16.394  0.00  0.00    -0.302 N 
ATOM     13  C   UNL     1      35.472 -19.420 -21.159  0.00  0.00    -0.014 C 
ATOM     14  C   UNL     1      34.671 -20.333 -20.456  0.00  0.00    +0.089 C 
ATOM     15  C   UNL     1      36.753 -19.080 -20.706  0.00  0.00    -0.001 C 
ATOM     16  C   UNL     1      35.191 -20.897 -19.282  0.00  0.00    +0.152 C 
ATOM     17  C   UNL     1      36.464 -20.532 -18.869  0.00  0.00    +0.175 C 
ATOM     18  C   UNL     1      37.286 -19.634 -19.537  0.00  0.00    +0.040 C 
ATOM     19  C   UNL     1      35.611 -21.944 -17.500  0.00  0.00    +0.341 C 
ATOM     20  H   UNL     1      36.414 -22.731 -15.806  0.00  0.00    +0.148 HD
ATOM     21  H   UNL     1      34.843 -23.280 -16.176  0.00  0.00    +0.148 HD
ENDBRANCH   5  13
BRANCH   3  29
ATOM     22  O   UNL     1      33.603 -10.551 -24.358  0.00  0.00    -0.350 OA
ATOM     23  O   UNL     1      35.192 -14.656 -22.092  0.00  0.00    -0.268 OA
ATOM     24  N   UNL     1      33.930 -13.175 -23.386  0.00  0.00    -0.270 N 
ATOM     25  C   UNL     1      34.198 -12.021 -22.529  0.00  0.00    +0.126 C 
ATOM     26  C   UNL     1      33.016 -12.902 -24.502  0.00  0.00    +0.126 C 
ATOM     27  C   UNL     1      33.461 -11.656 -25.255  0.00  0.00    +0.164 C 
ATOM     28  C   UNL     1      34.602 -10.819 -23.370  0.00  0.00    +0.164 C 
ATOM     29  C   UNL     1      34.476 -14.419 -23.064  0.00  0.00    +0.265 C 
ENDBRANCH   3  29
TORSDOF 2
ENDMDL
MODEL 8
REMARK VINA RESULT:      -9.5      3.085      5.431
REMARK  Name = 70798655
REMARK  2 active torsions:
REMARK  status: ('A' for Active; 'I' for Inactive)
REMARK    1  A    between atoms: C_3  and  C_29
REMARK    2  A    between atoms: C_5  and  C_13
REMARK                            x       y       z     vdW  Elec       q    Type
REMARK                         _______ _______ _______ _____ _____    ______ ____
ROOT
ATOM      1  N   UNL     1      35.534 -22.685 -15.934  0.00  0.00    -0.245 N 
ATOM      2  N   UNL     1      37.171 -22.129 -17.353  0.00  0.00    -0.227 NA
ATOM      3  C   UNL     1      36.705 -22.756 -15.224  0.00  0.00    +0.130 C 
ATOM      4  C   UNL     1      35.871 -22.299 -17.226  0.00  0.00    +0.139 C 
ATOM      5  C   UNL     1      33.210 -22.805 -16.390  0.00  0.00    +0.012 C 
ATOM      6  C   UNL     1      34.230 -22.935 -15.514  0.00  0.00    +0.071 C 
ATOM      7  C   UNL     1      37.693 -22.411 -16.116  0.00  0.00    +0.120 C 
ATOM      8  C   UNL     1      34.802 -22.157 -18.155  0.00  0.00    +0.035 C 
ATOM      9  C   UNL     1      33.537 -22.396 -17.760  0.00  0.00    +0.004 C 
ENDROOT
BRANCH   5  13
ATOM     10  O   UNL     1      27.953 -23.634 -14.793  0.00  0.00    -0.414 OA
ATOM     11  N   UNL     1      28.281 -21.943 -16.266  0.00  0.00    -0.356 NA
ATOM     12  N   UNL     1      26.081 -22.473 -15.446  0.00  0.00    -0.302 N 
ATOM     13  C   UNL     1      31.830 -23.064 -15.935  0.00  0.00    -0.014 C 
ATOM     14  C   UNL     1      30.785 -22.267 -16.425  0.00  0.00    +0.089 C 
ATOM     15  C   UNL     1      31.587 -24.101 -15.024  0.00  0.00    -0.001 C 
ATOM     16  C   UNL     1      29.484 -22.537 -15.975  0.00  0.00    +0.152 C 
ATOM     17  C   UNL     1      29.288 -23.573 -15.073  0.00  0.00    +0.175 C 
ATOM     18  C   UNL     1      30.296 -24.383 -14.567  0.00  0.00    +0.040 C 
ATOM     19  C   UNL     1      27.421 -22.629 -15.544  0.00  0.00    +0.341 C 
ATOM     20  H   UNL     1      25.558 -23.066 -14.860  0.00  0.00    +0.148 HD
ATOM     21  H   UNL     1      25.630 -21.766 -15.961  0.00  0.00    +0.148 HD
ENDBRANCH   5  13
BRANCH   3  29
ATOM     22  O   UNL     1      37.571 -27.107 -12.802  0.00  0.00    -0.350 OA
ATOM     23  O   UNL     1      36.491 -22.280 -12.987  0.00  0.00    -0.268 OA
ATOM     24  N   UNL     1      37.357 -24.387 -13.504  0.00  0.00    -0.270 N 
ATOM     25  C   UNL     1      37.516 -24.790 -12.108  0.00  0.00    +0.126 C 
ATOM     26  C   UNL     1      37.845 -25.372 -14.478  0.00  0.00    +0.126 C 
ATOM     27  C   UNL     1      37.285 -26.752 -14.158  0.00  0.00    +0.164 C 
ATOM     28  C   UNL     1      36.959 -26.189 -11.892  0.00  0.00    +0.164 C 
ATOM     29  C   UNL     1      36.841 -23.126 -13.809  0.00  0.00    +0.265 C 
ENDBRANCH   3  29
TORSDOF 2
ENDMDL
MODEL 9
REMARK VINA RESULT:      -9.2      2.978      5.281
REMARK  Name = 70798655
REMARK  2 active torsions:
REMARK  status: ('A' for Active; 'I' for Inactive)
REMARK    1  A    between atoms: C_3  and  C_29
REMARK    2  A    between atoms: C_5  and  C_13
REMARK                            x       y       z     vdW  Elec       q    Type
REMARK                         _______ _______ _______ _____ _____    ______ ____
ROOT
ATOM      1  N   UNL     1      32.513 -23.571 -14.503  0.00  0.00    -0.245 N 
ATOM      2  N   UNL     1      32.658 -25.042 -12.826  0.00  0.00    -0.227 NA
ATOM      3  C   UNL     1      31.313 -23.525 -13.840  0.00  0.00    +0.130 C 
ATOM      4  C   UNL     1      33.299 -24.510 -13.846  0.00  0.00    +0.139 C 
ATOM      5  C   UNL     1      34.172 -23.054 -16.116  0.00  0.00    +0.012 C 
ATOM      6  C   UNL     1      32.934 -22.851 -15.618  0.00  0.00    +0.071 C 
ATOM      7  C   UNL     1      31.427 -24.436 -12.817  0.00  0.00    +0.120 C 
ATOM      8  C   UNL     1      34.606 -24.730 -14.362  0.00  0.00    +0.035 C 
ATOM      9  C   UNL     1      35.024 -24.039 -15.440  0.00  0.00    +0.004 C 
ENDROOT
BRANCH   5  13
ATOM     10  O   UNL     1      35.649 -20.124 -20.600  0.00  0.00    -0.414 OA
ATOM     11  N   UNL     1      33.422 -20.438 -20.317  0.00  0.00    -0.356 NA
ATOM     12  N   UNL     1      34.277 -19.197 -22.193  0.00  0.00    -0.302 N 
ATOM     13  C   UNL     1      34.614 -22.282 -17.293  0.00  0.00    -0.014 C 
ATOM     14  C   UNL     1      33.655 -21.776 -18.183  0.00  0.00    +0.089 C 
ATOM     15  C   UNL     1      35.983 -22.067 -17.502  0.00  0.00    -0.001 C 
ATOM     16  C   UNL     1      34.105 -21.046 -19.292  0.00  0.00    +0.152 C 
ATOM     17  C   UNL     1      35.469 -20.856 -19.462  0.00  0.00    +0.175 C 
ATOM     18  C   UNL     1      36.448 -21.340 -18.604  0.00  0.00    +0.040 C 
ATOM     19  C   UNL     1      34.381 -19.915 -21.050  0.00  0.00    +0.341 C 
ATOM     20  H   UNL     1      35.089 -18.864 -22.640  0.00  0.00    +0.148 HD
ATOM     21  H   UNL     1      33.391 -19.007 -22.576  0.00  0.00    +0.148 HD
ENDBRANCH   5  13
BRANCH   3  29
ATOM     22  O   UNL     1      27.372 -24.017 -16.966  0.00  0.00    -0.350 OA
ATOM     23  O   UNL     1      30.226 -21.502 -13.799  0.00  0.00    -0.268 OA
ATOM     24  N   UNL     1      29.107 -23.240 -14.887  0.00  0.00    -0.270 N 
ATOM     25  C   UNL     1      27.944 -22.426 -15.235  0.00  0.00    +0.126 C 
ATOM     26  C   UNL     1      28.997 -24.651 -15.278  0.00  0.00    +0.126 C 
ATOM     27  C   UNL     1      28.570 -24.762 -16.736  0.00  0.00    +0.164 C 
ATOM     28  C   UNL     1      27.574 -22.627 -16.697  0.00  0.00    +0.164 C 
ATOM     29  C   UNL     1      30.167 -22.671 -14.178  0.00  0.00    +0.265 C 
ENDBRANCH   3  29
TORSDOF 2
ENDMDL
