MODEL 1
REMARK VINA RESULT:     -12.7      0.000      0.000
REMARK  Name = 24743471
REMARK  3 active torsions:
REMARK  status: ('A' for Active; 'I' for Inactive)
REMARK    1  A    between atoms: C_1  and  N_7
REMARK    2  A    between atoms: C_6  and  C_17
REMARK    3  A    between atoms: C_22  and  N_24
REMARK                            x       y       z     vdW  Elec       q    Type
REMARK                         _______ _______ _______ _____ _____    ______ ____
ROOT
ATOM      1  C   UNL     1      36.088 -23.240 -15.402  0.00  0.00    +0.048 C 
ATOM      2  C   UNL     1      37.101 -22.424 -15.903  0.00  0.00    +0.015 C 
ATOM      3  C   UNL     1      34.851 -23.290 -16.046  0.00  0.00    +0.015 C 
ATOM      4  C   UNL     1      36.879 -21.657 -17.047  0.00  0.00    +0.001 C 
ATOM      5  C   UNL     1      34.629 -22.524 -17.191  0.00  0.00    +0.001 C 
ATOM      6  C   UNL     1      35.644 -21.708 -17.691  0.00  0.00    +0.000 C 
ENDROOT
BRANCH   1   7
ATOM      7  N   UNL     1      36.306 -23.999 -14.270  0.00  0.00    -0.311 N 
ATOM      8  N   UNL     1      38.956 -26.196 -13.682  0.00  0.00    +0.387 N 
ATOM      9  C   UNL     1      36.874 -25.773 -12.790  0.00  0.00    -0.003 C 
ATOM     10  C   UNL     1      36.812 -25.375 -14.275  0.00  0.00    +0.050 C 
ATOM     11  C   UNL     1      35.998 -24.765 -12.067  0.00  0.00    +0.021 C 
ATOM     12  C   UNL     1      38.355 -25.713 -12.440  0.00  0.00    -0.076 C 
ATOM     13  C   UNL     1      38.267 -25.467 -14.751  0.00  0.00    -0.057 C 
ATOM     14  C   UNL     1      36.101 -23.500 -12.912  0.00  0.00    +0.091 C 
ATOM     15  C   UNL     1      40.398 -26.001 -13.715  0.00  0.00    -0.101 C 
ATOM     16  H   UNL     1      38.842 -27.205 -13.785  0.00  0.00    -0.080 HD
ENDBRANCH   1   7
BRANCH   6  17
ATOM     17  C   UNL     1      35.413 -20.914 -18.878  0.00  0.00    +0.000 C 
ATOM     18  C   UNL     1      36.477 -20.254 -19.493  0.00  0.00    +0.001 C 
ATOM     19  C   UNL     1      34.127 -20.807 -19.407  0.00  0.00    +0.001 C 
ATOM     20  C   UNL     1      36.255 -19.488 -20.637  0.00  0.00    +0.017 C 
ATOM     21  C   UNL     1      33.904 -20.041 -20.552  0.00  0.00    +0.017 C 
ATOM     22  C   UNL     1      34.969 -19.381 -21.166  0.00  0.00    +0.077 C 
BRANCH  22  24
ATOM     23  O   UNL     1      35.654 -16.529 -21.664  0.00  0.00    -0.268 OA
ATOM     24  N   UNL     1      34.739 -18.588 -22.351  0.00  0.00    -0.155 N 
ATOM     25  N   UNL     1      34.155 -19.297 -23.375  0.00  0.00    -0.170 NA
ATOM     26  C   UNL     1      35.074 -17.236 -22.487  0.00  0.00    +0.272 C 
ATOM     27  C   UNL     1      34.707 -16.585 -23.770  0.00  0.00    +0.062 C 
ATOM     28  C   UNL     1      33.882 -18.678 -24.471  0.00  0.00    +0.118 C 
ATOM     29  C   UNL     1      34.128 -17.268 -24.750  0.00  0.00    +0.027 C 
ENDBRANCH  22  24
ENDBRANCH   6  17
TORSDOF 3
ENDMDL
MODEL 2
REMARK VINA RESULT:     -10.7      7.762     14.993
REMARK  Name = 24743471
REMARK  3 active torsions:
REMARK  status: ('A' for Active; 'I' for Inactive)
REMARK    1  A    between atoms: C_1  and  N_7
REMARK    2  A    between atoms: C_6  and  C_17
REMARK    3  A    between atoms: C_22  and  N_24
REMARK                            x       y       z     vdW  Elec       q    Type
REMARK                         _______ _______ _______ _____ _____    ______ ____
ROOT
ATOM      1  C   UNL     1      32.774  -8.485 -22.564  0.00  0.00    +0.048 C 
ATOM      2  C   UNL     1      33.814  -8.902 -23.395  0.00  0.00    +0.015 C 
ATOM      3  C   UNL     1      32.016  -9.427 -21.869  0.00  0.00    +0.015 C 
ATOM      4  C   UNL     1      34.094 -10.262 -23.532  0.00  0.00    +0.001 C 
ATOM      5  C   UNL     1      32.297 -10.787 -22.006  0.00  0.00    +0.001 C 
ATOM      6  C   UNL     1      33.336 -11.203 -22.838  0.00  0.00    +0.000 C 
ENDROOT
BRANCH   1   7
ATOM      7  N   UNL     1      32.496  -7.139 -22.426  0.00  0.00    -0.311 N 
ATOM      8  N   UNL     1      33.460  -4.556 -24.568  0.00  0.00    +0.387 N 
ATOM      9  C   UNL     1      32.665  -4.767 -22.416  0.00  0.00    -0.003 C 
ATOM     10  C   UNL     1      33.438  -6.059 -22.735  0.00  0.00    +0.050 C 
ATOM     11  C   UNL     1      31.500  -5.199 -21.544  0.00  0.00    +0.021 C 
ATOM     12  C   UNL     1      32.281  -4.205 -23.779  0.00  0.00    -0.076 C 
ATOM     13  C   UNL     1      33.746  -5.954 -24.233  0.00  0.00    -0.057 C 
ATOM     14  C   UNL     1      31.198  -6.624 -21.996  0.00  0.00    +0.091 C 
ATOM     15  C   UNL     1      33.254  -4.356 -25.995  0.00  0.00    -0.101 C 
ATOM     16  H   UNL     1      34.252  -3.950 -24.346  0.00  0.00    -0.080 HD
ENDBRANCH   1   7
BRANCH   6  17
ATOM     17  C   UNL     1      33.627 -12.614 -22.980  0.00  0.00    +0.000 C 
ATOM     18  C   UNL     1      34.252 -13.304 -21.941  0.00  0.00    +0.001 C 
ATOM     19  C   UNL     1      33.283 -13.283 -24.154  0.00  0.00    +0.001 C 
ATOM     20  C   UNL     1      34.532 -14.664 -22.077  0.00  0.00    +0.017 C 
ATOM     21  C   UNL     1      33.563 -14.642 -24.290  0.00  0.00    +0.017 C 
ATOM     22  C   UNL     1      34.188 -15.333 -23.251  0.00  0.00    +0.077 C 
BRANCH  22  24
ATOM     23  O   UNL     1      33.201 -17.244 -25.306  0.00  0.00    -0.268 OA
ATOM     24  N   UNL     1      34.479 -16.740 -23.392  0.00  0.00    -0.155 N 
ATOM     25  N   UNL     1      35.363 -17.210 -22.449  0.00  0.00    -0.170 NA
ATOM     26  C   UNL     1      33.944 -17.573 -24.382  0.00  0.00    +0.272 C 
ATOM     27  C   UNL     1      34.327 -19.006 -24.325  0.00  0.00    +0.062 C 
ATOM     28  C   UNL     1      35.671 -18.461 -22.468  0.00  0.00    +0.118 C 
ATOM     29  C   UNL     1      35.167 -19.460 -23.403  0.00  0.00    +0.027 C 
ENDBRANCH  22  24
ENDBRANCH   6  17
TORSDOF 3
ENDMDL
MODEL 3
REMARK VINA RESULT:     -10.5      9.694     16.822
REMARK  Name = 24743471
REMARK  3 active torsions:
REMARK  status: ('A' for Active; 'I' for Inactive)
REMARK    1  A    between atoms: C_1  and  N_7
REMARK    2  A    between atoms: C_6  and  C_17
REMARK    3  A    between atoms: C_22  and  N_24
REMARK                            x       y       z     vdW  Elec       q    Type
REMARK                         _______ _______ _______ _____ _____    ______ ____
ROOT
ATOM      1  C   UNL     1      31.987  -6.200 -22.557  0.00  0.00    +0.048 C 
ATOM      2  C   UNL     1      33.333  -6.561 -22.624  0.00  0.00    +0.015 C 
ATOM      3  C   UNL     1      30.998  -7.182 -22.628  0.00  0.00    +0.015 C 
ATOM      4  C   UNL     1      33.690  -7.902 -22.763  0.00  0.00    +0.001 C 
ATOM      5  C   UNL     1      31.356  -8.524 -22.765  0.00  0.00    +0.001 C 
ATOM      6  C   UNL     1      32.702  -8.882 -22.833  0.00  0.00    +0.000 C 
ENDROOT
BRANCH   1   7
ATOM      7  N   UNL     1      31.632  -4.873 -22.419  0.00  0.00    -0.311 N 
ATOM      8  N   UNL     1      31.825  -2.374 -24.850  0.00  0.00    +0.387 N 
ATOM      9  C   UNL     1      31.589  -2.499 -22.562  0.00  0.00    -0.003 C 
ATOM     10  C   UNL     1      32.374  -3.748 -22.998  0.00  0.00    +0.050 C 
ATOM     11  C   UNL     1      30.707  -2.958 -21.413  0.00  0.00    +0.021 C 
ATOM     12  C   UNL     1      30.842  -2.060 -23.814  0.00  0.00    -0.076 C 
ATOM     13  C   UNL     1      32.305  -3.722 -24.530  0.00  0.00    -0.057 C 
ATOM     14  C   UNL     1      30.434  -4.429 -21.711  0.00  0.00    +0.091 C 
ATOM     15  C   UNL     1      31.268  -2.286 -26.191  0.00  0.00    -0.101 C 
ATOM     16  H   UNL     1      32.590  -1.698 -24.856  0.00  0.00    -0.080 HD
ENDBRANCH   1   7
BRANCH   6  17
ATOM     17  C   UNL     1      33.072 -10.274 -22.977  0.00  0.00    +0.000 C 
ATOM     18  C   UNL     1      33.866 -10.677 -24.051  0.00  0.00    +0.001 C 
ATOM     19  C   UNL     1      32.634 -11.212 -22.042  0.00  0.00    +0.001 C 
ATOM     20  C   UNL     1      34.223 -12.018 -24.190  0.00  0.00    +0.017 C 
ATOM     21  C   UNL     1      32.991 -12.554 -22.181  0.00  0.00    +0.017 C 
ATOM     22  C   UNL     1      33.785 -12.956 -23.255  0.00  0.00    +0.077 C 
BRANCH  22  24
ATOM     23  O   UNL     1      33.105 -14.851 -25.446  0.00  0.00    -0.268 OA
ATOM     24  N   UNL     1      34.155 -14.345 -23.399  0.00  0.00    -0.155 N 
ATOM     25  N   UNL     1      34.960 -14.802 -22.381  0.00  0.00    -0.170 NA
ATOM     26  C   UNL     1      33.764 -15.172 -24.458  0.00  0.00    +0.272 C 
ATOM     27  C   UNL     1      34.207 -16.588 -24.397  0.00  0.00    +0.062 C 
ATOM     28  C   UNL     1      35.327 -16.037 -22.398  0.00  0.00    +0.118 C 
ATOM     29  C   UNL     1      34.969 -17.030 -23.404  0.00  0.00    +0.027 C 
ENDBRANCH  22  24
ENDBRANCH   6  17
TORSDOF 3
ENDMDL
MODEL 4
REMARK VINA RESULT:     -10.0      6.754     11.546
REMARK  Name = 24743471
REMARK  3 active torsions:
REMARK  status: ('A' for Active; 'I' for Inactive)
REMARK    1  A    between atoms: C_1  and  N_7
REMARK    2  A    between atoms: C_6  and  C_17
REMARK    3  A    between atoms: C_22  and  N_24
REMARK                            x       y       z     vdW  Elec       q    Type
REMARK                         _______ _______ _______ _____ _____    ______ ____
ROOT
ATOM      1  C   UNL     1      34.236 -15.532 -23.421  0.00  0.00    +0.048 C 
ATOM      2  C   UNL     1      34.719 -14.870 -22.293  0.00  0.00    +0.015 C 
ATOM      3  C   UNL     1      33.492 -14.835 -24.375  0.00  0.00    +0.015 C 
ATOM      4  C   UNL     1      34.460 -13.511 -22.118  0.00  0.00    +0.001 C 
ATOM      5  C   UNL     1      33.234 -13.475 -24.199  0.00  0.00    +0.001 C 
ATOM      6  C   UNL     1      33.718 -12.814 -23.070  0.00  0.00    +0.000 C 
ENDROOT
BRANCH   1   7
ATOM      7  N   UNL     1      34.492 -16.878 -23.597  0.00  0.00    -0.311 N 
ATOM      8  N   UNL     1      35.091 -19.254 -21.110  0.00  0.00    +0.387 N 
ATOM      9  C   UNL     1      35.380 -19.074 -23.389  0.00  0.00    -0.003 C 
ATOM     10  C   UNL     1      35.463 -17.649 -22.815  0.00  0.00    +0.050 C 
ATOM     11  C   UNL     1      34.692 -18.927 -24.735  0.00  0.00    +0.021 C 
ATOM     12  C   UNL     1      34.599 -19.862 -22.346  0.00  0.00    -0.076 C 
ATOM     13  C   UNL     1      35.045 -17.808 -21.348  0.00  0.00    -0.057 C 
ATOM     14  C   UNL     1      33.784 -17.714 -24.565  0.00  0.00    +0.091 C 
ATOM     15  C   UNL     1      34.313 -19.651 -19.946  0.00  0.00    -0.101 C 
ATOM     16  H   UNL     1      36.038 -19.567 -20.892  0.00  0.00    -0.080 HD
ENDBRANCH   1   7
BRANCH   6  17
ATOM     17  C   UNL     1      33.449 -11.404 -22.888  0.00  0.00    +0.000 C 
ATOM     18  C   UNL     1      32.414 -10.995 -22.046  0.00  0.00    +0.001 C 
ATOM     19  C   UNL     1      34.222 -10.454 -23.555  0.00  0.00    +0.001 C 
ATOM     20  C   UNL     1      32.154  -9.636 -21.871  0.00  0.00    +0.017 C 
ATOM     21  C   UNL     1      33.962  -9.095 -23.379  0.00  0.00    +0.017 C 
ATOM     22  C   UNL     1      32.927  -8.686 -22.537  0.00  0.00    +0.077 C 
BRANCH  22  24
ATOM     23  O   UNL     1      33.430  -6.984 -20.149  0.00  0.00    -0.268 OA
ATOM     24  N   UNL     1      32.658  -7.279 -22.355  0.00  0.00    -0.155 N 
ATOM     25  N   UNL     1      32.132  -6.677 -23.475  0.00  0.00    -0.170 NA
ATOM     26  C   UNL     1      32.905  -6.562 -21.179  0.00  0.00    +0.272 C 
ATOM     27  C   UNL     1      32.510  -5.131 -21.175  0.00  0.00    +0.062 C 
ATOM     28  C   UNL     1      31.830  -5.426 -23.412  0.00  0.00    +0.118 C 
ATOM     29  C   UNL     1      31.986  -4.557 -22.252  0.00  0.00    +0.027 C 
ENDBRANCH  22  24
ENDBRANCH   6  17
TORSDOF 3
ENDMDL
MODEL 5
REMARK VINA RESULT:      -9.9      8.821     15.976
REMARK  Name = 24743471
REMARK  3 active torsions:
REMARK  status: ('A' for Active; 'I' for Inactive)
REMARK    1  A    between atoms: C_1  and  N_7
REMARK    2  A    between atoms: C_6  and  C_17
REMARK    3  A    between atoms: C_22  and  N_24
REMARK                            x       y       z     vdW  Elec       q    Type
REMARK                         _______ _______ _______ _____ _____    ______ ____
ROOT
ATOM      1  C   UNL     1      32.085  -7.224 -22.396  0.00  0.00    +0.048 C 
ATOM      2  C   UNL     1      31.287  -8.204 -21.807  0.00  0.00    +0.015 C 
ATOM      3  C   UNL     1      33.251  -7.586 -23.072  0.00  0.00    +0.015 C 
ATOM      4  C   UNL     1      31.654  -9.547 -21.894  0.00  0.00    +0.001 C 
ATOM      5  C   UNL     1      33.617  -8.929 -23.159  0.00  0.00    +0.001 C 
ATOM      6  C   UNL     1      32.818  -9.909 -22.569  0.00  0.00    +0.000 C 
ENDROOT
BRANCH   1   7
ATOM      7  N   UNL     1      31.722  -5.894 -22.312  0.00  0.00    -0.311 N 
ATOM      8  N   UNL     1      32.372  -3.379 -24.646  0.00  0.00    +0.387 N 
ATOM      9  C   UNL     1      31.726  -3.519 -22.438  0.00  0.00    -0.003 C 
ATOM     10  C   UNL     1      32.566  -4.773 -22.737  0.00  0.00    +0.050 C 
ATOM     11  C   UNL     1      30.648  -3.977 -21.471  0.00  0.00    +0.021 C 
ATOM     12  C   UNL     1      31.221  -3.063 -23.801  0.00  0.00    -0.076 C 
ATOM     13  C   UNL     1      32.774  -4.734 -24.256  0.00  0.00    -0.057 C 
ATOM     14  C   UNL     1      30.420  -5.442 -21.827  0.00  0.00    +0.091 C 
ATOM     15  C   UNL     1      32.066  -3.275 -26.064  0.00  0.00    -0.101 C 
ATOM     16  H   UNL     1      33.131  -2.710 -24.507  0.00  0.00    -0.080 HD
ENDBRANCH   1   7
BRANCH   6  17
ATOM     17  C   UNL     1      33.200 -11.302 -22.659  0.00  0.00    +0.000 C 
ATOM     18  C   UNL     1      32.705 -12.221 -21.733  0.00  0.00    +0.001 C 
ATOM     19  C   UNL     1      34.063 -11.726 -23.670  0.00  0.00    +0.001 C 
ATOM     20  C   UNL     1      33.072 -13.565 -21.820  0.00  0.00    +0.017 C 
ATOM     21  C   UNL     1      34.430 -13.069 -23.756  0.00  0.00    +0.017 C 
ATOM     22  C   UNL     1      33.934 -13.988 -22.830  0.00  0.00    +0.077 C 
BRANCH  22  24
ATOM     23  O   UNL     1      35.146 -15.728 -20.743  0.00  0.00    -0.268 OA
ATOM     24  N   UNL     1      34.315 -15.378 -22.919  0.00  0.00    -0.155 N 
ATOM     25  N   UNL     1      34.027 -15.943 -24.140  0.00  0.00    -0.170 NA
ATOM     26  C   UNL     1      34.907 -16.114 -21.887  0.00  0.00    +0.272 C 
ATOM     27  C   UNL     1      35.271 -17.520 -22.194  0.00  0.00    +0.062 C 
ATOM     28  C   UNL     1      34.349 -17.176 -24.336  0.00  0.00    +0.118 C 
ATOM     29  C   UNL     1      35.007 -18.058 -23.380  0.00  0.00    +0.027 C 
ENDBRANCH  22  24
ENDBRANCH   6  17
TORSDOF 3
ENDMDL
MODEL 6
REMARK VINA RESULT:      -9.8      2.375     10.339
REMARK  Name = 24743471
REMARK  3 active torsions:
REMARK  status: ('A' for Active; 'I' for Inactive)
REMARK    1  A    between atoms: C_1  and  N_7
REMARK    2  A    between atoms: C_6  and  C_17
REMARK    3  A    between atoms: C_22  and  N_24
REMARK                            x       y       z     vdW  Elec       q    Type
REMARK                         _______ _______ _______ _____ _____    ______ ____
ROOT
ATOM      1  C   UNL     1      35.424 -19.000 -20.885  0.00  0.00    +0.048 C 
ATOM      2  C   UNL     1      36.684 -19.133 -20.303  0.00  0.00    +0.015 C 
ATOM      3  C   UNL     1      34.349 -19.747 -20.401  0.00  0.00    +0.015 C 
ATOM      4  C   UNL     1      36.871 -20.014 -19.237  0.00  0.00    +0.001 C 
ATOM      5  C   UNL     1      34.536 -20.627 -19.335  0.00  0.00    +0.001 C 
ATOM      6  C   UNL     1      35.797 -20.760 -18.754  0.00  0.00    +0.000 C 
ENDROOT
BRANCH   1   7
ATOM      7  N   UNL     1      35.238 -18.128 -21.940  0.00  0.00    -0.311 N 
ATOM      8  N   UNL     1      33.435 -18.716 -24.871  0.00  0.00    +0.387 N 
ATOM      9  C   UNL     1      35.003 -17.205 -24.119  0.00  0.00    -0.003 C 
ATOM     10  C   UNL     1      35.245 -18.517 -23.353  0.00  0.00    +0.050 C 
ATOM     11  C   UNL     1      35.304 -16.097 -23.125  0.00  0.00    +0.021 C 
ATOM     12  C   UNL     1      33.552 -17.290 -24.574  0.00  0.00    -0.076 C 
ATOM     13  C   UNL     1      34.049 -19.400 -23.728  0.00  0.00    -0.057 C 
ATOM     14  C   UNL     1      34.962 -16.703 -21.768  0.00  0.00    +0.091 C 
ATOM     15  C   UNL     1      32.057 -19.128 -25.092  0.00  0.00    -0.101 C 
ATOM     16  H   UNL     1      33.907 -18.955 -25.745  0.00  0.00    -0.080 HD
ENDBRANCH   1   7
BRANCH   6  17
ATOM     17  C   UNL     1      35.989 -21.674 -17.648  0.00  0.00    +0.000 C 
ATOM     18  C   UNL     1      34.948 -22.511 -17.247  0.00  0.00    +0.001 C 
ATOM     19  C   UNL     1      37.215 -21.716 -16.983  0.00  0.00    +0.001 C 
ATOM     20  C   UNL     1      35.133 -23.392 -16.181  0.00  0.00    +0.017 C 
ATOM     21  C   UNL     1      37.400 -22.597 -15.917  0.00  0.00    +0.017 C 
ATOM     22  C   UNL     1      36.358 -23.435 -15.517  0.00  0.00    +0.077 C 
BRANCH  22  24
ATOM     23  O   UNL     1      36.076 -22.919 -12.600  0.00  0.00    -0.268 OA
ATOM     24  N   UNL     1      36.550 -24.347 -14.413  0.00  0.00    -0.155 N 
ATOM     25  N   UNL     1      36.869 -25.624 -14.812  0.00  0.00    -0.170 NA
ATOM     26  C   UNL     1      36.420 -24.007 -13.062  0.00  0.00    +0.272 C 
ATOM     27  C   UNL     1      36.709 -25.077 -12.075  0.00  0.00    +0.062 C 
ATOM     28  C   UNL     1      37.087 -26.512 -13.905  0.00  0.00    +0.118 C 
ATOM     29  C   UNL     1      37.035 -26.305 -12.463  0.00  0.00    +0.027 C 
ENDBRANCH  22  24
ENDBRANCH   6  17
TORSDOF 3
ENDMDL
MODEL 7
REMARK VINA RESULT:      -9.8      8.441     13.523
REMARK  Name = 24743471
REMARK  3 active torsions:
REMARK  status: ('A' for Active; 'I' for Inactive)
REMARK    1  A    between atoms: C_1  and  N_7
REMARK    2  A    between atoms: C_6  and  C_17
REMARK    3  A    between atoms: C_22  and  N_24
REMARK                            x       y       z     vdW  Elec       q    Type
REMARK                         _______ _______ _______ _____ _____    ______ ____
ROOT
ATOM      1  C   UNL     1      33.688 -13.355 -23.710  0.00  0.00    +0.048 C 
ATOM      2  C   UNL     1      33.013 -13.001 -22.542  0.00  0.00    +0.015 C 
ATOM      3  C   UNL     1      34.081 -12.367 -24.615  0.00  0.00    +0.015 C 
ATOM      4  C   UNL     1      32.731 -11.661 -22.278  0.00  0.00    +0.001 C 
ATOM      5  C   UNL     1      33.799 -11.027 -24.350  0.00  0.00    +0.001 C 
ATOM      6  C   UNL     1      33.123 -10.675 -23.181  0.00  0.00    +0.000 C 
ENDROOT
BRANCH   1   7
ATOM      7  N   UNL     1      33.969 -14.681 -23.973  0.00  0.00    -0.311 N 
ATOM      8  N   UNL     1      35.489 -16.980 -21.829  0.00  0.00    +0.387 N 
ATOM      9  C   UNL     1      35.028 -16.808 -24.080  0.00  0.00    -0.003 C 
ATOM     10  C   UNL     1      35.189 -15.374 -23.547  0.00  0.00    +0.050 C 
ATOM     11  C   UNL     1      33.941 -16.725 -25.137  0.00  0.00    +0.021 C 
ATOM     12  C   UNL     1      34.674 -17.635 -22.851  0.00  0.00    -0.076 C 
ATOM     13  C   UNL     1      35.270 -15.543 -22.024  0.00  0.00    -0.057 C 
ATOM     14  C   UNL     1      33.051 -15.576 -24.675  0.00  0.00    +0.091 C 
ATOM     15  C   UNL     1      35.150 -17.416 -20.483  0.00  0.00    -0.101 C 
ATOM     16  H   UNL     1      36.476 -17.223 -21.925  0.00  0.00    -0.080 HD
ENDBRANCH   1   7
BRANCH   6  17
ATOM     17  C   UNL     1      32.831  -9.284 -22.908  0.00  0.00    +0.000 C 
ATOM     18  C   UNL     1      33.794  -8.307 -23.161  0.00  0.00    +0.001 C 
ATOM     19  C   UNL     1      31.588  -8.921 -22.390  0.00  0.00    +0.001 C 
ATOM     20  C   UNL     1      33.512  -6.966 -22.898  0.00  0.00    +0.017 C 
ATOM     21  C   UNL     1      31.306  -7.580 -22.126  0.00  0.00    +0.017 C 
ATOM     22  C   UNL     1      32.269  -6.603 -22.380  0.00  0.00    +0.077 C 
BRANCH  22  24
ATOM     23  O   UNL     1      30.557  -4.719 -23.920  0.00  0.00    -0.268 OA
ATOM     24  N   UNL     1      31.978  -5.215 -22.107  0.00  0.00    -0.155 N 
ATOM     25  N   UNL     1      32.562  -4.754 -20.951  0.00  0.00    -0.170 NA
ATOM     26  C   UNL     1      31.176  -4.393 -22.908  0.00  0.00    +0.272 C 
ATOM     27  C   UNL     1      31.040  -2.977 -22.483  0.00  0.00    +0.062 C 
ATOM     28  C   UNL     1      32.388  -3.519 -20.627  0.00  0.00    +0.118 C 
ATOM     29  C   UNL     1      31.621  -2.530 -21.375  0.00  0.00    +0.027 C 
ENDBRANCH  22  24
ENDBRANCH   6  17
TORSDOF 3
ENDMDL
