MODEL 1
REMARK VINA RESULT:     -11.8      0.000      0.000
REMARK  Name = 5289179
REMARK  4 active torsions:
REMARK  status: ('A' for Active; 'I' for Inactive)
REMARK    1  A    between atoms: C_3  and  C_14
REMARK    2  A    between atoms: C_6  and  C_22
REMARK    3  A    between atoms: C_14  and  C_15
REMARK    4  A    between atoms: C_22  and  C_25
REMARK                            x       y       z     vdW  Elec       q    Type
REMARK                         _______ _______ _______ _____ _____    ______ ____
ROOT
ATOM      1  N   UNL     1      34.641 -17.036 -23.050  0.00  0.00    -0.249 N 
ATOM      2  N   UNL     1      34.068 -18.111 -24.925  0.00  0.00    -0.375 NA
ATOM      3  C   UNL     1      35.035 -18.339 -22.886  0.00  0.00    +0.208 C 
ATOM      4  C   UNL     1      34.055 -16.945 -24.309  0.00  0.00    +0.189 C 
ATOM      5  C   UNL     1      34.765 -15.957 -22.176  0.00  0.00    +0.071 C 
ATOM      6  C   UNL     1      34.297 -14.758 -22.562  0.00  0.00    +0.054 C 
ATOM      7  C   UNL     1      34.672 -18.976 -24.049  0.00  0.00    +0.182 C 
ATOM      8  C   UNL     1      33.563 -15.668 -24.707  0.00  0.00    +0.048 C 
ATOM      9  C   UNL     1      33.677 -14.617 -23.871  0.00  0.00    +0.008 C 
ATOM     10  N   UNL     1      34.865 -20.282 -24.339  0.00  0.00    -0.335 N 
ATOM     11  H   UNL     1      34.568 -20.644 -25.204  0.00  0.00    +0.144 HD
ATOM     12  H   UNL     1      35.306 -20.871 -23.683  0.00  0.00    +0.144 HD
ENDROOT
BRANCH   3  14
ATOM     13  O   UNL     1      36.870 -18.656 -21.411  0.00  0.00    -0.289 OA
ATOM     14  C   UNL     1      35.683 -18.877 -21.730  0.00  0.00    +0.200 C 
BRANCH  14  15
ATOM     15  C   UNL     1      34.951 -19.766 -20.770  0.00  0.00    +0.037 C 
ATOM     16  C   UNL     1      33.580 -19.703 -20.737  0.00  0.00    +0.003 C 
ATOM     17  C   UNL     1      35.686 -20.602 -19.965  0.00  0.00    +0.003 C 
ATOM     18  C   UNL     1      32.900 -20.531 -19.843  0.00  0.00    +0.000 C 
ATOM     19  C   UNL     1      35.006 -21.429 -19.071  0.00  0.00    +0.000 C 
ATOM     20  C   UNL     1      33.612 -21.393 -19.010  0.00  0.00    +0.000 C 
ENDBRANCH  14  15
ENDBRANCH   3  14
BRANCH   6  22
ATOM     21  O   UNL     1      35.390 -13.528 -20.892  0.00  0.00    -0.286 OA
ATOM     22  C   UNL     1      34.422 -13.623 -21.649  0.00  0.00    +0.201 C 
BRANCH  22  25
ATOM     23  F   UNL     1      34.566 -11.406 -23.362  0.00  0.00    -0.204 F 
ATOM     24  F   UNL     1      32.187 -13.712 -19.957  0.00  0.00    -0.204 F 
ATOM     25  C   UNL     1      33.379 -12.562 -21.659  0.00  0.00    +0.094 C 
ATOM     26  C   UNL     1      33.519 -11.501 -22.529  0.00  0.00    +0.145 C 
ATOM     27  C   UNL     1      32.309 -12.675 -20.798  0.00  0.00    +0.145 C 
ATOM     28  C   UNL     1      32.541 -10.506 -22.538  0.00  0.00    +0.030 C 
ATOM     29  C   UNL     1      31.332 -11.679 -20.807  0.00  0.00    +0.030 C 
ATOM     30  C   UNL     1      31.448 -10.595 -21.677  0.00  0.00    +0.005 C 
ENDBRANCH  22  25
ENDBRANCH   6  22
TORSDOF 4
ENDMDL
MODEL 2
REMARK VINA RESULT:     -11.8      0.061      1.811
REMARK  Name = 5289179
REMARK  4 active torsions:
REMARK  status: ('A' for Active; 'I' for Inactive)
REMARK    1  A    between atoms: C_3  and  C_14
REMARK    2  A    between atoms: C_6  and  C_22
REMARK    3  A    between atoms: C_14  and  C_15
REMARK    4  A    between atoms: C_22  and  C_25
REMARK                            x       y       z     vdW  Elec       q    Type
REMARK                         _______ _______ _______ _____ _____    ______ ____
ROOT
ATOM      1  N   UNL     1      34.654 -17.013 -23.014  0.00  0.00    -0.249 N 
ATOM      2  N   UNL     1      34.077 -18.083 -24.892  0.00  0.00    -0.375 NA
ATOM      3  C   UNL     1      35.054 -18.315 -22.857  0.00  0.00    +0.208 C 
ATOM      4  C   UNL     1      34.062 -16.920 -24.272  0.00  0.00    +0.189 C 
ATOM      5  C   UNL     1      34.777 -15.937 -22.138  0.00  0.00    +0.071 C 
ATOM      6  C   UNL     1      34.303 -14.738 -22.517  0.00  0.00    +0.054 C 
ATOM      7  C   UNL     1      34.688 -18.949 -24.021  0.00  0.00    +0.182 C 
ATOM      8  C   UNL     1      33.563 -15.643 -24.662  0.00  0.00    +0.048 C 
ATOM      9  C   UNL     1      33.677 -14.595 -23.823  0.00  0.00    +0.008 C 
ATOM     10  N   UNL     1      34.886 -20.253 -24.316  0.00  0.00    -0.335 N 
ATOM     11  H   UNL     1      34.586 -20.613 -25.182  0.00  0.00    +0.144 HD
ATOM     12  H   UNL     1      35.331 -20.843 -23.665  0.00  0.00    +0.144 HD
ENDROOT
BRANCH   3  14
ATOM     13  O   UNL     1      36.894 -18.623 -21.387  0.00  0.00    -0.289 OA
ATOM     14  C   UNL     1      35.709 -18.854 -21.706  0.00  0.00    +0.200 C 
BRANCH  14  15
ATOM     15  C   UNL     1      34.987 -19.758 -20.751  0.00  0.00    +0.037 C 
ATOM     16  C   UNL     1      35.730 -20.604 -19.966  0.00  0.00    +0.003 C 
ATOM     17  C   UNL     1      33.616 -19.700 -20.709  0.00  0.00    +0.003 C 
ATOM     18  C   UNL     1      35.058 -21.445 -19.079  0.00  0.00    +0.000 C 
ATOM     19  C   UNL     1      32.944 -20.541 -19.821  0.00  0.00    +0.000 C 
ATOM     20  C   UNL     1      33.666 -21.414 -19.006  0.00  0.00    +0.000 C 
ENDBRANCH  14  15
ENDBRANCH   3  14
BRANCH   6  22
ATOM     21  O   UNL     1      35.391 -13.516 -20.839  0.00  0.00    -0.286 OA
ATOM     22  C   UNL     1      34.427 -13.605 -21.601  0.00  0.00    +0.201 C 
BRANCH  22  25
ATOM     23  F   UNL     1      32.247 -13.630 -19.837  0.00  0.00    -0.204 F 
ATOM     24  F   UNL     1      34.523 -11.445 -23.388  0.00  0.00    -0.204 F 
ATOM     25  C   UNL     1      33.388 -12.541 -21.613  0.00  0.00    +0.094 C 
ATOM     26  C   UNL     1      32.345 -12.621 -20.715  0.00  0.00    +0.145 C 
ATOM     27  C   UNL     1      33.503 -11.510 -22.521  0.00  0.00    +0.145 C 
ATOM     28  C   UNL     1      31.370 -11.623 -20.726  0.00  0.00    +0.030 C 
ATOM     29  C   UNL     1      32.528 -10.513 -22.532  0.00  0.00    +0.030 C 
ATOM     30  C   UNL     1      31.461 -10.570 -21.635  0.00  0.00    +0.005 C 
ENDBRANCH  22  25
ENDBRANCH   6  22
TORSDOF 4
ENDMDL
MODEL 3
REMARK VINA RESULT:     -11.7      2.342      7.053
REMARK  Name = 5289179
REMARK  4 active torsions:
REMARK  status: ('A' for Active; 'I' for Inactive)
REMARK    1  A    between atoms: C_3  and  C_14
REMARK    2  A    between atoms: C_6  and  C_22
REMARK    3  A    between atoms: C_14  and  C_15
REMARK    4  A    between atoms: C_22  and  C_25
REMARK                            x       y       z     vdW  Elec       q    Type
REMARK                         _______ _______ _______ _____ _____    ______ ____
ROOT
ATOM      1  N   UNL     1      34.460 -16.724 -23.248  0.00  0.00    -0.249 N 
ATOM      2  N   UNL     1      33.523 -16.778 -25.278  0.00  0.00    -0.375 NA
ATOM      3  C   UNL     1      34.192 -15.423 -23.586  0.00  0.00    +0.208 C 
ATOM      4  C   UNL     1      34.034 -17.515 -24.312  0.00  0.00    +0.189 C 
ATOM      5  C   UNL     1      35.040 -17.236 -22.089  0.00  0.00    +0.071 C 
ATOM      6  C   UNL     1      35.203 -18.566 -21.983  0.00  0.00    +0.054 C 
ATOM      7  C   UNL     1      33.620 -15.484 -24.835  0.00  0.00    +0.182 C 
ATOM      8  C   UNL     1      34.212 -18.924 -24.186  0.00  0.00    +0.048 C 
ATOM      9  C   UNL     1      34.772 -19.431 -23.071  0.00  0.00    +0.008 C 
ATOM     10  N   UNL     1      33.189 -14.433 -25.568  0.00  0.00    -0.335 N 
ATOM     11  H   UNL     1      32.790 -14.583 -26.455  0.00  0.00    +0.144 HD
ATOM     12  H   UNL     1      33.274 -13.518 -25.214  0.00  0.00    +0.144 HD
ENDROOT
BRANCH   3  14
ATOM     13  O   UNL     1      35.560 -13.663 -22.764  0.00  0.00    -0.289 OA
ATOM     14  C   UNL     1      34.471 -14.276 -22.779  0.00  0.00    +0.200 C 
BRANCH  14  15
ATOM     15  C   UNL     1      33.432 -13.692 -21.869  0.00  0.00    +0.037 C 
ATOM     16  C   UNL     1      32.679 -12.640 -22.327  0.00  0.00    +0.003 C 
ATOM     17  C   UNL     1      33.282 -14.236 -20.617  0.00  0.00    +0.003 C 
ATOM     18  C   UNL     1      31.713 -12.097 -21.480  0.00  0.00    +0.000 C 
ATOM     19  C   UNL     1      32.316 -13.693 -19.770  0.00  0.00    +0.000 C 
ATOM     20  C   UNL     1      31.532 -12.623 -20.202  0.00  0.00    +0.000 C 
ENDBRANCH  14  15
ENDBRANCH   3  14
BRANCH   6  22
ATOM     21  O   UNL     1      36.875 -18.653 -20.341  0.00  0.00    -0.286 OA
ATOM     22  C   UNL     1      35.814 -19.109 -20.770  0.00  0.00    +0.201 C 
BRANCH  22  25
ATOM     23  F   UNL     1      33.030 -19.169 -20.439  0.00  0.00    -0.204 F 
ATOM     24  F   UNL     1      37.222 -21.254 -19.635  0.00  0.00    -0.204 F 
ATOM     25  C   UNL     1      35.128 -20.208 -20.038  0.00  0.00    +0.094 C 
ATOM     26  C   UNL     1      33.755 -20.168 -19.916  0.00  0.00    +0.145 C 
ATOM     27  C   UNL     1      35.888 -21.229 -19.508  0.00  0.00    +0.145 C 
ATOM     28  C   UNL     1      33.111 -21.199 -19.230  0.00  0.00    +0.030 C 
ATOM     29  C   UNL     1      35.243 -22.258 -18.822  0.00  0.00    +0.030 C 
ATOM     30  C   UNL     1      33.856 -22.243 -18.682  0.00  0.00    +0.005 C 
ENDBRANCH  22  25
ENDBRANCH   6  22
TORSDOF 4
ENDMDL
MODEL 4
REMARK VINA RESULT:     -10.7      6.806     10.908
REMARK  Name = 5289179
REMARK  4 active torsions:
REMARK  status: ('A' for Active; 'I' for Inactive)
REMARK    1  A    between atoms: C_3  and  C_14
REMARK    2  A    between atoms: C_6  and  C_22
REMARK    3  A    between atoms: C_14  and  C_15
REMARK    4  A    between atoms: C_22  and  C_25
REMARK                            x       y       z     vdW  Elec       q    Type
REMARK                         _______ _______ _______ _____ _____    ______ ____
ROOT
ATOM      1  N   UNL     1      34.497 -23.128 -15.485  0.00  0.00    -0.249 N 
ATOM      2  N   UNL     1      36.556 -22.345 -15.101  0.00  0.00    -0.375 NA
ATOM      3  C   UNL     1      35.008 -22.765 -16.705  0.00  0.00    +0.208 C 
ATOM      4  C   UNL     1      35.479 -22.853 -14.537  0.00  0.00    +0.189 C 
ATOM      5  C   UNL     1      33.253 -23.672 -15.173  0.00  0.00    +0.071 C 
ATOM      6  C   UNL     1      32.974 -23.950 -13.888  0.00  0.00    +0.054 C 
ATOM      7  C   UNL     1      36.270 -22.287 -16.441  0.00  0.00    +0.182 C 
ATOM      8  C   UNL     1      35.171 -23.153 -13.178  0.00  0.00    +0.048 C 
ATOM      9  C   UNL     1      33.971 -23.678 -12.863  0.00  0.00    +0.008 C 
ATOM     10  N   UNL     1      37.151 -21.814 -17.350  0.00  0.00    -0.335 N 
ATOM     11  H   UNL     1      38.035 -21.495 -17.059  0.00  0.00    +0.144 HD
ATOM     12  H   UNL     1      36.909 -21.792 -18.305  0.00  0.00    +0.144 HD
ENDROOT
BRANCH   3  14
ATOM     13  O   UNL     1      33.785 -23.915 -18.385  0.00  0.00    -0.289 OA
ATOM     14  C   UNL     1      34.331 -22.875 -17.960  0.00  0.00    +0.200 C 
BRANCH  14  15
ATOM     15  C   UNL     1      34.209 -21.701 -18.885  0.00  0.00    +0.037 C 
ATOM     16  C   UNL     1      32.963 -21.167 -19.100  0.00  0.00    +0.003 C 
ATOM     17  C   UNL     1      35.349 -21.216 -19.477  0.00  0.00    +0.003 C 
ATOM     18  C   UNL     1      32.850 -20.075 -19.962  0.00  0.00    +0.000 C 
ATOM     19  C   UNL     1      35.235 -20.124 -20.338  0.00  0.00    +0.000 C 
ATOM     20  C   UNL     1      33.985 -19.554 -20.580  0.00  0.00    +0.000 C 
ENDBRANCH  14  15
ENDBRANCH   3  14
BRANCH   6  22
ATOM     21  O   UNL     1      31.555 -25.336 -12.639  0.00  0.00    -0.286 OA
ATOM     22  C   UNL     1      31.669 -24.518 -13.554  0.00  0.00    +0.201 C 
BRANCH  22  25
ATOM     23  F   UNL     1      30.829 -21.843 -13.606  0.00  0.00    -0.204 F 
ATOM     24  F   UNL     1      30.101 -26.317 -15.028  0.00  0.00    -0.204 F 
ATOM     25  C   UNL     1      30.468 -24.082 -14.315  0.00  0.00    +0.094 C 
ATOM     26  C   UNL     1      30.116 -22.748 -14.292  0.00  0.00    +0.145 C 
ATOM     27  C   UNL     1      29.747 -25.024 -15.016  0.00  0.00    +0.145 C 
ATOM     28  C   UNL     1      28.990 -22.339 -15.006  0.00  0.00    +0.030 C 
ATOM     29  C   UNL     1      28.620 -24.614 -15.729  0.00  0.00    +0.030 C 
ATOM     30  C   UNL     1      28.242 -23.271 -15.723  0.00  0.00    +0.005 C 
ENDBRANCH  22  25
ENDBRANCH   6  22
TORSDOF 4
ENDMDL
MODEL 5
REMARK VINA RESULT:     -10.6      6.586      9.979
REMARK  Name = 5289179
REMARK  4 active torsions:
REMARK  status: ('A' for Active; 'I' for Inactive)
REMARK    1  A    between atoms: C_3  and  C_14
REMARK    2  A    between atoms: C_6  and  C_22
REMARK    3  A    between atoms: C_14  and  C_15
REMARK    4  A    between atoms: C_22  and  C_25
REMARK                            x       y       z     vdW  Elec       q    Type
REMARK                         _______ _______ _______ _____ _____    ______ ____
ROOT
ATOM      1  N   UNL     1      34.405 -23.140 -15.147  0.00  0.00    -0.249 N 
ATOM      2  N   UNL     1      33.055 -23.228 -13.366  0.00  0.00    -0.375 NA
ATOM      3  C   UNL     1      35.218 -23.261 -14.050  0.00  0.00    +0.208 C 
ATOM      4  C   UNL     1      33.093 -23.124 -14.679  0.00  0.00    +0.189 C 
ATOM      5  C   UNL     1      34.745 -23.045 -16.495  0.00  0.00    +0.071 C 
ATOM      6  C   UNL     1      33.760 -22.932 -17.403  0.00  0.00    +0.054 C 
ATOM      7  C   UNL     1      34.366 -23.312 -12.972  0.00  0.00    +0.182 C 
ATOM      8  C   UNL     1      32.058 -23.004 -15.652  0.00  0.00    +0.048 C 
ATOM      9  C   UNL     1      32.374 -22.912 -16.958  0.00  0.00    +0.008 C 
ATOM     10  N   UNL     1      34.726 -23.431 -11.674  0.00  0.00    -0.335 N 
ATOM     11  H   UNL     1      34.037 -23.460 -10.973  0.00  0.00    +0.144 HD
ATOM     12  H   UNL     1      35.679 -23.492 -11.432  0.00  0.00    +0.144 HD
ENDROOT
BRANCH   3  14
ATOM     13  O   UNL     1      37.398 -22.317 -14.058  0.00  0.00    -0.289 OA
ATOM     14  C   UNL     1      36.647 -23.316 -14.072  0.00  0.00    +0.200 C 
BRANCH  14  15
ATOM     15  C   UNL     1      37.377 -24.625 -14.097  0.00  0.00    +0.037 C 
ATOM     16  C   UNL     1      36.641 -25.781 -14.187  0.00  0.00    +0.003 C 
ATOM     17  C   UNL     1      38.748 -24.609 -14.026  0.00  0.00    +0.003 C 
ATOM     18  C   UNL     1      37.321 -26.999 -14.210  0.00  0.00    +0.000 C 
ATOM     19  C   UNL     1      39.427 -25.827 -14.049  0.00  0.00    +0.000 C 
ATOM     20  C   UNL     1      38.713 -27.022 -14.141  0.00  0.00    +0.000 C 
ENDBRANCH  14  15
ENDBRANCH   3  14
BRANCH   6  22
ATOM     21  O   UNL     1      34.016 -23.809 -19.562  0.00  0.00    -0.286 OA
ATOM     22  C   UNL     1      34.110 -22.831 -18.819  0.00  0.00    +0.201 C 
BRANCH  22  25
ATOM     23  F   UNL     1      32.329 -21.011 -19.994  0.00  0.00    -0.204 F 
ATOM     24  F   UNL     1      36.796 -22.026 -18.739  0.00  0.00    -0.204 F 
ATOM     25  C   UNL     1      34.562 -21.523 -19.365  0.00  0.00    +0.094 C 
ATOM     26  C   UNL     1      33.626 -20.680 -19.929  0.00  0.00    +0.145 C 
ATOM     27  C   UNL     1      35.899 -21.197 -19.290  0.00  0.00    +0.145 C 
ATOM     28  C   UNL     1      34.050 -19.454 -20.442  0.00  0.00    +0.030 C 
ATOM     29  C   UNL     1      36.321 -19.971 -19.804  0.00  0.00    +0.030 C 
ATOM     30  C   UNL     1      35.397 -19.099 -20.379  0.00  0.00    +0.005 C 
ENDBRANCH  22  25
ENDBRANCH   6  22
TORSDOF 4
ENDMDL
MODEL 6
REMARK VINA RESULT:     -10.3      2.442      6.933
REMARK  Name = 5289179
REMARK  4 active torsions:
REMARK  status: ('A' for Active; 'I' for Inactive)
REMARK    1  A    between atoms: C_3  and  C_14
REMARK    2  A    between atoms: C_6  and  C_22
REMARK    3  A    between atoms: C_14  and  C_15
REMARK    4  A    between atoms: C_22  and  C_25
REMARK                            x       y       z     vdW  Elec       q    Type
REMARK                         _______ _______ _______ _____ _____    ______ ____
ROOT
ATOM      1  N   UNL     1      34.266 -15.707 -23.537  0.00  0.00    -0.249 N 
ATOM      2  N   UNL     1      33.654 -16.012 -25.667  0.00  0.00    -0.375 NA
ATOM      3  C   UNL     1      33.979 -14.464 -24.040  0.00  0.00    +0.208 C 
ATOM      4  C   UNL     1      34.053 -16.619 -24.567  0.00  0.00    +0.189 C 
ATOM      5  C   UNL     1      34.693 -16.069 -22.261  0.00  0.00    +0.071 C 
ATOM      6  C   UNL     1      34.913 -17.368 -21.999  0.00  0.00    +0.054 C 
ATOM      7  C   UNL     1      33.607 -14.679 -25.347  0.00  0.00    +0.182 C 
ATOM      8  C   UNL     1      34.290 -17.994 -24.276  0.00  0.00    +0.048 C 
ATOM      9  C   UNL     1      34.703 -18.357 -23.046  0.00  0.00    +0.008 C 
ATOM     10  N   UNL     1      33.234 -13.733 -26.237  0.00  0.00    -0.335 N 
ATOM     11  H   UNL     1      32.983 -13.990 -27.153  0.00  0.00    +0.144 HD
ATOM     12  H   UNL     1      33.211 -12.785 -25.967  0.00  0.00    +0.144 HD
ENDROOT
BRANCH   3  14
ATOM     13  O   UNL     1      34.831 -12.288 -23.613  0.00  0.00    -0.289 OA
ATOM     14  C   UNL     1      34.065 -13.231 -23.320  0.00  0.00    +0.200 C 
BRANCH  14  15
ATOM     15  C   UNL     1      33.199 -12.964 -22.126  0.00  0.00    +0.037 C 
ATOM     16  C   UNL     1      33.214 -13.866 -21.093  0.00  0.00    +0.003 C 
ATOM     17  C   UNL     1      32.427 -11.828 -22.123  0.00  0.00    +0.003 C 
ATOM     18  C   UNL     1      32.407 -13.617 -19.983  0.00  0.00    +0.000 C 
ATOM     19  C   UNL     1      31.619 -11.579 -21.013  0.00  0.00    +0.000 C 
ATOM     20  C   UNL     1      31.610 -12.474 -19.942  0.00  0.00    +0.000 C 
ENDBRANCH  14  15
ENDBRANCH   3  14
BRANCH   6  22
ATOM     21  O   UNL     1      35.761 -16.905 -19.863  0.00  0.00    -0.286 OA
ATOM     22  C   UNL     1      35.363 -17.754 -20.662  0.00  0.00    +0.201 C 
BRANCH  22  25
ATOM     23  F   UNL     1      37.686 -19.270 -20.251  0.00  0.00    -0.204 F 
ATOM     24  F   UNL     1      32.939 -19.110 -20.270  0.00  0.00    -0.204 F 
ATOM     25  C   UNL     1      35.312 -19.186 -20.262  0.00  0.00    +0.094 C 
ATOM     26  C   UNL     1      36.498 -19.866 -20.078  0.00  0.00    +0.145 C 
ATOM     27  C   UNL     1      34.083 -19.785 -20.088  0.00  0.00    +0.145 C 
ATOM     28  C   UNL     1      36.451 -21.209 -19.703  0.00  0.00    +0.030 C 
ATOM     29  C   UNL     1      34.037 -21.127 -19.713  0.00  0.00    +0.030 C 
ATOM     30  C   UNL     1      35.221 -21.840 -19.521  0.00  0.00    +0.005 C 
ENDBRANCH  22  25
ENDBRANCH   6  22
TORSDOF 4
ENDMDL
MODEL 7
REMARK VINA RESULT:     -10.0      5.953     10.852
REMARK  Name = 5289179
REMARK  4 active torsions:
REMARK  status: ('A' for Active; 'I' for Inactive)
REMARK    1  A    between atoms: C_3  and  C_14
REMARK    2  A    between atoms: C_6  and  C_22
REMARK    3  A    between atoms: C_14  and  C_15
REMARK    4  A    between atoms: C_22  and  C_25
REMARK                            x       y       z     vdW  Elec       q    Type
REMARK                         _______ _______ _______ _____ _____    ______ ____
ROOT
ATOM      1  N   UNL     1      34.883 -22.117 -17.614  0.00  0.00    -0.249 N 
ATOM      2  N   UNL     1      32.681 -22.137 -18.006  0.00  0.00    -0.375 NA
ATOM      3  C   UNL     1      34.694 -21.451 -18.798  0.00  0.00    +0.208 C 
ATOM      4  C   UNL     1      33.626 -22.516 -17.169  0.00  0.00    +0.189 C 
ATOM      5  C   UNL     1      36.066 -22.382 -16.926  0.00  0.00    +0.071 C 
ATOM      6  C   UNL     1      36.000 -23.061 -15.768  0.00  0.00    +0.054 C 
ATOM      7  C   UNL     1      33.337 -21.478 -19.016  0.00  0.00    +0.182 C 
ATOM      8  C   UNL     1      33.570 -23.235 -15.940  0.00  0.00    +0.048 C 
ATOM      9  C   UNL     1      34.706 -23.498 -15.266  0.00  0.00    +0.008 C 
ATOM     10  N   UNL     1      32.687 -20.938 -20.071  0.00  0.00    -0.335 N 
ATOM     11  H   UNL     1      31.707 -21.011 -20.135  0.00  0.00    +0.144 HD
ATOM     12  H   UNL     1      33.193 -20.471 -20.774  0.00  0.00    +0.144 HD
ENDROOT
BRANCH   3  14
ATOM     13  O   UNL     1      36.916 -21.244 -19.612  0.00  0.00    -0.289 OA
ATOM     14  C   UNL     1      35.724 -20.870 -19.603  0.00  0.00    +0.200 C 
BRANCH  14  15
ATOM     15  C   UNL     1      35.433 -19.738 -20.542  0.00  0.00    +0.037 C 
ATOM     16  C   UNL     1      34.887 -20.031 -21.767  0.00  0.00    +0.003 C 
ATOM     17  C   UNL     1      35.729 -18.461 -20.135  0.00  0.00    +0.003 C 
ATOM     18  C   UNL     1      34.618 -18.977 -22.641  0.00  0.00    +0.000 C 
ATOM     19  C   UNL     1      35.460 -17.407 -21.009  0.00  0.00    +0.000 C 
ATOM     20  C   UNL     1      34.904 -17.667 -22.263  0.00  0.00    +0.000 C 
ENDBRANCH  14  15
ENDBRANCH   3  14
BRANCH   6  22
ATOM     21  O   UNL     1      38.303 -22.833 -15.392  0.00  0.00    -0.286 OA
ATOM     22  C   UNL     1      37.238 -23.345 -15.043  0.00  0.00    +0.201 C 
BRANCH  22  25
ATOM     23  F   UNL     1      37.187 -22.351 -12.421  0.00  0.00    -0.204 F 
ATOM     24  F   UNL     1      37.208 -26.139 -15.287  0.00  0.00    -0.204 F 
ATOM     25  C   UNL     1      37.198 -24.243 -13.858  0.00  0.00    +0.094 C 
ATOM     26  C   UNL     1      37.175 -23.680 -12.599  0.00  0.00    +0.145 C 
ATOM     27  C   UNL     1      37.186 -25.607 -14.057  0.00  0.00    +0.145 C 
ATOM     28  C   UNL     1      37.138 -24.522 -11.487  0.00  0.00    +0.030 C 
ATOM     29  C   UNL     1      37.149 -26.448 -12.945  0.00  0.00    +0.030 C 
ATOM     30  C   UNL     1      37.125 -25.905 -11.660  0.00  0.00    +0.005 C 
ENDBRANCH  22  25
ENDBRANCH   6  22
TORSDOF 4
ENDMDL
MODEL 8
REMARK VINA RESULT:     -10.0      6.560     10.082
REMARK  Name = 5289179
REMARK  4 active torsions:
REMARK  status: ('A' for Active; 'I' for Inactive)
REMARK    1  A    between atoms: C_3  and  C_14
REMARK    2  A    between atoms: C_6  and  C_22
REMARK    3  A    between atoms: C_14  and  C_15
REMARK    4  A    between atoms: C_22  and  C_25
REMARK                            x       y       z     vdW  Elec       q    Type
REMARK                         _______ _______ _______ _____ _____    ______ ____
ROOT
ATOM      1  N   UNL     1      33.756 -23.720 -15.458  0.00  0.00    -0.249 N 
ATOM      2  N   UNL     1      32.235 -23.492 -13.834  0.00  0.00    -0.375 NA
ATOM      3  C   UNL     1      34.290 -24.311 -14.341  0.00  0.00    +0.208 C 
ATOM      4  C   UNL     1      32.502 -23.235 -15.099  0.00  0.00    +0.189 C 
ATOM      5  C   UNL     1      34.299 -23.590 -16.734  0.00  0.00    +0.071 C 
ATOM      6  C   UNL     1      33.579 -22.963 -17.680  0.00  0.00    +0.054 C 
ATOM      7  C   UNL     1      33.338 -24.156 -13.360  0.00  0.00    +0.182 C 
ATOM      8  C   UNL     1      31.748 -22.572 -16.111  0.00  0.00    +0.048 C 
ATOM      9  C   UNL     1      32.262 -22.440 -17.350  0.00  0.00    +0.008 C 
ATOM     10  N   UNL     1      33.430 -24.588 -12.083  0.00  0.00    -0.335 N 
ATOM     11  H   UNL     1      32.690 -24.428 -11.455  0.00  0.00    +0.144 HD
ATOM     12  H   UNL     1      34.238 -25.063 -11.781  0.00  0.00    +0.144 HD
ENDROOT
BRANCH   3  14
ATOM     13  O   UNL     1      35.973 -25.839 -15.028  0.00  0.00    -0.289 OA
ATOM     14  C   UNL     1      35.571 -24.939 -14.260  0.00  0.00    +0.200 C 
BRANCH  14  15
ATOM     15  C   UNL     1      36.572 -24.538 -13.217  0.00  0.00    +0.037 C 
ATOM     16  C   UNL     1      37.358 -25.514 -12.657  0.00  0.00    +0.003 C 
ATOM     17  C   UNL     1      36.654 -23.213 -12.869  0.00  0.00    +0.003 C 
ATOM     18  C   UNL     1      38.288 -25.140 -11.687  0.00  0.00    +0.000 C 
ATOM     19  C   UNL     1      37.584 -22.839 -11.898  0.00  0.00    +0.000 C 
ATOM     20  C   UNL     1      38.401 -23.803 -11.307  0.00  0.00    +0.000 C 
ENDBRANCH  14  15
ENDBRANCH   3  14
BRANCH   6  22
ATOM     21  O   UNL     1      34.193 -23.785 -19.788  0.00  0.00    -0.286 OA
ATOM     22  C   UNL     1      34.143 -22.822 -19.022  0.00  0.00    +0.201 C 
BRANCH  22  25
ATOM     23  F   UNL     1      36.814 -22.035 -18.688  0.00  0.00    -0.204 F 
ATOM     24  F   UNL     1      32.464 -20.940 -20.250  0.00  0.00    -0.204 F 
ATOM     25  C   UNL     1      34.637 -21.491 -19.468  0.00  0.00    +0.094 C 
ATOM     26  C   UNL     1      35.965 -21.175 -19.269  0.00  0.00    +0.145 C 
ATOM     27  C   UNL     1      33.752 -20.619 -20.064  0.00  0.00    +0.145 C 
ATOM     28  C   UNL     1      36.428 -19.928 -19.686  0.00  0.00    +0.030 C 
ATOM     29  C   UNL     1      34.216 -19.372 -20.480  0.00  0.00    +0.030 C 
ATOM     30  C   UNL     1      35.554 -19.026 -20.292  0.00  0.00    +0.005 C 
ENDBRANCH  22  25
ENDBRANCH   6  22
TORSDOF 4
ENDMDL
MODEL 9
REMARK VINA RESULT:      -9.9      4.549      9.706
REMARK  Name = 5289179
REMARK  4 active torsions:
REMARK  status: ('A' for Active; 'I' for Inactive)
REMARK    1  A    between atoms: C_3  and  C_14
REMARK    2  A    between atoms: C_6  and  C_22
REMARK    3  A    between atoms: C_14  and  C_15
REMARK    4  A    between atoms: C_22  and  C_25
REMARK                            x       y       z     vdW  Elec       q    Type
REMARK                         _______ _______ _______ _____ _____    ______ ____
ROOT
ATOM      1  N   UNL     1      32.570  -9.986 -21.394  0.00  0.00    -0.249 N 
ATOM      2  N   UNL     1      31.316  -9.839 -19.549  0.00  0.00    -0.375 NA
ATOM      3  C   UNL     1      32.647  -8.682 -20.976  0.00  0.00    +0.208 C 
ATOM      4  C   UNL     1      31.747 -10.653 -20.492  0.00  0.00    +0.189 C 
ATOM      5  C   UNL     1      33.168 -10.600 -22.493  0.00  0.00    +0.071 C 
ATOM      6  C   UNL     1      32.943 -11.908 -22.703  0.00  0.00    +0.054 C 
ATOM      7  C   UNL     1      31.869  -8.619 -19.844  0.00  0.00    +0.182 C 
ATOM      8  C   UNL     1      31.516 -12.040 -20.725  0.00  0.00    +0.048 C 
ATOM      9  C   UNL     1      32.088 -12.645 -21.784  0.00  0.00    +0.008 C 
ATOM     10  N   UNL     1      31.650  -7.521 -19.086  0.00  0.00    -0.335 N 
ATOM     11  H   UNL     1      31.075  -7.580 -18.290  0.00  0.00    +0.144 HD
ATOM     12  H   UNL     1      32.068  -6.663 -19.331  0.00  0.00    +0.144 HD
ENDROOT
BRANCH   3  14
ATOM     13  O   UNL     1      34.569  -7.334 -21.338  0.00  0.00    -0.289 OA
ATOM     14  C   UNL     1      33.391  -7.642 -21.617  0.00  0.00    +0.200 C 
BRANCH  14  15
ATOM     15  C   UNL     1      32.794  -6.826 -22.724  0.00  0.00    +0.037 C 
ATOM     16  C   UNL     1      31.483  -7.046 -23.064  0.00  0.00    +0.003 C 
ATOM     17  C   UNL     1      33.587  -5.896 -23.349  0.00  0.00    +0.003 C 
ATOM     18  C   UNL     1      30.928  -6.287 -24.094  0.00  0.00    +0.000 C 
ATOM     19  C   UNL     1      33.033  -5.136 -24.379  0.00  0.00    +0.000 C 
ATOM     20  C   UNL     1      31.702  -5.332 -24.751  0.00  0.00    +0.000 C 
ENDBRANCH  14  15
ENDBRANCH   3  14
BRANCH   6  22
ATOM     21  O   UNL     1      33.784 -11.926 -24.891  0.00  0.00    -0.286 OA
ATOM     22  C   UNL     1      33.565 -12.557 -23.856  0.00  0.00    +0.201 C 
BRANCH  22  25
ATOM     23  F   UNL     1      35.146 -13.533 -21.755  0.00  0.00    -0.204 F 
ATOM     24  F   UNL     1      32.772 -14.453 -25.765  0.00  0.00    -0.204 F 
ATOM     25  C   UNL     1      33.958 -13.989 -23.761  0.00  0.00    +0.094 C 
ATOM     26  C   UNL     1      34.739 -14.395 -22.698  0.00  0.00    +0.145 C 
ATOM     27  C   UNL     1      33.530 -14.862 -24.738  0.00  0.00    +0.145 C 
ATOM     28  C   UNL     1      35.107 -15.737 -22.609  0.00  0.00    +0.030 C 
ATOM     29  C   UNL     1      33.900 -16.204 -24.648  0.00  0.00    +0.030 C 
ATOM     30  C   UNL     1      34.689 -16.641 -23.584  0.00  0.00    +0.005 C 
ENDBRANCH  22  25
ENDBRANCH   6  22
TORSDOF 4
ENDMDL
