MODEL 1
REMARK VINA RESULT:     -11.0      0.000      0.000
REMARK  Name = 17754104
REMARK  13 active torsions:
REMARK  status: ('A' for Active; 'I' for Inactive)
REMARK    1  A    between atoms: C_1  and  C_29
REMARK    2  A    between atoms: C_3  and  N_11
REMARK    3  A    between atoms: C_4  and  O_7
REMARK    4  A    between atoms: C_5  and  O_9
REMARK    5  A    between atoms: C_13  and  C_14
REMARK    6  A    between atoms: C_13  and  C_17
REMARK    7  A    between atoms: C_14  and  C_16
REMARK    8  A    between atoms: C_17  and  O_18
REMARK    9  A    between atoms: O_18  and  C_21
REMARK   10  A    between atoms: C_29  and  CA_30
REMARK   11  A    between atoms: CA_30  and  N_31
REMARK   12  A    between atoms: CA_30  and  C_36
REMARK   13  A    between atoms: C_36  and  O_37
REMARK                            x       y       z     vdW  Elec       q    Type
REMARK                         _______ _______ _______ _____ _____    ______ ____
ROOT
ATOM      1  C   UNL     1      37.018 -24.416 -13.037  0.00  0.00    +0.012 C 
ATOM      2  C   UNL     1      36.146 -24.361 -14.124  0.00  0.00    +0.019 C 
ATOM      3  C   UNL     1      34.768 -24.434 -13.917  0.00  0.00    +0.090 C 
ATOM      4  C   UNL     1      36.513 -24.544 -11.743  0.00  0.00    +0.133 C 
ATOM      5  C   UNL     1      34.263 -24.562 -12.623  0.00  0.00    +0.152 C 
ATOM      6  C   UNL     1      35.136 -24.618 -11.537  0.00  0.00    +0.074 C 
ENDROOT
BRANCH   3   7
ATOM      7  N   UNL     1      33.906 -24.378 -15.014  0.00  0.00    -0.354 N 
ATOM      8  H   UNL     1      33.947 -25.142 -15.633  0.00  0.00    +0.166 HD
ATOM      9  C   UNL     1      33.010 -23.394 -15.338  0.00  0.00    +0.063 C 
BRANCH   9  10
ATOM     10  C   UNL     1      32.358 -22.590 -14.478  0.00  0.00    +0.115 C 
BRANCH  10  12
ATOM     11  O   UNL     1      30.431 -23.333 -13.325  0.00  0.00    -0.288 OA
ATOM     12  C   UNL     1      30.901 -22.658 -14.235  0.00  0.00    +0.213 C 
ENDBRANCH  10  12
ENDBRANCH   9  10
BRANCH   9  13
ATOM     13  C   UNL     1      32.739 -23.242 -16.817  0.00  0.00    +0.245 C 
BRANCH  13  14
ATOM     14  O   UNL     1      33.978 -23.195 -17.524  0.00  0.00    -0.469 OA
BRANCH  14  17
ATOM     15  C   UNL     1      35.641 -20.605 -19.528  0.00  0.00    +0.003 C 
ATOM     16  C   UNL     1      34.527 -20.030 -20.182  0.00  0.00    +0.000 C 
ATOM     17  C   UNL     1      34.157 -22.162 -18.392  0.00  0.00    +0.139 C 
ATOM     18  C   UNL     1      35.439 -21.672 -18.636  0.00  0.00    +0.037 C 
ATOM     19  C   UNL     1      33.242 -20.537 -19.925  0.00  0.00    +0.003 C 
ATOM     20  C   UNL     1      33.060 -21.597 -19.036  0.00  0.00    +0.037 C 
ATOM     21  C   UNL     1      36.925 -20.098 -19.784  0.00  0.00    +0.000 C 
ATOM     22  C   UNL     1      34.728 -18.964 -21.074  0.00  0.00    +0.000 C 
ATOM     23  C   UNL     1      37.108 -19.039 -20.673  0.00  0.00    +0.000 C 
ATOM     24  C   UNL     1      36.011 -18.473 -21.317  0.00  0.00    +0.000 C 
ENDBRANCH  14  17
ENDBRANCH  13  14
ENDBRANCH   9  13
ENDBRANCH   3   7
BRANCH   4  25
ATOM     25  O   UNL     1      37.351 -24.598 -10.670  0.00  0.00    -0.506 OA
ATOM     26  H   UNL     1      38.259 -24.793 -10.794  0.00  0.00    +0.292 HD
ENDBRANCH   4  25
BRANCH   5  27
ATOM     27  O   UNL     1      32.921 -24.635 -12.400  0.00  0.00    -0.504 OA
ATOM     28  H   UNL     1      32.557 -25.384 -11.972  0.00  0.00    +0.292 HD
ENDBRANCH   5  27
BRANCH   1  29
ATOM     29  C   UNL     1      38.490 -24.339 -13.277  0.00  0.00    +0.018 C 
BRANCH  29  30
ATOM     30  CA  UNL     1      39.037 -25.500 -14.134  0.00  0.00    +0.040 C 
BRANCH  30  31
ATOM     31  N   UNL     1      38.479 -26.773 -13.683  0.00  0.00    +0.389 N 
ATOM     32  H1  UNL     1      38.070 -26.654 -12.756  0.00  0.00    -0.088 HD
ATOM     33  H2  UNL     1      39.219 -27.473 -13.641  0.00  0.00    -0.088 HD
ATOM     34  H3  UNL     1      37.758 -27.078 -14.336  0.00  0.00    -0.088 HD
ENDBRANCH  30  31
BRANCH  30  36
ATOM     35  OXT UNL     1      41.145 -26.648 -13.721  0.00  0.00    -0.253 OA
ATOM     36  C   UNL     1      40.547 -25.623 -14.022  0.00  0.00    +0.293 C 
BRANCH  36  37
ATOM     37  O   UNL     1      41.184 -24.463 -14.331  0.00  0.00    -0.482 OA
ATOM     38  H   UNL     1      41.966 -24.482 -14.847  0.00  0.00    +0.295 HD
ENDBRANCH  36  37
ENDBRANCH  30  36
ENDBRANCH  29  30
ENDBRANCH   1  29
TORSDOF 13
ENDMDL
MODEL 2
REMARK VINA RESULT:     -11.0      1.446      2.100
REMARK  Name = 17754104
REMARK  13 active torsions:
REMARK  status: ('A' for Active; 'I' for Inactive)
REMARK    1  A    between atoms: C_1  and  C_29
REMARK    2  A    between atoms: C_3  and  N_11
REMARK    3  A    between atoms: C_4  and  O_7
REMARK    4  A    between atoms: C_5  and  O_9
REMARK    5  A    between atoms: C_13  and  C_14
REMARK    6  A    between atoms: C_13  and  C_17
REMARK    7  A    between atoms: C_14  and  C_16
REMARK    8  A    between atoms: C_17  and  O_18
REMARK    9  A    between atoms: O_18  and  C_21
REMARK   10  A    between atoms: C_29  and  CA_30
REMARK   11  A    between atoms: CA_30  and  N_31
REMARK   12  A    between atoms: CA_30  and  C_36
REMARK   13  A    between atoms: C_36  and  O_37
REMARK                            x       y       z     vdW  Elec       q    Type
REMARK                         _______ _______ _______ _____ _____    ______ ____
ROOT
ATOM      1  C   UNL     1      36.847 -25.506 -13.218  0.00  0.00    +0.012 C 
ATOM      2  C   UNL     1      36.021 -25.018 -14.231  0.00  0.00    +0.019 C 
ATOM      3  C   UNL     1      34.862 -24.315 -13.907  0.00  0.00    +0.090 C 
ATOM      4  C   UNL     1      36.514 -25.289 -11.881  0.00  0.00    +0.133 C 
ATOM      5  C   UNL     1      34.528 -24.097 -12.570  0.00  0.00    +0.152 C 
ATOM      6  C   UNL     1      35.354 -24.585 -11.558  0.00  0.00    +0.074 C 
ENDROOT
BRANCH   3   7
ATOM      7  N   UNL     1      34.043 -23.832 -14.931  0.00  0.00    -0.354 N 
ATOM      8  H   UNL     1      33.119 -24.170 -14.938  0.00  0.00    +0.166 HD
ATOM      9  C   UNL     1      34.364 -22.948 -15.926  0.00  0.00    +0.063 C 
BRANCH   9  10
ATOM     10  C   UNL     1      35.270 -21.956 -15.854  0.00  0.00    +0.115 C 
BRANCH  10  12
ATOM     11  O   UNL     1      37.540 -21.979 -15.187  0.00  0.00    -0.288 OA
ATOM     12  C   UNL     1      36.718 -22.148 -16.082  0.00  0.00    +0.213 C 
ENDBRANCH  10  12
ENDBRANCH   9  10
BRANCH   9  13
ATOM     13  C   UNL     1      33.586 -23.126 -17.210  0.00  0.00    +0.245 C 
BRANCH  13  14
ATOM     14  O   UNL     1      34.481 -23.068 -18.319  0.00  0.00    -0.469 OA
BRANCH  14  17
ATOM     15  C   UNL     1      35.749 -20.157 -20.165  0.00  0.00    +0.003 C 
ATOM     16  C   UNL     1      34.533 -19.534 -20.531  0.00  0.00    +0.000 C 
ATOM     17  C   UNL     1      34.498 -21.915 -19.042  0.00  0.00    +0.139 C 
ATOM     18  C   UNL     1      35.714 -21.348 -19.420  0.00  0.00    +0.037 C 
ATOM     19  C   UNL     1      33.317 -20.119 -20.142  0.00  0.00    +0.003 C 
ATOM     20  C   UNL     1      33.301 -21.302 -19.403  0.00  0.00    +0.037 C 
ATOM     21  C   UNL     1      36.965 -19.572 -20.553  0.00  0.00    +0.000 C 
ATOM     22  C   UNL     1      34.567 -18.343 -21.276  0.00  0.00    +0.000 C 
ATOM     23  C   UNL     1      36.982 -18.389 -21.293  0.00  0.00    +0.000 C 
ATOM     24  C   UNL     1      35.785 -17.776 -21.654  0.00  0.00    +0.000 C 
ENDBRANCH  14  17
ENDBRANCH  13  14
ENDBRANCH   9  13
ENDBRANCH   3   7
BRANCH   4  25
ATOM     25  O   UNL     1      37.310 -25.756 -10.880  0.00  0.00    -0.506 OA
ATOM     26  H   UNL     1      38.237 -25.815 -11.006  0.00  0.00    +0.292 HD
ENDBRANCH   4  25
BRANCH   5  27
ATOM     27  O   UNL     1      33.400 -23.412 -12.233  0.00  0.00    -0.504 OA
ATOM     28  H   UNL     1      32.559 -23.748 -12.471  0.00  0.00    +0.292 HD
ENDBRANCH   5  27
BRANCH   1  29
ATOM     29  C   UNL     1      38.084 -26.259 -13.583  0.00  0.00    +0.018 C 
BRANCH  29  30
ATOM     30  CA  UNL     1      39.338 -25.366 -13.697  0.00  0.00    +0.040 C 
BRANCH  30  31
ATOM     31  N   UNL     1      39.095 -24.262 -14.622  0.00  0.00    +0.389 N 
ATOM     32  H1  UNL     1      39.960 -24.031 -15.111  0.00  0.00    -0.088 HD
ATOM     33  H2  UNL     1      38.769 -23.447 -14.102  0.00  0.00    -0.088 HD
ATOM     34  H3  UNL     1      38.385 -24.539 -15.301  0.00  0.00    -0.088 HD
ENDBRANCH  30  31
BRANCH  30  36
ATOM     35  OXT UNL     1      41.315 -26.784 -13.562  0.00  0.00    -0.253 OA
ATOM     36  C   UNL     1      40.531 -26.134 -14.242  0.00  0.00    +0.293 C 
BRANCH  36  37
ATOM     37  O   UNL     1      40.622 -26.055 -15.596  0.00  0.00    -0.482 OA
ATOM     38  H   UNL     1      41.379 -26.390 -16.034  0.00  0.00    +0.295 HD
ENDBRANCH  36  37
ENDBRANCH  30  36
ENDBRANCH  29  30
ENDBRANCH   1  29
TORSDOF 13
ENDMDL
MODEL 3
REMARK VINA RESULT:     -10.3      7.770     13.040
REMARK  Name = 17754104
REMARK  13 active torsions:
REMARK  status: ('A' for Active; 'I' for Inactive)
REMARK    1  A    between atoms: C_1  and  C_29
REMARK    2  A    between atoms: C_3  and  N_11
REMARK    3  A    between atoms: C_4  and  O_7
REMARK    4  A    between atoms: C_5  and  O_9
REMARK    5  A    between atoms: C_13  and  C_14
REMARK    6  A    between atoms: C_13  and  C_17
REMARK    7  A    between atoms: C_14  and  C_16
REMARK    8  A    between atoms: C_17  and  O_18
REMARK    9  A    between atoms: O_18  and  C_21
REMARK   10  A    between atoms: C_29  and  CA_30
REMARK   11  A    between atoms: CA_30  and  N_31
REMARK   12  A    between atoms: CA_30  and  C_36
REMARK   13  A    between atoms: C_36  and  O_37
REMARK                            x       y       z     vdW  Elec       q    Type
REMARK                         _______ _______ _______ _____ _____    ______ ____
ROOT
ATOM      1  C   UNL     1      33.147 -11.533 -22.684  0.00  0.00    +0.012 C 
ATOM      2  C   UNL     1      33.724 -12.802 -22.619  0.00  0.00    +0.019 C 
ATOM      3  C   UNL     1      33.384 -13.669 -21.580  0.00  0.00    +0.090 C 
ATOM      4  C   UNL     1      32.231 -11.132 -21.711  0.00  0.00    +0.133 C 
ATOM      5  C   UNL     1      32.468 -13.268 -20.608  0.00  0.00    +0.152 C 
ATOM      6  C   UNL     1      31.893 -12.000 -20.673  0.00  0.00    +0.074 C 
ENDROOT
BRANCH   3   7
ATOM      7  N   UNL     1      33.969 -14.937 -21.527  0.00  0.00    -0.354 N 
ATOM      8  H   UNL     1      33.780 -15.464 -20.717  0.00  0.00    +0.166 HD
ATOM      9  C   UNL     1      34.771 -15.539 -22.458  0.00  0.00    +0.063 C 
BRANCH   9  10
ATOM     10  C   UNL     1      34.737 -15.346 -23.789  0.00  0.00    +0.115 C 
BRANCH  10  12
ATOM     11  O   UNL     1      33.730 -15.757 -25.891  0.00  0.00    -0.288 OA
ATOM     12  C   UNL     1      33.761 -15.999 -24.688  0.00  0.00    +0.213 C 
ENDBRANCH  10  12
ENDBRANCH   9  10
BRANCH   9  13
ATOM     13  C   UNL     1      35.766 -16.529 -21.896  0.00  0.00    +0.245 C 
BRANCH  13  14
ATOM     14  O   UNL     1      35.384 -17.851 -22.273  0.00  0.00    -0.469 OA
BRANCH  14  17
ATOM     15  C   UNL     1      34.324 -20.441 -19.894  0.00  0.00    +0.003 C 
ATOM     16  C   UNL     1      35.570 -20.792 -19.324  0.00  0.00    +0.000 C 
ATOM     17  C   UNL     1      35.445 -18.812 -21.311  0.00  0.00    +0.139 C 
ATOM     18  C   UNL     1      34.279 -19.448 -20.888  0.00  0.00    +0.037 C 
ATOM     19  C   UNL     1      36.735 -20.140 -19.762  0.00  0.00    +0.003 C 
ATOM     20  C   UNL     1      36.671 -19.157 -20.750  0.00  0.00    +0.037 C 
ATOM     21  C   UNL     1      33.160 -21.092 -19.456  0.00  0.00    +0.000 C 
ATOM     22  C   UNL     1      35.616 -21.784 -18.330  0.00  0.00    +0.000 C 
ATOM     23  C   UNL     1      33.223 -22.076 -18.469  0.00  0.00    +0.000 C 
ATOM     24  C   UNL     1      34.449 -22.421 -17.907  0.00  0.00    +0.000 C 
ENDBRANCH  14  17
ENDBRANCH  13  14
ENDBRANCH   9  13
ENDBRANCH   3   7
BRANCH   4  25
ATOM     25  O   UNL     1      31.658  -9.898 -21.761  0.00  0.00    -0.506 OA
ATOM     26  H   UNL     1      30.725  -9.815 -21.802  0.00  0.00    +0.292 HD
ENDBRANCH   4  25
BRANCH   5  27
ATOM     27  O   UNL     1      32.124 -14.102 -19.586  0.00  0.00    -0.504 OA
ATOM     28  H   UNL     1      32.021 -15.019 -19.744  0.00  0.00    +0.292 HD
ENDBRANCH   5  27
BRANCH   1  29
ATOM     29  C   UNL     1      33.523 -10.616 -23.801  0.00  0.00    +0.018 C 
BRANCH  29  30
ATOM     30  CA  UNL     1      34.391 -11.290 -24.885  0.00  0.00    +0.040 C 
BRANCH  30  31
ATOM     31  N   UNL     1      35.212 -10.294 -25.571  0.00  0.00    +0.389 N 
ATOM     32  H1  UNL     1      35.158  -9.407 -25.071  0.00  0.00    -0.088 HD
ATOM     33  H2  UNL     1      34.872 -10.169 -26.524  0.00  0.00    -0.088 HD
ATOM     34  H3  UNL     1      36.181 -10.612 -25.594  0.00  0.00    -0.088 HD
ENDBRANCH  30  31
BRANCH  30  36
ATOM     35  OXT UNL     1      32.367 -11.701 -26.177  0.00  0.00    -0.253 OA
ATOM     36  C   UNL     1      33.542 -11.961 -25.952  0.00  0.00    +0.293 C 
BRANCH  36  37
ATOM     37  O   UNL     1      34.244 -12.876 -26.670  0.00  0.00    -0.482 OA
ATOM     38  H   UNL     1      33.799 -13.441 -27.271  0.00  0.00    +0.295 HD
ENDBRANCH  36  37
ENDBRANCH  30  36
ENDBRANCH  29  30
ENDBRANCH   1  29
TORSDOF 13
ENDMDL
MODEL 4
REMARK VINA RESULT:     -10.2      6.691     12.298
REMARK  Name = 17754104
REMARK  13 active torsions:
REMARK  status: ('A' for Active; 'I' for Inactive)
REMARK    1  A    between atoms: C_1  and  C_29
REMARK    2  A    between atoms: C_3  and  N_11
REMARK    3  A    between atoms: C_4  and  O_7
REMARK    4  A    between atoms: C_5  and  O_9
REMARK    5  A    between atoms: C_13  and  C_14
REMARK    6  A    between atoms: C_13  and  C_17
REMARK    7  A    between atoms: C_14  and  C_16
REMARK    8  A    between atoms: C_17  and  O_18
REMARK    9  A    between atoms: O_18  and  C_21
REMARK   10  A    between atoms: C_29  and  CA_30
REMARK   11  A    between atoms: CA_30  and  N_31
REMARK   12  A    between atoms: CA_30  and  C_36
REMARK   13  A    between atoms: C_36  and  O_37
REMARK                            x       y       z     vdW  Elec       q    Type
REMARK                         _______ _______ _______ _____ _____    ______ ____
ROOT
ATOM      1  C   UNL     1      33.878 -13.688 -23.737  0.00  0.00    +0.012 C 
ATOM      2  C   UNL     1      34.760 -14.498 -23.021  0.00  0.00    +0.019 C 
ATOM      3  C   UNL     1      34.940 -15.831 -23.393  0.00  0.00    +0.090 C 
ATOM      4  C   UNL     1      33.177 -14.210 -24.823  0.00  0.00    +0.133 C 
ATOM      5  C   UNL     1      34.239 -16.353 -24.480  0.00  0.00    +0.152 C 
ATOM      6  C   UNL     1      33.356 -15.542 -25.194  0.00  0.00    +0.074 C 
ENDROOT
BRANCH   3   7
ATOM      7  N   UNL     1      35.826 -16.631 -22.668  0.00  0.00    -0.354 N 
ATOM      8  H   UNL     1      36.716 -16.760 -23.070  0.00  0.00    +0.166 HD
ATOM      9  C   UNL     1      35.615 -17.259 -21.470  0.00  0.00    +0.063 C 
BRANCH   9  10
ATOM     10  C   UNL     1      34.803 -16.843 -20.481  0.00  0.00    +0.115 C 
BRANCH  10  12
ATOM     11  O   UNL     1      33.928 -14.725 -19.893  0.00  0.00    -0.288 OA
ATOM     12  C   UNL     1      34.879 -15.500 -19.867  0.00  0.00    +0.213 C 
ENDBRANCH  10  12
ENDBRANCH   9  10
BRANCH   9  13
ATOM     13  C   UNL     1      36.408 -18.529 -21.269  0.00  0.00    +0.245 C 
BRANCH  13  14
ATOM     14  O   UNL     1      35.522 -19.647 -21.278  0.00  0.00    -0.469 OA
BRANCH  14  17
ATOM     15  C   UNL     1      34.142 -21.676 -18.545  0.00  0.00    +0.003 C 
ATOM     16  C   UNL     1      35.315 -21.931 -17.796  0.00  0.00    +0.000 C 
ATOM     17  C   UNL     1      35.455 -20.394 -20.142  0.00  0.00    +0.139 C 
ATOM     18  C   UNL     1      34.229 -20.905 -19.716  0.00  0.00    +0.037 C 
ATOM     19  C   UNL     1      36.541 -21.409 -18.239  0.00  0.00    +0.003 C 
ATOM     20  C   UNL     1      36.609 -20.645 -19.405  0.00  0.00    +0.037 C 
ATOM     21  C   UNL     1      32.917 -22.198 -18.101  0.00  0.00    +0.000 C 
ATOM     22  C   UNL     1      35.228 -22.702 -16.624  0.00  0.00    +0.000 C 
ATOM     23  C   UNL     1      32.848 -22.962 -16.936  0.00  0.00    +0.000 C 
ATOM     24  C   UNL     1      34.002 -23.213 -16.199  0.00  0.00    +0.000 C 
ENDBRANCH  14  17
ENDBRANCH  13  14
ENDBRANCH   9  13
ENDBRANCH   3   7
BRANCH   4  25
ATOM     25  O   UNL     1      32.313 -13.432 -25.533  0.00  0.00    -0.506 OA
ATOM     26  H   UNL     1      31.665 -12.923 -25.087  0.00  0.00    +0.292 HD
ENDBRANCH   4  25
BRANCH   5  27
ATOM     27  O   UNL     1      34.401 -17.652 -24.858  0.00  0.00    -0.504 OA
ATOM     28  H   UNL     1      35.261 -18.016 -24.925  0.00  0.00    +0.292 HD
ENDBRANCH   5  27
BRANCH   1  29
ATOM     29  C   UNL     1      33.695 -12.265 -23.324  0.00  0.00    +0.018 C 
BRANCH  29  30
ATOM     30  CA  UNL     1      32.987 -12.104 -21.962  0.00  0.00    +0.040 C 
BRANCH  30  31
ATOM     31  N   UNL     1      31.957 -13.128 -21.799  0.00  0.00    +0.389 N 
ATOM     32  H1  UNL     1      31.155 -12.728 -21.312  0.00  0.00    -0.088 HD
ATOM     33  H2  UNL     1      32.333 -13.905 -21.256  0.00  0.00    -0.088 HD
ATOM     34  H3  UNL     1      31.664 -13.462 -22.717  0.00  0.00    -0.088 HD
ENDBRANCH  30  31
BRANCH  30  36
ATOM     35  OXT UNL     1      32.674  -9.722 -22.364  0.00  0.00    -0.253 OA
ATOM     36  C   UNL     1      32.287 -10.761 -21.844  0.00  0.00    +0.293 C 
BRANCH  36  37
ATOM     37  O   UNL     1      31.142 -10.837 -21.116  0.00  0.00    -0.482 OA
ATOM     38  H   UNL     1      30.450 -10.225 -21.268  0.00  0.00    +0.295 HD
ENDBRANCH  36  37
ENDBRANCH  30  36
ENDBRANCH  29  30
ENDBRANCH   1  29
TORSDOF 13
ENDMDL
MODEL 5
REMARK VINA RESULT:      -9.9      7.012     12.513
REMARK  Name = 17754104
REMARK  13 active torsions:
REMARK  status: ('A' for Active; 'I' for Inactive)
REMARK    1  A    between atoms: C_1  and  C_29
REMARK    2  A    between atoms: C_3  and  N_11
REMARK    3  A    between atoms: C_4  and  O_7
REMARK    4  A    between atoms: C_5  and  O_9
REMARK    5  A    between atoms: C_13  and  C_14
REMARK    6  A    between atoms: C_13  and  C_17
REMARK    7  A    between atoms: C_14  and  C_16
REMARK    8  A    between atoms: C_17  and  O_18
REMARK    9  A    between atoms: O_18  and  C_21
REMARK   10  A    between atoms: C_29  and  CA_30
REMARK   11  A    between atoms: CA_30  and  N_31
REMARK   12  A    between atoms: CA_30  and  C_36
REMARK   13  A    between atoms: C_36  and  O_37
REMARK                            x       y       z     vdW  Elec       q    Type
REMARK                         _______ _______ _______ _____ _____    ______ ____
ROOT
ATOM      1  C   UNL     1      33.695 -13.277 -23.926  0.00  0.00    +0.012 C 
ATOM      2  C   UNL     1      34.588 -14.038 -23.172  0.00  0.00    +0.019 C 
ATOM      3  C   UNL     1      34.865 -15.355 -23.539  0.00  0.00    +0.090 C 
ATOM      4  C   UNL     1      33.079 -13.833 -25.047  0.00  0.00    +0.133 C 
ATOM      5  C   UNL     1      34.249 -15.911 -24.660  0.00  0.00    +0.152 C 
ATOM      6  C   UNL     1      33.355 -15.150 -25.413  0.00  0.00    +0.074 C 
ENDROOT
BRANCH   3   7
ATOM      7  N   UNL     1      35.762 -16.106 -22.775  0.00  0.00    -0.354 N 
ATOM      8  H   UNL     1      36.681 -16.160 -23.122  0.00  0.00    +0.166 HD
ATOM      9  C   UNL     1      35.523 -16.777 -21.606  0.00  0.00    +0.063 C 
BRANCH   9  10
ATOM     10  C   UNL     1      34.622 -16.447 -20.663  0.00  0.00    +0.115 C 
BRANCH  10  12
ATOM     11  O   UNL     1      35.105 -14.171 -20.239  0.00  0.00    -0.288 OA
ATOM     12  C   UNL     1      34.741 -15.255 -19.796  0.00  0.00    +0.213 C 
ENDBRANCH  10  12
ENDBRANCH   9  10
BRANCH   9  13
ATOM     13  C   UNL     1      36.395 -17.991 -21.381  0.00  0.00    +0.245 C 
BRANCH  13  14
ATOM     14  O   UNL     1      35.711 -19.157 -21.836  0.00  0.00    -0.469 OA
BRANCH  14  17
ATOM     15  C   UNL     1      34.980 -21.320 -18.959  0.00  0.00    +0.003 C 
ATOM     16  C   UNL     1      33.566 -21.332 -18.998  0.00  0.00    +0.000 C 
ATOM     17  C   UNL     1      35.011 -19.866 -20.909  0.00  0.00    +0.139 C 
ATOM     18  C   UNL     1      35.688 -20.581 -19.922  0.00  0.00    +0.037 C 
ATOM     19  C   UNL     1      32.900 -20.606 -20.000  0.00  0.00    +0.003 C 
ATOM     20  C   UNL     1      33.619 -19.878 -20.948  0.00  0.00    +0.037 C 
ATOM     21  C   UNL     1      35.646 -22.046 -17.958  0.00  0.00    +0.000 C 
ATOM     22  C   UNL     1      32.858 -22.071 -18.036  0.00  0.00    +0.000 C 
ATOM     23  C   UNL     1      34.927 -22.774 -17.009  0.00  0.00    +0.000 C 
ATOM     24  C   UNL     1      33.536 -22.786 -17.048  0.00  0.00    +0.000 C 
ENDBRANCH  14  17
ENDBRANCH  13  14
ENDBRANCH   9  13
ENDBRANCH   3   7
BRANCH   4  25
ATOM     25  O   UNL     1      32.205 -13.103 -25.795  0.00  0.00    -0.506 OA
ATOM     26  H   UNL     1      31.875 -12.289 -25.470  0.00  0.00    +0.292 HD
ENDBRANCH   4  25
BRANCH   5  27
ATOM     27  O   UNL     1      34.506 -17.195 -25.035  0.00  0.00    -0.504 OA
ATOM     28  H   UNL     1      34.685 -17.395 -25.933  0.00  0.00    +0.292 HD
ENDBRANCH   5  27
BRANCH   1  29
ATOM     29  C   UNL     1      33.408 -11.870 -23.518  0.00  0.00    +0.018 C 
BRANCH  29  30
ATOM     30  CA  UNL     1      32.896 -11.741 -22.067  0.00  0.00    +0.040 C 
BRANCH  30  31
ATOM     31  N   UNL     1      31.804 -12.682 -21.827  0.00  0.00    +0.389 N 
ATOM     32  H1  UNL     1      31.012 -12.442 -22.424  0.00  0.00    -0.088 HD
ATOM     33  H2  UNL     1      31.521 -12.632 -20.849  0.00  0.00    -0.088 HD
ATOM     34  H3  UNL     1      32.118 -13.628 -22.044  0.00  0.00    -0.088 HD
ENDBRANCH  30  31
BRANCH  30  36
ATOM     35  OXT UNL     1      31.900  -9.985 -20.704  0.00  0.00    -0.253 OA
ATOM     36  C   UNL     1      32.345 -10.354 -21.783  0.00  0.00    +0.293 C 
BRANCH  36  37
ATOM     37  O   UNL     1      32.429  -9.533 -22.863  0.00  0.00    -0.482 OA
ATOM     38  H   UNL     1      33.268  -9.302 -23.211  0.00  0.00    +0.295 HD
ENDBRANCH  36  37
ENDBRANCH  30  36
ENDBRANCH  29  30
ENDBRANCH   1  29
TORSDOF 13
ENDMDL
MODEL 6
REMARK VINA RESULT:      -9.9      4.914      8.006
REMARK  Name = 17754104
REMARK  13 active torsions:
REMARK  status: ('A' for Active; 'I' for Inactive)
REMARK    1  A    between atoms: C_1  and  C_29
REMARK    2  A    between atoms: C_3  and  N_11
REMARK    3  A    between atoms: C_4  and  O_7
REMARK    4  A    between atoms: C_5  and  O_9
REMARK    5  A    between atoms: C_13  and  C_14
REMARK    6  A    between atoms: C_13  and  C_17
REMARK    7  A    between atoms: C_14  and  C_16
REMARK    8  A    between atoms: C_17  and  O_18
REMARK    9  A    between atoms: O_18  and  C_21
REMARK   10  A    between atoms: C_29  and  CA_30
REMARK   11  A    between atoms: CA_30  and  N_31
REMARK   12  A    between atoms: CA_30  and  C_36
REMARK   13  A    between atoms: C_36  and  O_37
REMARK                            x       y       z     vdW  Elec       q    Type
REMARK                         _______ _______ _______ _____ _____    ______ ____
ROOT
ATOM      1  C   UNL     1      35.384 -21.450 -18.754  0.00  0.00    +0.012 C 
ATOM      2  C   UNL     1      35.485 -20.487 -19.758  0.00  0.00    +0.019 C 
ATOM      3  C   UNL     1      34.335 -20.025 -20.399  0.00  0.00    +0.090 C 
ATOM      4  C   UNL     1      34.134 -21.951 -18.391  0.00  0.00    +0.133 C 
ATOM      5  C   UNL     1      33.085 -20.525 -20.035  0.00  0.00    +0.152 C 
ATOM      6  C   UNL     1      32.985 -21.489 -19.032  0.00  0.00    +0.074 C 
ENDROOT
BRANCH   3   7
ATOM      7  N   UNL     1      34.450 -19.059 -21.402  0.00  0.00    -0.354 N 
ATOM      8  H   UNL     1      33.963 -19.246 -22.236  0.00  0.00    +0.166 HD
ATOM      9  C   UNL     1      35.155 -17.886 -21.372  0.00  0.00    +0.063 C 
BRANCH   9  10
ATOM     10  C   UNL     1      35.414 -17.136 -20.285  0.00  0.00    +0.115 C 
BRANCH  10  12
ATOM     11  O   UNL     1      35.047 -14.806 -20.092  0.00  0.00    -0.288 OA
ATOM     12  C   UNL     1      34.626 -15.943 -19.905  0.00  0.00    +0.213 C 
ENDBRANCH  10  12
ENDBRANCH   9  10
BRANCH   9  13
ATOM     13  C   UNL     1      35.656 -17.410 -22.716  0.00  0.00    +0.245 C 
BRANCH  13  14
ATOM     14  O   UNL     1      34.558 -17.305 -23.621  0.00  0.00    -0.469 OA
BRANCH  14  17
ATOM     15  C   UNL     1      34.064 -13.667 -23.711  0.00  0.00    +0.003 C 
ATOM     16  C   UNL     1      33.628 -13.499 -25.047  0.00  0.00    +0.000 C 
ATOM     17  C   UNL     1      34.255 -16.062 -24.087  0.00  0.00    +0.139 C 
ATOM     18  C   UNL     1      34.374 -14.956 -23.247  0.00  0.00    +0.037 C 
ATOM     19  C   UNL     1      33.515 -14.625 -25.879  0.00  0.00    +0.003 C 
ATOM     20  C   UNL     1      33.827 -15.898 -25.401  0.00  0.00    +0.037 C 
ATOM     21  C   UNL     1      34.177 -12.541 -22.879  0.00  0.00    +0.000 C 
ATOM     22  C   UNL     1      33.318 -12.210 -25.512  0.00  0.00    +0.000 C 
ATOM     23  C   UNL     1      33.865 -11.268 -23.357  0.00  0.00    +0.000 C 
ATOM     24  C   UNL     1      33.437 -11.103 -24.671  0.00  0.00    +0.000 C 
ENDBRANCH  14  17
ENDBRANCH  13  14
ENDBRANCH   9  13
ENDBRANCH   3   7
BRANCH   4  25
ATOM     25  O   UNL     1      34.018 -22.891 -17.412  0.00  0.00    -0.506 OA
ATOM     26  H   UNL     1      34.771 -23.374 -17.134  0.00  0.00    +0.292 HD
ENDBRANCH   4  25
BRANCH   5  27
ATOM     27  O   UNL     1      31.951 -20.086 -20.649  0.00  0.00    -0.504 OA
ATOM     28  H   UNL     1      32.007 -19.472 -21.355  0.00  0.00    +0.292 HD
ENDBRANCH   5  27
BRANCH   1  29
ATOM     29  C   UNL     1      36.625 -21.936 -18.081  0.00  0.00    +0.018 C 
BRANCH  29  30
ATOM     30  CA  UNL     1      36.717 -21.533 -16.593  0.00  0.00    +0.040 C 
BRANCH  30  31
ATOM     31  N   UNL     1      37.689 -20.456 -16.416  0.00  0.00    +0.389 N 
ATOM     32  H1  UNL     1      38.555 -20.840 -16.039  0.00  0.00    -0.088 HD
ATOM     33  H2  UNL     1      37.314 -19.762 -15.770  0.00  0.00    -0.088 HD
ATOM     34  H3  UNL     1      37.876 -20.017 -17.318  0.00  0.00    -0.088 HD
ENDBRANCH  30  31
BRANCH  30  36
ATOM     35  OXT UNL     1      38.322 -22.823 -15.292  0.00  0.00    -0.253 OA
ATOM     36  C   UNL     1      37.184 -22.687 -15.722  0.00  0.00    +0.293 C 
BRANCH  36  37
ATOM     37  O   UNL     1      36.179 -23.556 -15.433  0.00  0.00    -0.482 OA
ATOM     38  H   UNL     1      35.619 -23.867 -16.116  0.00  0.00    +0.295 HD
ENDBRANCH  36  37
ENDBRANCH  30  36
ENDBRANCH  29  30
ENDBRANCH   1  29
TORSDOF 13
ENDMDL
MODEL 7
REMARK VINA RESULT:      -9.9      5.339     10.943
REMARK  Name = 17754104
REMARK  13 active torsions:
REMARK  status: ('A' for Active; 'I' for Inactive)
REMARK    1  A    between atoms: C_1  and  C_29
REMARK    2  A    between atoms: C_3  and  N_11
REMARK    3  A    between atoms: C_4  and  O_7
REMARK    4  A    between atoms: C_5  and  O_9
REMARK    5  A    between atoms: C_13  and  C_14
REMARK    6  A    between atoms: C_13  and  C_17
REMARK    7  A    between atoms: C_14  and  C_16
REMARK    8  A    between atoms: C_17  and  O_18
REMARK    9  A    between atoms: O_18  and  C_21
REMARK   10  A    between atoms: C_29  and  CA_30
REMARK   11  A    between atoms: CA_30  and  N_31
REMARK   12  A    between atoms: CA_30  and  C_36
REMARK   13  A    between atoms: C_36  and  O_37
REMARK                            x       y       z     vdW  Elec       q    Type
REMARK                         _______ _______ _______ _____ _____    ______ ____
ROOT
ATOM      1  C   UNL     1      34.698 -15.188 -21.881  0.00  0.00    +0.012 C 
ATOM      2  C   UNL     1      35.015 -16.164 -20.935  0.00  0.00    +0.019 C 
ATOM      3  C   UNL     1      35.327 -17.459 -21.348  0.00  0.00    +0.090 C 
ATOM      4  C   UNL     1      34.695 -15.508 -23.239  0.00  0.00    +0.133 C 
ATOM      5  C   UNL     1      35.323 -17.779 -22.706  0.00  0.00    +0.152 C 
ATOM      6  C   UNL     1      35.006 -16.803 -23.650  0.00  0.00    +0.074 C 
ENDROOT
BRANCH   3   7
ATOM      7  N   UNL     1      35.642 -18.427 -20.391  0.00  0.00    -0.354 N 
ATOM      8  H   UNL     1      36.284 -18.152 -19.697  0.00  0.00    +0.166 HD
ATOM      9  C   UNL     1      35.170 -19.708 -20.294  0.00  0.00    +0.063 C 
BRANCH   9  10
ATOM     10  C   UNL     1      33.963 -20.149 -20.693  0.00  0.00    +0.115 C 
BRANCH  10  12
ATOM     11  O   UNL     1      32.353 -20.880 -19.122  0.00  0.00    -0.288 OA
ATOM     12  C   UNL     1      32.730 -20.002 -19.891  0.00  0.00    +0.213 C 
ENDBRANCH  10  12
ENDBRANCH   9  10
BRANCH   9  13
ATOM     13  C   UNL     1      36.123 -20.689 -19.650  0.00  0.00    +0.245 C 
BRANCH  13  14
ATOM     14  O   UNL     1      35.384 -21.788 -19.119  0.00  0.00    -0.469 OA
BRANCH  14  17
ATOM     15  C   UNL     1      34.730 -23.006 -15.717  0.00  0.00    +0.003 C 
ATOM     16  C   UNL     1      35.958 -22.691 -15.090  0.00  0.00    +0.000 C 
ATOM     17  C   UNL     1      35.572 -22.084 -17.804  0.00  0.00    +0.139 C 
ATOM     18  C   UNL     1      34.553 -22.696 -17.076  0.00  0.00    +0.037 C 
ATOM     19  C   UNL     1      36.974 -22.074 -15.839  0.00  0.00    +0.003 C 
ATOM     20  C   UNL     1      36.781 -21.773 -17.187  0.00  0.00    +0.037 C 
ATOM     21  C   UNL     1      33.715 -23.622 -14.968  0.00  0.00    +0.000 C 
ATOM     22  C   UNL     1      36.136 -23.000 -13.731  0.00  0.00    +0.000 C 
ATOM     23  C   UNL     1      33.907 -23.924 -13.619  0.00  0.00    +0.000 C 
ATOM     24  C   UNL     1      35.116 -23.613 -13.003  0.00  0.00    +0.000 C 
ENDBRANCH  14  17
ENDBRANCH  13  14
ENDBRANCH   9  13
ENDBRANCH   3   7
BRANCH   4  25
ATOM     25  O   UNL     1      34.389 -14.567 -24.175  0.00  0.00    -0.506 OA
ATOM     26  H   UNL     1      34.523 -14.749 -25.085  0.00  0.00    +0.292 HD
ENDBRANCH   4  25
BRANCH   5  27
ATOM     27  O   UNL     1      35.625 -19.039 -23.128  0.00  0.00    -0.504 OA
ATOM     28  H   UNL     1      34.987 -19.543 -23.593  0.00  0.00    +0.292 HD
ENDBRANCH   5  27
BRANCH   1  29
ATOM     29  C   UNL     1      34.365 -13.807 -21.422  0.00  0.00    +0.018 C 
BRANCH  29  30
ATOM     30  CA  UNL     1      32.971 -13.326 -21.879  0.00  0.00    +0.040 C 
BRANCH  30  31
ATOM     31  N   UNL     1      33.076 -12.040 -22.566  0.00  0.00    +0.389 N 
ATOM     32  H1  UNL     1      33.050 -11.286 -21.880  0.00  0.00    -0.088 HD
ATOM     33  H2  UNL     1      32.297 -11.936 -23.216  0.00  0.00    -0.088 HD
ATOM     34  H3  UNL     1      33.956 -12.001 -23.079  0.00  0.00    -0.088 HD
ENDBRANCH  30  31
BRANCH  30  36
ATOM     35  OXT UNL     1      32.020 -13.797 -19.686  0.00  0.00    -0.253 OA
ATOM     36  C   UNL     1      32.032 -13.115 -20.703  0.00  0.00    +0.293 C 
BRANCH  36  37
ATOM     37  O   UNL     1      31.211 -12.047 -20.882  0.00  0.00    -0.482 OA
ATOM     38  H   UNL     1      30.850 -11.871 -21.728  0.00  0.00    +0.295 HD
ENDBRANCH  36  37
ENDBRANCH  30  36
ENDBRANCH  29  30
ENDBRANCH   1  29
TORSDOF 13
ENDMDL
MODEL 8
REMARK VINA RESULT:      -9.8      2.282      4.521
REMARK  Name = 17754104
REMARK  13 active torsions:
REMARK  status: ('A' for Active; 'I' for Inactive)
REMARK    1  A    between atoms: C_1  and  C_29
REMARK    2  A    between atoms: C_3  and  N_11
REMARK    3  A    between atoms: C_4  and  O_7
REMARK    4  A    between atoms: C_5  and  O_9
REMARK    5  A    between atoms: C_13  and  C_14
REMARK    6  A    between atoms: C_13  and  C_17
REMARK    7  A    between atoms: C_14  and  C_16
REMARK    8  A    between atoms: C_17  and  O_18
REMARK    9  A    between atoms: O_18  and  C_21
REMARK   10  A    between atoms: C_29  and  CA_30
REMARK   11  A    between atoms: CA_30  and  N_31
REMARK   12  A    between atoms: CA_30  and  C_36
REMARK   13  A    between atoms: C_36  and  O_37
REMARK                            x       y       z     vdW  Elec       q    Type
REMARK                         _______ _______ _______ _____ _____    ______ ____
ROOT
ATOM      1  C   UNL     1      34.352 -24.135 -13.822  0.00  0.00    +0.012 C 
ATOM      2  C   UNL     1      34.888 -23.453 -14.914  0.00  0.00    +0.019 C 
ATOM      3  C   UNL     1      34.046 -22.970 -15.915  0.00  0.00    +0.090 C 
ATOM      4  C   UNL     1      32.975 -24.334 -13.731  0.00  0.00    +0.133 C 
ATOM      5  C   UNL     1      32.668 -23.168 -15.824  0.00  0.00    +0.152 C 
ATOM      6  C   UNL     1      32.133 -23.851 -14.732  0.00  0.00    +0.074 C 
ENDROOT
BRANCH   3   7
ATOM      7  N   UNL     1      34.595 -22.288 -17.004  0.00  0.00    -0.354 N 
ATOM      8  H   UNL     1      33.962 -22.023 -17.709  0.00  0.00    +0.166 HD
ATOM      9  C   UNL     1      35.903 -21.941 -17.214  0.00  0.00    +0.063 C 
BRANCH   9  10
ATOM     10  C   UNL     1      36.819 -21.663 -16.268  0.00  0.00    +0.115 C 
BRANCH  10  12
ATOM     11  O   UNL     1      38.137 -22.940 -14.776  0.00  0.00    -0.288 OA
ATOM     12  C   UNL     1      37.944 -22.560 -15.926  0.00  0.00    +0.213 C 
ENDBRANCH  10  12
ENDBRANCH   9  10
BRANCH   9  13
ATOM     13  C   UNL     1      36.312 -21.853 -18.666  0.00  0.00    +0.245 C 
BRANCH  13  14
ATOM     14  O   UNL     1      35.193 -21.441 -19.450  0.00  0.00    -0.469 OA
BRANCH  14  17
ATOM     15  C   UNL     1      34.694 -19.052 -22.193  0.00  0.00    +0.003 C 
ATOM     16  C   UNL     1      35.718 -18.118 -21.911  0.00  0.00    +0.000 C 
ATOM     17  C   UNL     1      35.364 -20.356 -20.252  0.00  0.00    +0.139 C 
ATOM     18  C   UNL     1      34.529 -20.166 -21.353  0.00  0.00    +0.037 C 
ATOM     19  C   UNL     1      36.549 -18.325 -20.797  0.00  0.00    +0.003 C 
ATOM     20  C   UNL     1      36.372 -19.437 -19.974  0.00  0.00    +0.037 C 
ATOM     21  C   UNL     1      33.863 -18.845 -23.306  0.00  0.00    +0.000 C 
ATOM     22  C   UNL     1      35.883 -17.003 -22.750  0.00  0.00    +0.000 C 
ATOM     23  C   UNL     1      34.040 -17.732 -24.130  0.00  0.00    +0.000 C 
ATOM     24  C   UNL     1      35.048 -16.813 -23.852  0.00  0.00    +0.000 C 
ENDBRANCH  14  17
ENDBRANCH  13  14
ENDBRANCH   9  13
ENDBRANCH   3   7
BRANCH   4  25
ATOM     25  O   UNL     1      32.435 -24.997 -12.670  0.00  0.00    -0.506 OA
ATOM     26  H   UNL     1      31.778 -25.650 -12.810  0.00  0.00    +0.292 HD
ENDBRANCH   4  25
BRANCH   5  27
ATOM     27  O   UNL     1      31.829 -22.703 -16.792  0.00  0.00    -0.504 OA
ATOM     28  H   UNL     1      30.901 -22.760 -16.674  0.00  0.00    +0.292 HD
ENDBRANCH   5  27
BRANCH   1  29
ATOM     29  C   UNL     1      35.269 -24.648 -12.760  0.00  0.00    +0.018 C 
BRANCH  29  30
ATOM     30  CA  UNL     1      35.710 -23.566 -11.751  0.00  0.00    +0.040 C 
BRANCH  30  31
ATOM     31  N   UNL     1      37.012 -23.019 -12.129  0.00  0.00    +0.389 N 
ATOM     32  H1  UNL     1      37.353 -23.500 -12.961  0.00  0.00    -0.088 HD
ATOM     33  H2  UNL     1      37.672 -23.152 -11.363  0.00  0.00    -0.088 HD
ATOM     34  H3  UNL     1      36.916 -22.023 -12.328  0.00  0.00    -0.088 HD
ENDBRANCH  30  31
BRANCH  30  36
ATOM     35  OXT UNL     1      36.558 -23.634  -9.469  0.00  0.00    -0.253 OA
ATOM     36  C   UNL     1      35.866 -24.130 -10.349  0.00  0.00    +0.293 C 
BRANCH  36  37
ATOM     37  O   UNL     1      35.116 -25.246 -10.155  0.00  0.00    -0.482 OA
ATOM     38  H   UNL     1      34.383 -25.420 -10.711  0.00  0.00    +0.295 HD
ENDBRANCH  36  37
ENDBRANCH  30  36
ENDBRANCH  29  30
ENDBRANCH   1  29
TORSDOF 13
ENDMDL
MODEL 9
REMARK VINA RESULT:      -9.8      8.509     13.652
REMARK  Name = 17754104
REMARK  13 active torsions:
REMARK  status: ('A' for Active; 'I' for Inactive)
REMARK    1  A    between atoms: C_1  and  C_29
REMARK    2  A    between atoms: C_3  and  N_11
REMARK    3  A    between atoms: C_4  and  O_7
REMARK    4  A    between atoms: C_5  and  O_9
REMARK    5  A    between atoms: C_13  and  C_14
REMARK    6  A    between atoms: C_13  and  C_17
REMARK    7  A    between atoms: C_14  and  C_16
REMARK    8  A    between atoms: C_17  and  O_18
REMARK    9  A    between atoms: O_18  and  C_21
REMARK   10  A    between atoms: C_29  and  CA_30
REMARK   11  A    between atoms: CA_30  and  N_31
REMARK   12  A    between atoms: CA_30  and  C_36
REMARK   13  A    between atoms: C_36  and  O_37
REMARK                            x       y       z     vdW  Elec       q    Type
REMARK                         _______ _______ _______ _____ _____    ______ ____
ROOT
ATOM      1  C   UNL     1      32.366 -10.777 -22.038  0.00  0.00    +0.012 C 
ATOM      2  C   UNL     1      32.832 -12.072 -22.269  0.00  0.00    +0.019 C 
ATOM      3  C   UNL     1      33.627 -12.338 -23.384  0.00  0.00    +0.090 C 
ATOM      4  C   UNL     1      32.696  -9.749 -22.921  0.00  0.00    +0.133 C 
ATOM      5  C   UNL     1      33.956 -11.310 -24.267  0.00  0.00    +0.152 C 
ATOM      6  C   UNL     1      33.490 -10.016 -24.035  0.00  0.00    +0.074 C 
ENDROOT
BRANCH   3   7
ATOM      7  N   UNL     1      34.087 -13.638 -23.603  0.00  0.00    -0.354 N 
ATOM      8  H   UNL     1      34.163 -13.914 -24.545  0.00  0.00    +0.166 HD
ATOM      9  C   UNL     1      34.446 -14.578 -22.675  0.00  0.00    +0.063 C 
BRANCH   9  10
ATOM     10  C   UNL     1      34.966 -14.342 -21.456  0.00  0.00    +0.115 C 
BRANCH  10  12
ATOM     11  O   UNL     1      34.944 -15.732 -19.542  0.00  0.00    -0.288 OA
ATOM     12  C   UNL     1      34.383 -14.862 -20.200  0.00  0.00    +0.213 C 
ENDBRANCH  10  12
ENDBRANCH   9  10
BRANCH   9  13
ATOM     13  C   UNL     1      34.241 -16.011 -23.109  0.00  0.00    +0.245 C 
BRANCH  13  14
ATOM     14  O   UNL     1      35.491 -16.698 -23.081  0.00  0.00    -0.469 OA
BRANCH  14  17
ATOM     15  C   UNL     1      34.610 -19.432 -20.792  0.00  0.00    +0.003 C 
ATOM     16  C   UNL     1      35.893 -19.798 -20.322  0.00  0.00    +0.000 C 
ATOM     17  C   UNL     1      35.623 -17.711 -22.181  0.00  0.00    +0.139 C 
ATOM     18  C   UNL     1      34.492 -18.386 -21.723  0.00  0.00    +0.037 C 
ATOM     19  C   UNL     1      37.022 -19.107 -20.795  0.00  0.00    +0.003 C 
ATOM     20  C   UNL     1      36.886 -18.070 -21.718  0.00  0.00    +0.037 C 
ATOM     21  C   UNL     1      33.483 -20.123 -20.320  0.00  0.00    +0.000 C 
ATOM     22  C   UNL     1      36.012 -20.844 -19.392  0.00  0.00    +0.000 C 
ATOM     23  C   UNL     1      33.618 -21.159 -19.396  0.00  0.00    +0.000 C 
ATOM     24  C   UNL     1      34.881 -21.519 -18.933  0.00  0.00    +0.000 C 
ENDBRANCH  14  17
ENDBRANCH  13  14
ENDBRANCH   9  13
ENDBRANCH   3   7
BRANCH   4  25
ATOM     25  O   UNL     1      32.250  -8.479 -22.709  0.00  0.00    -0.506 OA
ATOM     26  H   UNL     1      31.611  -8.105 -23.282  0.00  0.00    +0.292 HD
ENDBRANCH   4  25
BRANCH   5  27
ATOM     27  O   UNL     1      34.732 -11.550 -25.361  0.00  0.00    -0.504 OA
ATOM     28  H   UNL     1      35.471 -12.122 -25.296  0.00  0.00    +0.292 HD
ENDBRANCH   5  27
BRANCH   1  29
ATOM     29  C   UNL     1      31.514 -10.510 -20.841  0.00  0.00    +0.018 C 
BRANCH  29  30
ATOM     30  CA  UNL     1      32.300  -9.940 -19.640  0.00  0.00    +0.040 C 
BRANCH  30  31
ATOM     31  N   UNL     1      31.722 -10.412 -18.383  0.00  0.00    +0.389 N 
ATOM     32  H1  UNL     1      31.948  -9.754 -17.638  0.00  0.00    -0.088 HD
ATOM     33  H2  UNL     1      32.106 -11.329 -18.155  0.00  0.00    -0.088 HD
ATOM     34  H3  UNL     1      30.709 -10.481 -18.481  0.00  0.00    -0.088 HD
ENDBRANCH  30  31
BRANCH  30  36
ATOM     35  OXT UNL     1      31.275  -7.747 -19.913  0.00  0.00    -0.253 OA
ATOM     36  C   UNL     1      32.247  -8.422 -19.599  0.00  0.00    +0.293 C 
BRANCH  36  37
ATOM     37  O   UNL     1      33.402  -7.877 -19.135  0.00  0.00    -0.482 OA
ATOM     38  H   UNL     1      34.227  -8.208 -19.431  0.00  0.00    +0.295 HD
ENDBRANCH  36  37
ENDBRANCH  30  36
ENDBRANCH  29  30
ENDBRANCH   1  29
TORSDOF 13
ENDMDL
