MODEL 1
REMARK VINA RESULT:     -12.8      0.000      0.000
REMARK  Name = 10074640
REMARK  6 active torsions:
REMARK  status: ('A' for Active; 'I' for Inactive)
REMARK    1  A    between atoms: N_2  and  C_5
REMARK    2  A    between atoms: C_3  and  C_30
REMARK    3  A    between atoms: C_6  and  N_13
REMARK    4  A    between atoms: C_16  and  C_20
REMARK    5  A    between atoms: C_25  and  C_31
REMARK    6  A    between atoms: C_31  and  N_32
REMARK                            x       y       z     vdW  Elec       q    Type
REMARK                         _______ _______ _______ _____ _____    ______ ____
ROOT
ATOM      1  O   UNL     1      33.833 -23.773 -18.522  0.00  0.00    -0.270 OA
ATOM      2  N   UNL     1      33.224 -22.110 -16.983  0.00  0.00    -0.280 N 
ATOM      3  C   UNL     1      33.770 -22.579 -18.186  0.00  0.00    +0.249 C 
ATOM      4  H   UNL     1      33.245 -21.133 -16.857  0.00  0.00    +0.155 HD
ENDROOT
BRANCH   2   5
ATOM      5  C   UNL     1      32.646 -22.855 -15.927  0.00  0.00    +0.052 C 
ATOM      6  C   UNL     1      32.749 -23.690 -13.682  0.00  0.00    +0.048 C 
ATOM      7  C   UNL     1      33.320 -22.956 -14.723  0.00  0.00    +0.029 C 
ATOM      8  C   UNL     1      31.513 -24.311 -13.862  0.00  0.00    -0.008 C 
ATOM      9  C   UNL     1      31.418 -23.465 -16.123  0.00  0.00    +0.014 C 
ATOM     10  C   UNL     1      30.847 -24.198 -15.084  0.00  0.00    -0.002 C 
ATOM     11  C   UNL     1      30.880 -25.103 -12.766  0.00  0.00    +0.032 C 
BRANCH   6  13
ATOM     12  S   UNL     1      35.249 -24.326 -10.581  0.00  0.00    -0.059 S 
ATOM     13  N   UNL     1      33.436 -23.793 -12.453  0.00  0.00    -0.283 N 
ATOM     14  N   UNL     1      35.655 -24.246 -13.133  0.00  0.00    -0.384 NA
ATOM     15  C   UNL     1      34.744 -24.104 -12.202  0.00  0.00    +0.211 C 
ATOM     16  C   UNL     1      36.858 -24.557 -12.528  0.00  0.00    +0.124 C 
ATOM     17  C   UNL     1      36.835 -24.644 -11.152  0.00  0.00    +0.125 C 
ATOM     18  H   UNL     1      32.889 -23.613 -11.654  0.00  0.00    +0.155 HD
BRANCH  16  20
ATOM     19  N   UNL     1      39.426 -24.165 -15.185  0.00  0.00    -0.242 NA
ATOM     20  C   UNL     1      38.050 -24.773 -13.294  0.00  0.00    +0.046 C 
ATOM     21  C   UNL     1      38.967 -25.753 -12.932  0.00  0.00    +0.005 C 
ATOM     22  C   UNL     1      38.322 -24.013 -14.419  0.00  0.00    +0.101 C 
ATOM     23  C   UNL     1      40.114 -25.940 -13.695  0.00  0.00    +0.021 C 
ATOM     24  C   UNL     1      40.295 -25.127 -14.802  0.00  0.00    +0.099 C 
ENDBRANCH  16  20
ENDBRANCH   6  13
ENDBRANCH   2   5
BRANCH   3  30
ATOM     25  C   UNL     1      35.367 -19.630 -20.764  0.00  0.00    -0.043 C 
ATOM     26  C   UNL     1      36.227 -20.410 -20.002  0.00  0.00    -0.006 C 
ATOM     27  C   UNL     1      33.992 -19.803 -20.693  0.00  0.00    -0.006 C 
ATOM     28  C   UNL     1      35.699 -21.383 -19.153  0.00  0.00    +0.004 C 
ATOM     29  C   UNL     1      33.465 -20.776 -19.843  0.00  0.00    +0.004 C 
ATOM     30  C   UNL     1      34.319 -21.566 -19.074  0.00  0.00    +0.054 C 
BRANCH  25  31
ATOM     31  C   UNL     1      35.936 -18.581 -21.682  0.00  0.00    -0.050 C 
BRANCH  31  32
ATOM     32  N   UNL     1      35.104 -17.380 -21.716  0.00  0.00    +0.387 N 
ATOM     33  N   UNL     1      34.717 -14.517 -21.842  0.00  0.00    +0.383 N 
ATOM     34  C   UNL     1      35.379 -16.522 -20.557  0.00  0.00    -0.100 C 
ATOM     35  C   UNL     1      35.314 -16.636 -22.964  0.00  0.00    -0.100 C 
ATOM     36  C   UNL     1      34.509 -15.261 -20.594  0.00  0.00    -0.101 C 
ATOM     37  C   UNL     1      34.442 -15.376 -23.001  0.00  0.00    -0.101 C 
ATOM     38  C   UNL     1      33.883 -13.317 -21.877  0.00  0.00    -0.101 C 
ATOM     39  H   UNL     1      34.128 -17.672 -21.676  0.00  0.00    -0.079 HD
ATOM     40  H   UNL     1      35.693 -14.224 -21.883  0.00  0.00    -0.080 HD
ENDBRANCH  31  32
ENDBRANCH  25  31
ENDBRANCH   3  30
TORSDOF 6
ENDMDL
MODEL 2
REMARK VINA RESULT:     -12.7      0.841      1.096
REMARK  Name = 10074640
REMARK  6 active torsions:
REMARK  status: ('A' for Active; 'I' for Inactive)
REMARK    1  A    between atoms: N_2  and  C_5
REMARK    2  A    between atoms: C_3  and  C_30
REMARK    3  A    between atoms: C_6  and  N_13
REMARK    4  A    between atoms: C_16  and  C_20
REMARK    5  A    between atoms: C_25  and  C_31
REMARK    6  A    between atoms: C_31  and  N_32
REMARK                            x       y       z     vdW  Elec       q    Type
REMARK                         _______ _______ _______ _____ _____    ______ ____
ROOT
ATOM      1  O   UNL     1      33.817 -23.747 -18.515  0.00  0.00    -0.270 OA
ATOM      2  N   UNL     1      33.324 -22.092 -16.927  0.00  0.00    -0.280 N 
ATOM      3  C   UNL     1      33.830 -22.561 -18.146  0.00  0.00    +0.249 C 
ATOM      4  H   UNL     1      33.405 -21.122 -16.775  0.00  0.00    +0.155 HD
ENDROOT
BRANCH   2   5
ATOM      5  C   UNL     1      32.710 -22.829 -15.885  0.00  0.00    +0.052 C 
ATOM      6  C   UNL     1      32.770 -23.707 -13.654  0.00  0.00    +0.048 C 
ATOM      7  C   UNL     1      33.376 -22.981 -14.681  0.00  0.00    +0.029 C 
ATOM      8  C   UNL     1      31.509 -24.269 -13.848  0.00  0.00    -0.008 C 
ATOM      9  C   UNL     1      31.457 -23.381 -16.094  0.00  0.00    +0.014 C 
ATOM     10  C   UNL     1      30.852 -24.106 -15.069  0.00  0.00    -0.002 C 
ATOM     11  C   UNL     1      30.838 -25.051 -12.767  0.00  0.00    +0.032 C 
BRANCH   6  13
ATOM     12  S   UNL     1      35.249 -24.471 -10.565  0.00  0.00    -0.059 S 
ATOM     13  N   UNL     1      33.448 -23.862 -12.426  0.00  0.00    -0.283 N 
ATOM     14  N   UNL     1      35.673 -24.281 -13.108  0.00  0.00    -0.384 NA
ATOM     15  C   UNL     1      34.755 -24.180 -12.179  0.00  0.00    +0.211 C 
ATOM     16  C   UNL     1      36.872 -24.615 -12.508  0.00  0.00    +0.124 C 
ATOM     17  C   UNL     1      36.839 -24.761 -11.137  0.00  0.00    +0.125 C 
ATOM     18  H   UNL     1      32.896 -23.717 -11.623  0.00  0.00    +0.155 HD
BRANCH  16  20
ATOM     19  N   UNL     1      39.420 -24.159 -15.175  0.00  0.00    -0.242 NA
ATOM     20  C   UNL     1      38.070 -24.796 -13.274  0.00  0.00    +0.046 C 
ATOM     21  C   UNL     1      39.023 -25.737 -12.902  0.00  0.00    +0.005 C 
ATOM     22  C   UNL     1      38.313 -24.039 -14.408  0.00  0.00    +0.101 C 
ATOM     23  C   UNL     1      40.176 -25.890 -13.665  0.00  0.00    +0.021 C 
ATOM     24  C   UNL     1      40.325 -25.084 -14.782  0.00  0.00    +0.099 C 
ENDBRANCH  16  20
ENDBRANCH   6  13
ENDBRANCH   2   5
BRANCH   3  30
ATOM     25  C   UNL     1      35.582 -19.645 -20.661  0.00  0.00    -0.043 C 
ATOM     26  C   UNL     1      36.398 -20.469 -19.898  0.00  0.00    -0.006 C 
ATOM     27  C   UNL     1      34.200 -19.764 -20.612  0.00  0.00    -0.006 C 
ATOM     28  C   UNL     1      35.819 -21.431 -19.069  0.00  0.00    +0.004 C 
ATOM     29  C   UNL     1      33.622 -20.726 -19.784  0.00  0.00    +0.004 C 
ATOM     30  C   UNL     1      34.432 -21.559 -19.013  0.00  0.00    +0.054 C 
BRANCH  25  31
ATOM     31  C   UNL     1      36.206 -18.608 -21.557  0.00  0.00    -0.050 C 
BRANCH  31  32
ATOM     32  N   UNL     1      35.196 -17.822 -22.263  0.00  0.00    +0.387 N 
ATOM     33  N   UNL     1      34.320 -16.061 -24.382  0.00  0.00    +0.383 N 
ATOM     34  C   UNL     1      35.552 -16.398 -22.266  0.00  0.00    -0.100 C 
ATOM     35  C   UNL     1      35.023 -18.309 -23.637  0.00  0.00    -0.100 C 
ATOM     36  C   UNL     1      34.495 -15.573 -23.009  0.00  0.00    -0.101 C 
ATOM     37  C   UNL     1      33.965 -17.485 -24.378  0.00  0.00    -0.101 C 
ATOM     38  C   UNL     1      33.308 -15.276 -25.087  0.00  0.00    -0.101 C 
ATOM     39  H   UNL     1      34.310 -17.931 -21.769  0.00  0.00    -0.079 HD
ATOM     40  H   UNL     1      35.205 -15.951 -24.877  0.00  0.00    -0.080 HD
ENDBRANCH  31  32
ENDBRANCH  25  31
ENDBRANCH   3  30
TORSDOF 6
ENDMDL
MODEL 3
REMARK VINA RESULT:     -11.4      5.913     11.559
REMARK  Name = 10074640
REMARK  6 active torsions:
REMARK  status: ('A' for Active; 'I' for Inactive)
REMARK    1  A    between atoms: N_2  and  C_5
REMARK    2  A    between atoms: C_3  and  C_30
REMARK    3  A    between atoms: C_6  and  N_13
REMARK    4  A    between atoms: C_16  and  C_20
REMARK    5  A    between atoms: C_25  and  C_31
REMARK    6  A    between atoms: C_31  and  N_32
REMARK                            x       y       z     vdW  Elec       q    Type
REMARK                         _______ _______ _______ _____ _____    ______ ____
ROOT
ATOM      1  O   UNL     1      34.124 -11.558 -24.951  0.00  0.00    -0.270 OA
ATOM      2  N   UNL     1      33.533 -12.830 -23.070  0.00  0.00    -0.280 N 
ATOM      3  C   UNL     1      33.711 -11.637 -23.783  0.00  0.00    +0.249 C 
ATOM      4  H   UNL     1      33.197 -12.732 -22.150  0.00  0.00    +0.155 HD
ENDROOT
BRANCH   2   5
ATOM      5  C   UNL     1      33.775 -14.158 -23.500  0.00  0.00    +0.052 C 
ATOM      6  C   UNL     1      35.086 -16.162 -23.400  0.00  0.00    +0.048 C 
ATOM      7  C   UNL     1      34.850 -14.854 -22.976  0.00  0.00    +0.029 C 
ATOM      8  C   UNL     1      34.243 -16.754 -24.340  0.00  0.00    -0.008 C 
ATOM      9  C   UNL     1      32.927 -14.730 -24.434  0.00  0.00    +0.014 C 
ATOM     10  C   UNL     1      33.163 -16.037 -24.858  0.00  0.00    -0.002 C 
ATOM     11  C   UNL     1      34.473 -18.152 -24.811  0.00  0.00    +0.032 C 
BRANCH   6  13
ATOM     12  S   UNL     1      37.720 -18.434 -21.356  0.00  0.00    -0.059 S 
ATOM     13  N   UNL     1      36.183 -16.873 -22.865  0.00  0.00    -0.283 N 
ATOM     14  N   UNL     1      35.137 -18.472 -21.472  0.00  0.00    -0.384 NA
ATOM     15  C   UNL     1      36.208 -17.884 -21.945  0.00  0.00    +0.211 C 
ATOM     16  C   UNL     1      35.530 -19.441 -20.568  0.00  0.00    +0.124 C 
ATOM     17  C   UNL     1      36.889 -19.567 -20.373  0.00  0.00    +0.125 C 
ATOM     18  H   UNL     1      37.064 -16.600 -23.209  0.00  0.00    +0.155 HD
BRANCH  16  20
ATOM     19  N   UNL     1      32.260 -20.777 -19.412  0.00  0.00    -0.242 NA
ATOM     20  C   UNL     1      34.573 -20.258 -19.880  0.00  0.00    +0.046 C 
ATOM     21  C   UNL     1      34.983 -21.289 -19.042  0.00  0.00    +0.005 C 
ATOM     22  C   UNL     1      33.213 -20.044 -20.031  0.00  0.00    +0.101 C 
ATOM     23  C   UNL     1      34.032 -22.065 -18.389  0.00  0.00    +0.021 C 
ATOM     24  C   UNL     1      32.695 -21.770 -18.606  0.00  0.00    +0.099 C 
ENDBRANCH  16  20
ENDBRANCH   6  13
ENDBRANCH   2   5
BRANCH   3  30
ATOM     25  C   UNL     1      32.812  -8.078 -21.680  0.00  0.00    -0.043 C 
ATOM     26  C   UNL     1      33.836  -8.077 -22.618  0.00  0.00    -0.006 C 
ATOM     27  C   UNL     1      32.079  -9.227 -21.423  0.00  0.00    -0.006 C 
ATOM     28  C   UNL     1      34.132  -9.252 -23.311  0.00  0.00    +0.004 C 
ATOM     29  C   UNL     1      32.374 -10.400 -22.116  0.00  0.00    +0.004 C 
ATOM     30  C   UNL     1      33.401 -10.412 -23.060  0.00  0.00    +0.054 C 
BRANCH  25  31
ATOM     31  C   UNL     1      32.492  -6.810 -20.933  0.00  0.00    -0.050 C 
BRANCH  31  32
ATOM     32  N   UNL     1      32.243  -5.692 -21.841  0.00  0.00    +0.387 N 
ATOM     33  N   UNL     1      30.651  -3.503 -22.856  0.00  0.00    +0.383 N 
ATOM     34  C   UNL     1      31.042  -5.934 -22.650  0.00  0.00    -0.100 C 
ATOM     35  C   UNL     1      32.113  -4.434 -21.096  0.00  0.00    -0.100 C 
ATOM     36  C   UNL     1      30.779  -4.762 -23.601  0.00  0.00    -0.101 C 
ATOM     37  C   UNL     1      31.852  -3.262 -22.047  0.00  0.00    -0.101 C 
ATOM     38  C   UNL     1      30.404  -2.385 -23.765  0.00  0.00    -0.101 C 
ATOM     39  H   UNL     1      33.043  -5.613 -22.469  0.00  0.00    -0.079 HD
ATOM     40  H   UNL     1      29.850  -3.581 -22.229  0.00  0.00    -0.080 HD
ENDBRANCH  31  32
ENDBRANCH  25  31
ENDBRANCH   3  30
TORSDOF 6
ENDMDL
MODEL 4
REMARK VINA RESULT:     -10.5      1.734      5.109
REMARK  Name = 10074640
REMARK  6 active torsions:
REMARK  status: ('A' for Active; 'I' for Inactive)
REMARK    1  A    between atoms: N_2  and  C_5
REMARK    2  A    between atoms: C_3  and  C_30
REMARK    3  A    between atoms: C_6  and  N_13
REMARK    4  A    between atoms: C_16  and  C_20
REMARK    5  A    between atoms: C_25  and  C_31
REMARK    6  A    between atoms: C_31  and  N_32
REMARK                            x       y       z     vdW  Elec       q    Type
REMARK                         _______ _______ _______ _____ _____    ______ ____
ROOT
ATOM      1  O   UNL     1      34.324 -22.841 -18.004  0.00  0.00    -0.270 OA
ATOM      2  N   UNL     1      36.157 -21.874 -16.904  0.00  0.00    -0.280 N 
ATOM      3  C   UNL     1      35.230 -21.994 -17.948  0.00  0.00    +0.249 C 
ATOM      4  H   UNL     1      36.818 -21.150 -17.000  0.00  0.00    +0.155 HD
ENDROOT
BRANCH   2   5
ATOM      5  C   UNL     1      36.267 -22.657 -15.729  0.00  0.00    +0.052 C 
ATOM      6  C   UNL     1      35.367 -23.377 -13.627  0.00  0.00    +0.048 C 
ATOM      7  C   UNL     1      35.258 -22.605 -14.783  0.00  0.00    +0.029 C 
ATOM      8  C   UNL     1      36.483 -24.191 -13.435  0.00  0.00    -0.008 C 
ATOM      9  C   UNL     1      37.382 -23.460 -15.555  0.00  0.00    +0.014 C 
ATOM     10  C   UNL     1      37.491 -24.232 -14.399  0.00  0.00    -0.002 C 
ATOM     11  C   UNL     1      36.626 -25.028 -12.206  0.00  0.00    +0.032 C 
BRANCH   6  13
ATOM     12  S   UNL     1      31.982 -23.051 -11.458  0.00  0.00    -0.059 S 
ATOM     13  N   UNL     1      34.338 -23.324 -12.662  0.00  0.00    -0.283 N 
ATOM     14  N   UNL     1      32.380 -23.446 -13.982  0.00  0.00    -0.384 NA
ATOM     15  C   UNL     1      32.981 -23.296 -12.827  0.00  0.00    +0.211 C 
ATOM     16  C   UNL     1      31.015 -23.362 -13.782  0.00  0.00    +0.124 C 
ATOM     17  C   UNL     1      30.609 -23.151 -12.481  0.00  0.00    +0.125 C 
ATOM     18  H   UNL     1      34.644 -23.305 -11.726  0.00  0.00    +0.155 HD
BRANCH  16  20
ATOM     19  N   UNL     1      29.030 -22.502 -16.804  0.00  0.00    -0.242 NA
ATOM     20  C   UNL     1      30.088 -23.489 -14.868  0.00  0.00    +0.046 C 
ATOM     21  C   UNL     1      29.361 -24.659 -15.057  0.00  0.00    +0.005 C 
ATOM     22  C   UNL     1      29.888 -22.448 -15.761  0.00  0.00    +0.101 C 
ATOM     23  C   UNL     1      28.469 -24.752 -16.120  0.00  0.00    +0.021 C 
ATOM     24  C   UNL     1      28.342 -23.655 -16.957  0.00  0.00    +0.099 C 
ENDBRANCH  16  20
ENDBRANCH   6  13
ENDBRANCH   2   5
BRANCH   3  30
ATOM     25  C   UNL     1      35.679 -19.251 -21.138  0.00  0.00    -0.043 C 
ATOM     26  C   UNL     1      36.787 -19.606 -20.381  0.00  0.00    -0.006 C 
ATOM     27  C   UNL     1      34.426 -19.783 -20.865  0.00  0.00    -0.006 C 
ATOM     28  C   UNL     1      36.638 -20.511 -19.329  0.00  0.00    +0.004 C 
ATOM     29  C   UNL     1      34.278 -20.687 -19.814  0.00  0.00    +0.004 C 
ATOM     30  C   UNL     1      35.384 -21.051 -19.046  0.00  0.00    +0.054 C 
BRANCH  25  31
ATOM     31  C   UNL     1      35.840 -18.276 -22.274  0.00  0.00    -0.050 C 
BRANCH  31  32
ATOM     32  N   UNL     1      34.989 -17.099 -22.105  0.00  0.00    +0.387 N 
ATOM     33  N   UNL     1      34.541 -14.249 -21.915  0.00  0.00    +0.383 N 
ATOM     34  C   UNL     1      35.373 -16.346 -20.905  0.00  0.00    -0.100 C 
ATOM     35  C   UNL     1      35.049 -16.237 -23.291  0.00  0.00    -0.100 C 
ATOM     36  C   UNL     1      34.483 -15.111 -20.728  0.00  0.00    -0.101 C 
ATOM     37  C   UNL     1      34.158 -15.004 -23.115  0.00  0.00    -0.101 C 
ATOM     38  C   UNL     1      33.688 -13.074 -21.746  0.00  0.00    -0.101 C 
ATOM     39  H   UNL     1      34.027 -17.421 -21.989  0.00  0.00    -0.079 HD
ATOM     40  H   UNL     1      35.502 -13.927 -22.030  0.00  0.00    -0.080 HD
ENDBRANCH  31  32
ENDBRANCH  25  31
ENDBRANCH   3  30
TORSDOF 6
ENDMDL
MODEL 5
REMARK VINA RESULT:     -10.1      9.472     18.012
REMARK  Name = 10074640
REMARK  6 active torsions:
REMARK  status: ('A' for Active; 'I' for Inactive)
REMARK    1  A    between atoms: N_2  and  C_5
REMARK    2  A    between atoms: C_3  and  C_30
REMARK    3  A    between atoms: C_6  and  N_13
REMARK    4  A    between atoms: C_16  and  C_20
REMARK    5  A    between atoms: C_25  and  C_31
REMARK    6  A    between atoms: C_31  and  N_32
REMARK                            x       y       z     vdW  Elec       q    Type
REMARK                         _______ _______ _______ _____ _____    ______ ____
ROOT
ATOM      1  O   UNL     1      34.529  -8.911 -23.072  0.00  0.00    -0.270 OA
ATOM      2  N   UNL     1      32.184  -8.881 -23.037  0.00  0.00    -0.280 N 
ATOM      3  C   UNL     1      33.437  -9.479 -23.231  0.00  0.00    +0.249 C 
ATOM      4  H   UNL     1      31.404  -9.460 -23.203  0.00  0.00    +0.155 HD
ENDROOT
BRANCH   2   5
ATOM      5  C   UNL     1      31.892  -7.555 -22.634  0.00  0.00    +0.052 C 
ATOM      6  C   UNL     1      31.365  -5.286 -23.200  0.00  0.00    +0.048 C 
ATOM      7  C   UNL     1      31.653  -6.592 -23.599  0.00  0.00    +0.029 C 
ATOM      8  C   UNL     1      31.320  -4.964 -21.845  0.00  0.00    -0.008 C 
ATOM      9  C   UNL     1      31.851  -7.253 -21.283  0.00  0.00    +0.014 C 
ATOM     10  C   UNL     1      31.564  -5.948 -20.885  0.00  0.00    -0.002 C 
ATOM     11  C   UNL     1      31.015  -3.575 -21.390  0.00  0.00    +0.032 C 
BRANCH   6  13
ATOM     12  S   UNL     1      31.417  -2.379 -25.996  0.00  0.00    -0.059 S 
ATOM     13  N   UNL     1      31.120  -4.303 -24.184  0.00  0.00    -0.283 N 
ATOM     14  N   UNL     1      33.260  -3.973 -25.134  0.00  0.00    -0.384 NA
ATOM     15  C   UNL     1      31.992  -3.665 -25.022  0.00  0.00    +0.211 C 
ATOM     16  C   UNL     1      33.838  -3.130 -26.064  0.00  0.00    +0.124 C 
ATOM     17  C   UNL     1      32.997  -2.200 -26.639  0.00  0.00    +0.125 C 
ATOM     18  H   UNL     1      30.177  -4.037 -24.282  0.00  0.00    +0.155 HD
BRANCH  16  20
ATOM     19  N   UNL     1      37.215  -2.169 -27.284  0.00  0.00    -0.242 NA
ATOM     20  C   UNL     1      35.228  -3.226 -26.403  0.00  0.00    +0.046 C 
ATOM     21  C   UNL     1      35.934  -4.406 -26.202  0.00  0.00    +0.005 C 
ATOM     22  C   UNL     1      35.907  -2.145 -26.942  0.00  0.00    +0.101 C 
ATOM     23  C   UNL     1      37.281  -4.469 -26.541  0.00  0.00    +0.021 C 
ATOM     24  C   UNL     1      37.869  -3.333 -27.074  0.00  0.00    +0.099 C 
ENDBRANCH  16  20
ENDBRANCH   6  13
ENDBRANCH   2   5
BRANCH   3  30
ATOM     25  C   UNL     1      33.387 -13.506 -24.524  0.00  0.00    -0.043 C 
ATOM     26  C   UNL     1      33.064 -13.207 -23.208  0.00  0.00    -0.006 C 
ATOM     27  C   UNL     1      33.726 -12.504 -25.423  0.00  0.00    -0.006 C 
ATOM     28  C   UNL     1      33.080 -11.878 -22.782  0.00  0.00    +0.004 C 
ATOM     29  C   UNL     1      33.741 -11.176 -24.997  0.00  0.00    +0.004 C 
ATOM     30  C   UNL     1      33.419 -10.864 -23.677  0.00  0.00    +0.054 C 
BRANCH  25  31
ATOM     31  C   UNL     1      33.368 -14.940 -24.985  0.00  0.00    -0.050 C 
BRANCH  31  32
ATOM     32  N   UNL     1      33.833 -15.852 -23.941  0.00  0.00    +0.387 N 
ATOM     33  N   UNL     1      35.801 -17.585 -22.724  0.00  0.00    +0.383 N 
ATOM     34  C   UNL     1      34.133 -17.175 -24.501  0.00  0.00    -0.100 C 
ATOM     35  C   UNL     1      35.012 -15.305 -23.259  0.00  0.00    -0.100 C 
ATOM     36  C   UNL     1      34.623 -18.131 -23.408  0.00  0.00    -0.101 C 
ATOM     37  C   UNL     1      35.501 -16.261 -22.165  0.00  0.00    -0.101 C 
ATOM     38  C   UNL     1      36.265 -18.496 -21.679  0.00  0.00    -0.101 C 
ATOM     39  H   UNL     1      33.084 -15.954 -23.256  0.00  0.00    -0.079 HD
ATOM     40  H   UNL     1      36.551 -17.483 -23.408  0.00  0.00    -0.080 HD
ENDBRANCH  31  32
ENDBRANCH  25  31
ENDBRANCH   3  30
TORSDOF 6
ENDMDL
MODEL 6
REMARK VINA RESULT:     -10.1      2.571      5.694
REMARK  Name = 10074640
REMARK  6 active torsions:
REMARK  status: ('A' for Active; 'I' for Inactive)
REMARK    1  A    between atoms: N_2  and  C_5
REMARK    2  A    between atoms: C_3  and  C_30
REMARK    3  A    between atoms: C_6  and  N_13
REMARK    4  A    between atoms: C_16  and  C_20
REMARK    5  A    between atoms: C_25  and  C_31
REMARK    6  A    between atoms: C_31  and  N_32
REMARK                            x       y       z     vdW  Elec       q    Type
REMARK                         _______ _______ _______ _____ _____    ______ ____
ROOT
ATOM      1  O   UNL     1      36.385 -17.966 -20.236  0.00  0.00    -0.270 OA
ATOM      2  N   UNL     1      34.286 -18.828 -20.834  0.00  0.00    -0.280 N 
ATOM      3  C   UNL     1      35.297 -17.856 -20.823  0.00  0.00    +0.249 C 
ATOM      4  H   UNL     1      33.477 -18.597 -21.346  0.00  0.00    +0.155 HD
ENDROOT
BRANCH   2   5
ATOM      5  C   UNL     1      34.277 -20.096 -20.205  0.00  0.00    +0.052 C 
ATOM      6  C   UNL     1      33.220 -21.678 -18.746  0.00  0.00    +0.048 C 
ATOM      7  C   UNL     1      33.229 -20.427 -19.364  0.00  0.00    +0.029 C 
ATOM      8  C   UNL     1      34.259 -22.578 -18.978  0.00  0.00    -0.008 C 
ATOM      9  C   UNL     1      35.317 -20.978 -20.447  0.00  0.00    +0.014 C 
ATOM     10  C   UNL     1      35.309 -22.228 -19.829  0.00  0.00    -0.002 C 
ATOM     11  C   UNL     1      34.275 -23.923 -18.329  0.00  0.00    +0.032 C 
BRANCH   6  13
ATOM     12  S   UNL     1      30.679 -23.069 -15.939  0.00  0.00    -0.059 S 
ATOM     13  N   UNL     1      32.150 -22.016 -17.888  0.00  0.00    -0.283 N 
ATOM     14  N   UNL     1      33.258 -22.912 -16.001  0.00  0.00    -0.384 NA
ATOM     15  C   UNL     1      32.165 -22.630 -16.667  0.00  0.00    +0.211 C 
ATOM     16  C   UNL     1      32.906 -23.527 -14.815  0.00  0.00    +0.124 C 
ATOM     17  C   UNL     1      31.554 -23.698 -14.605  0.00  0.00    +0.125 C 
ATOM     18  H   UNL     1      31.256 -21.771 -18.221  0.00  0.00    +0.155 HD
BRANCH  16  20
ATOM     19  N   UNL     1      34.532 -24.293 -11.562  0.00  0.00    -0.242 NA
ATOM     20  C   UNL     1      33.894 -23.955 -13.868  0.00  0.00    +0.046 C 
ATOM     21  C   UNL     1      35.130 -24.430 -14.289  0.00  0.00    +0.005 C 
ATOM     22  C   UNL     1      33.646 -23.906 -12.506  0.00  0.00    +0.101 C 
ATOM     23  C   UNL     1      36.069 -24.838 -13.348  0.00  0.00    +0.021 C 
ATOM     24  C   UNL     1      35.724 -24.750 -12.009  0.00  0.00    +0.099 C 
ENDBRANCH  16  20
ENDBRANCH   6  13
ENDBRANCH   2   5
BRANCH   3  30
ATOM     25  C   UNL     1      34.453 -14.285 -22.928  0.00  0.00    -0.043 C 
ATOM     26  C   UNL     1      34.595 -15.475 -23.630  0.00  0.00    -0.006 C 
ATOM     27  C   UNL     1      34.582 -14.250 -21.547  0.00  0.00    -0.006 C 
ATOM     28  C   UNL     1      34.873 -16.652 -22.935  0.00  0.00    +0.004 C 
ATOM     29  C   UNL     1      34.860 -15.427 -20.853  0.00  0.00    +0.004 C 
ATOM     30  C   UNL     1      35.005 -16.628 -21.547  0.00  0.00    +0.054 C 
BRANCH  25  31
ATOM     31  C   UNL     1      34.151 -13.014 -23.678  0.00  0.00    -0.050 C 
BRANCH  31  32
ATOM     32  N   UNL     1      33.731 -11.941 -22.779  0.00  0.00    +0.387 N 
ATOM     33  N   UNL     1      31.966  -9.796 -21.976  0.00  0.00    +0.383 N 
ATOM     34  C   UNL     1      33.739 -10.647 -23.473  0.00  0.00    -0.100 C 
ATOM     35  C   UNL     1      32.400 -12.215 -22.225  0.00  0.00    -0.100 C 
ATOM     36  C   UNL     1      33.297  -9.521 -22.532  0.00  0.00    -0.101 C 
ATOM     37  C   UNL     1      31.959 -11.090 -21.283  0.00  0.00    -0.101 C 
ATOM     38  C   UNL     1      31.548  -8.723 -21.076  0.00  0.00    -0.101 C 
ATOM     39  H   UNL     1      34.398 -11.897 -22.008  0.00  0.00    -0.079 HD
ATOM     40  H   UNL     1      31.299  -9.839 -22.746  0.00  0.00    -0.080 HD
ENDBRANCH  31  32
ENDBRANCH  25  31
ENDBRANCH   3  30
TORSDOF 6
ENDMDL
