MODEL 1
REMARK VINA RESULT:     -11.5      0.000      0.000
REMARK  Name = 11406590
REMARK  3 active torsions:
REMARK  status: ('A' for Active; 'I' for Inactive)
REMARK    1  A    between atoms: N_2  and  C_16
REMARK    2  A    between atoms: C_12  and  O_21
REMARK    3  A    between atoms: O_21  and  C_24
REMARK                            x       y       z     vdW  Elec       q    Type
REMARK                         _______ _______ _______ _____ _____    ______ ____
ROOT
ATOM      1  O   UNL     1      33.451 -13.346 -25.654  0.00  0.00    -0.266 OA
ATOM      2  N   UNL     1      35.585 -17.476 -20.311  0.00  0.00    -0.270 N 
ATOM      3  N   UNL     1      34.882 -16.137 -22.106  0.00  0.00    -0.322 NA
ATOM      4  N   UNL     1      34.160 -14.755 -23.942  0.00  0.00    -0.225 N 
ATOM      5  N   UNL     1      34.933 -15.269 -19.861  0.00  0.00    -0.170 NA
ATOM      6  C   UNL     1      35.110 -16.232 -20.781  0.00  0.00    +0.146 C 
ATOM      7  C   UNL     1      34.427 -14.941 -22.552  0.00  0.00    +0.204 C 
ATOM      8  C   UNL     1      34.208 -13.876 -21.690  0.00  0.00    +0.068 C 
ATOM      9  C   UNL     1      34.480 -14.098 -20.350  0.00  0.00    +0.116 C 
ATOM     10  C   UNL     1      33.720 -12.602 -22.185  0.00  0.00    +0.048 C 
ATOM     11  C   UNL     1      33.690 -13.547 -24.462  0.00  0.00    +0.289 C 
ATOM     12  C   UNL     1      33.472 -12.433 -23.489  0.00  0.00    +0.199 C 
ATOM     13  C   UNL     1      34.399 -15.892 -24.826  0.00  0.00    +0.123 C 
ATOM     14  H   UNL     1      35.762 -17.579 -19.348  0.00  0.00    +0.159 HD
ENDROOT
BRANCH   2  16
ATOM     15  O   UNL     1      35.201 -21.073 -19.806  0.00  0.00    -0.354 OA
ATOM     16  C   UNL     1      35.822 -18.608 -21.185  0.00  0.00    +0.084 C 
ATOM     17  C   UNL     1      36.898 -19.518 -20.592  0.00  0.00    +0.052 C 
ATOM     18  C   UNL     1      34.517 -19.376 -21.405  0.00  0.00    +0.052 C 
ATOM     19  C   UNL     1      36.370 -20.351 -19.427  0.00  0.00    +0.144 C 
ATOM     20  C   UNL     1      34.133 -20.205 -20.185  0.00  0.00    +0.144 C 
ENDBRANCH   2  16
BRANCH  12  21
ATOM     21  O   UNL     1      33.008 -11.241 -24.005  0.00  0.00    -0.447 OA
BRANCH  21  24
ATOM     22  F   UNL     1      34.854  -9.224 -24.317  0.00  0.00    -0.201 F 
ATOM     23  F   UNL     1      32.997  -6.913 -20.627  0.00  0.00    -0.204 F 
ATOM     24  C   UNL     1      33.006 -10.164 -23.165  0.00  0.00    +0.173 C 
ATOM     25  C   UNL     1      33.946  -9.151 -23.335  0.00  0.00    +0.177 C 
ATOM     26  C   UNL     1      32.063 -10.085 -22.143  0.00  0.00    +0.042 C 
ATOM     27  C   UNL     1      33.943  -8.051 -22.476  0.00  0.00    +0.062 C 
ATOM     28  C   UNL     1      32.060  -8.986 -21.285  0.00  0.00    +0.033 C 
ATOM     29  C   UNL     1      33.000  -7.969 -21.452  0.00  0.00    +0.143 C 
ENDBRANCH  21  24
ENDBRANCH  12  21
TORSDOF 3
ENDMDL
MODEL 2
REMARK VINA RESULT:     -11.2      3.691      8.630
REMARK  Name = 11406590
REMARK  3 active torsions:
REMARK  status: ('A' for Active; 'I' for Inactive)
REMARK    1  A    between atoms: N_2  and  C_16
REMARK    2  A    between atoms: C_12  and  O_21
REMARK    3  A    between atoms: O_21  and  C_24
REMARK                            x       y       z     vdW  Elec       q    Type
REMARK                         _______ _______ _______ _____ _____    ______ ____
ROOT
ATOM      1  O   UNL     1      34.566 -16.034 -25.588  0.00  0.00    -0.266 OA
ATOM      2  N   UNL     1      32.364 -10.769 -21.394  0.00  0.00    -0.270 N 
ATOM      3  N   UNL     1      33.084 -12.492 -22.815  0.00  0.00    -0.322 NA
ATOM      4  N   UNL     1      33.825 -14.268 -24.266  0.00  0.00    -0.225 N 
ATOM      5  N   UNL     1      33.301 -12.687 -20.425  0.00  0.00    -0.170 NA
ATOM      6  C   UNL     1      32.945 -12.046 -21.551  0.00  0.00    +0.146 C 
ATOM      7  C   UNL     1      33.642 -13.719 -22.961  0.00  0.00    +0.204 C 
ATOM      8  C   UNL     1      34.047 -14.470 -21.867  0.00  0.00    +0.068 C 
ATOM      9  C   UNL     1      33.851 -13.902 -20.618  0.00  0.00    +0.116 C 
ATOM     10  C   UNL     1      34.643 -15.782 -22.040  0.00  0.00    +0.048 C 
ATOM     11  C   UNL     1      34.394 -15.525 -24.479  0.00  0.00    +0.289 C 
ATOM     12  C   UNL     1      34.812 -16.291 -23.266  0.00  0.00    +0.199 C 
ATOM     13  C   UNL     1      33.391 -13.455 -25.398  0.00  0.00    +0.123 C 
ATOM     14  H   UNL     1      32.248 -10.413 -20.484  0.00  0.00    +0.159 HD
ENDROOT
BRANCH   2  16
ATOM     15  O   UNL     1      32.794  -7.222 -22.154  0.00  0.00    -0.354 OA
ATOM     16  C   UNL     1      31.932  -9.959 -22.516  0.00  0.00    +0.084 C 
ATOM     17  C   UNL     1      30.992  -8.851 -22.039  0.00  0.00    +0.052 C 
ATOM     18  C   UNL     1      33.150  -9.371 -23.232  0.00  0.00    +0.052 C 
ATOM     19  C   UNL     1      31.741  -7.724 -21.334  0.00  0.00    +0.144 C 
ATOM     20  C   UNL     1      33.771  -8.221 -22.445  0.00  0.00    +0.144 C 
ENDBRANCH   2  16
BRANCH  12  21
ATOM     21  O   UNL     1      35.373 -17.533 -23.480  0.00  0.00    -0.447 OA
BRANCH  21  24
ATOM     22  F   UNL     1      33.408 -19.241 -22.588  0.00  0.00    -0.201 F 
ATOM     23  F   UNL     1      36.212 -20.672 -19.054  0.00  0.00    -0.204 F 
ATOM     24  C   UNL     1      35.581 -18.315 -22.378  0.00  0.00    +0.173 C 
ATOM     25  C   UNL     1      34.577 -19.174 -21.939  0.00  0.00    +0.177 C 
ATOM     26  C   UNL     1      36.796 -18.247 -21.702  0.00  0.00    +0.042 C 
ATOM     27  C   UNL     1      34.791 -19.971 -20.814  0.00  0.00    +0.062 C 
ATOM     28  C   UNL     1      37.010 -19.044 -20.577  0.00  0.00    +0.033 C 
ATOM     29  C   UNL     1      36.007 -19.907 -20.134  0.00  0.00    +0.143 C 
ENDBRANCH  21  24
ENDBRANCH  12  21
TORSDOF 3
ENDMDL
MODEL 3
REMARK VINA RESULT:     -11.0      4.114      8.994
REMARK  Name = 11406590
REMARK  3 active torsions:
REMARK  status: ('A' for Active; 'I' for Inactive)
REMARK    1  A    between atoms: N_2  and  C_16
REMARK    2  A    between atoms: C_12  and  O_21
REMARK    3  A    between atoms: O_21  and  C_24
REMARK                            x       y       z     vdW  Elec       q    Type
REMARK                         _______ _______ _______ _____ _____    ______ ____
ROOT
ATOM      1  O   UNL     1      34.807 -18.845 -23.941  0.00  0.00    -0.266 OA
ATOM      2  N   UNL     1      33.832 -12.087 -22.060  0.00  0.00    -0.270 N 
ATOM      3  N   UNL     1      34.144 -14.318 -22.719  0.00  0.00    -0.322 NA
ATOM      4  N   UNL     1      34.468 -16.610 -23.387  0.00  0.00    -0.225 N 
ATOM      5  N   UNL     1      34.611 -13.618 -20.464  0.00  0.00    -0.170 NA
ATOM      6  C   UNL     1      34.215 -13.406 -21.729  0.00  0.00    +0.146 C 
ATOM      7  C   UNL     1      34.513 -15.582 -22.398  0.00  0.00    +0.204 C 
ATOM      8  C   UNL     1      34.938 -15.915 -21.120  0.00  0.00    +0.068 C 
ATOM      9  C   UNL     1      34.967 -14.888 -20.189  0.00  0.00    +0.116 C 
ATOM     10  C   UNL     1      35.329 -17.273 -20.792  0.00  0.00    +0.048 C 
ATOM     11  C   UNL     1      34.834 -17.931 -23.116  0.00  0.00    +0.289 C 
ATOM     12  C   UNL     1      35.285 -18.233 -21.724  0.00  0.00    +0.199 C 
ATOM     13  C   UNL     1      34.017 -16.232 -24.723  0.00  0.00    +0.123 C 
ATOM     14  H   UNL     1      33.871 -11.397 -21.359  0.00  0.00    +0.159 HD
ENDROOT
BRANCH   2  16
ATOM     15  O   UNL     1      34.064  -8.946 -23.907  0.00  0.00    -0.354 OA
ATOM     16  C   UNL     1      33.385 -11.707 -23.385  0.00  0.00    +0.084 C 
ATOM     17  C   UNL     1      32.363 -10.573 -23.294  0.00  0.00    +0.052 C 
ATOM     18  C   UNL     1      34.585 -11.295 -24.240  0.00  0.00    +0.052 C 
ATOM     19  C   UNL     1      33.020  -9.231 -22.979  0.00  0.00    +0.144 C 
ATOM     20  C   UNL     1      35.109  -9.916 -23.856  0.00  0.00    +0.144 C 
ENDBRANCH   2  16
BRANCH  12  21
ATOM     21  O   UNL     1      35.646 -19.538 -21.459  0.00  0.00    -0.447 OA
BRANCH  21  24
ATOM     22  F   UNL     1      36.851 -21.228 -19.652  0.00  0.00    -0.201 F 
ATOM     23  F   UNL     1      32.640 -22.237 -17.742  0.00  0.00    -0.204 F 
ATOM     24  C   UNL     1      34.899 -20.210 -20.534  0.00  0.00    +0.173 C 
ATOM     25  C   UNL     1      35.522 -21.062 -19.626  0.00  0.00    +0.177 C 
ATOM     26  C   UNL     1      33.518 -20.039 -20.505  0.00  0.00    +0.042 C 
ATOM     27  C   UNL     1      34.758 -21.748 -18.682  0.00  0.00    +0.062 C 
ATOM     28  C   UNL     1      32.753 -20.725 -19.561  0.00  0.00    +0.033 C 
ATOM     29  C   UNL     1      33.374 -21.579 -18.649  0.00  0.00    +0.143 C 
ENDBRANCH  21  24
ENDBRANCH  12  21
TORSDOF 3
ENDMDL
MODEL 4
REMARK VINA RESULT:     -11.0      1.285      1.620
REMARK  Name = 11406590
REMARK  3 active torsions:
REMARK  status: ('A' for Active; 'I' for Inactive)
REMARK    1  A    between atoms: N_2  and  C_16
REMARK    2  A    between atoms: C_12  and  O_21
REMARK    3  A    between atoms: O_21  and  C_24
REMARK                            x       y       z     vdW  Elec       q    Type
REMARK                         _______ _______ _______ _____ _____    ______ ____
ROOT
ATOM      1  O   UNL     1      33.702 -15.254 -26.046  0.00  0.00    -0.266 OA
ATOM      2  N   UNL     1      35.578 -18.481 -20.027  0.00  0.00    -0.270 N 
ATOM      3  N   UNL     1      34.956 -17.446 -22.039  0.00  0.00    -0.322 NA
ATOM      4  N   UNL     1      34.318 -16.374 -24.101  0.00  0.00    -0.225 N 
ATOM      5  N   UNL     1      35.236 -16.161 -20.023  0.00  0.00    -0.170 NA
ATOM      6  C   UNL     1      35.240 -17.304 -20.729  0.00  0.00    +0.146 C 
ATOM      7  C   UNL     1      34.633 -16.314 -22.709  0.00  0.00    +0.204 C 
ATOM      8  C   UNL     1      34.596 -15.078 -22.079  0.00  0.00    +0.068 C 
ATOM      9  C   UNL     1      34.909 -15.062 -20.729  0.00  0.00    +0.116 C 
ATOM     10  C   UNL     1      34.248 -13.875 -22.812  0.00  0.00    +0.048 C 
ATOM     11  C   UNL     1      33.977 -15.243 -24.845  0.00  0.00    +0.289 C 
ATOM     12  C   UNL     1      33.954 -13.938 -24.116  0.00  0.00    +0.199 C 
ATOM     13  C   UNL     1      34.363 -17.687 -24.738  0.00  0.00    +0.123 C 
ATOM     14  H   UNL     1      35.792 -18.412 -19.068  0.00  0.00    +0.159 HD
ENDROOT
BRANCH   2  16
ATOM     15  O   UNL     1      34.661 -21.804 -18.822  0.00  0.00    -0.354 OA
ATOM     16  C   UNL     1      35.623 -19.786 -20.656  0.00  0.00    +0.084 C 
ATOM     17  C   UNL     1      36.560 -20.715 -19.882  0.00  0.00    +0.052 C 
ATOM     18  C   UNL     1      34.212 -20.374 -20.734  0.00  0.00    +0.052 C 
ATOM     19  C   UNL     1      35.934 -21.209 -18.580  0.00  0.00    +0.144 C 
ATOM     20  C   UNL     1      33.730 -20.876 -19.377  0.00  0.00    +0.144 C 
ENDBRANCH   2  16
BRANCH  12  21
ATOM     21  O   UNL     1      33.617 -12.822 -24.853  0.00  0.00    -0.447 OA
BRANCH  21  24
ATOM     22  F   UNL     1      35.342 -10.843 -25.679  0.00  0.00    -0.201 F 
ATOM     23  F   UNL     1      33.762  -7.992 -22.247  0.00  0.00    -0.204 F 
ATOM     24  C   UNL     1      33.654 -11.620 -24.205  0.00  0.00    +0.173 C 
ATOM     25  C   UNL     1      34.532 -10.627 -24.634  0.00  0.00    +0.177 C 
ATOM     26  C   UNL     1      32.813 -11.394 -23.119  0.00  0.00    +0.042 C 
ATOM     27  C   UNL     1      34.569  -9.400 -23.971  0.00  0.00    +0.062 C 
ATOM     28  C   UNL     1      32.850 -10.167 -22.456  0.00  0.00    +0.033 C 
ATOM     29  C   UNL     1      33.727  -9.170 -22.883  0.00  0.00    +0.143 C 
ENDBRANCH  21  24
ENDBRANCH  12  21
TORSDOF 3
ENDMDL
MODEL 5
REMARK VINA RESULT:     -10.9      6.211      9.508
REMARK  Name = 11406590
REMARK  3 active torsions:
REMARK  status: ('A' for Active; 'I' for Inactive)
REMARK    1  A    between atoms: N_2  and  C_16
REMARK    2  A    between atoms: C_12  and  O_21
REMARK    3  A    between atoms: O_21  and  C_24
REMARK                            x       y       z     vdW  Elec       q    Type
REMARK                         _______ _______ _______ _____ _____    ______ ____
ROOT
ATOM      1  O   UNL     1      32.608 -22.054 -19.600  0.00  0.00    -0.266 OA
ATOM      2  N   UNL     1      36.908 -22.986 -14.050  0.00  0.00    -0.270 N 
ATOM      3  N   UNL     1      35.455 -22.694 -15.869  0.00  0.00    -0.322 NA
ATOM      4  N   UNL     1      33.969 -22.389 -17.742  0.00  0.00    -0.225 N 
ATOM      5  N   UNL     1      37.730 -21.915 -15.967  0.00  0.00    -0.170 NA
ATOM      6  C   UNL     1      36.689 -22.507 -15.360  0.00  0.00    +0.146 C 
ATOM      7  C   UNL     1      35.248 -22.233 -17.126  0.00  0.00    +0.204 C 
ATOM      8  C   UNL     1      36.254 -21.604 -17.847  0.00  0.00    +0.068 C 
ATOM      9  C   UNL     1      37.480 -21.473 -17.215  0.00  0.00    +0.116 C 
ATOM     10  C   UNL     1      36.016 -21.116 -19.193  0.00  0.00    +0.048 C 
ATOM     11  C   UNL     1      33.696 -21.936 -19.034  0.00  0.00    +0.289 C 
ATOM     12  C   UNL     1      34.816 -21.267 -19.764  0.00  0.00    +0.199 C 
ATOM     13  C   UNL     1      32.930 -23.053 -16.961  0.00  0.00    +0.123 C 
ATOM     14  H   UNL     1      37.799 -22.867 -13.648  0.00  0.00    +0.159 HD
ENDROOT
BRANCH   2  16
ATOM     15  O   UNL     1      37.084 -25.428 -11.339  0.00  0.00    -0.354 OA
ATOM     16  C   UNL     1      35.879 -23.645 -13.271  0.00  0.00    +0.084 C 
ATOM     17  C   UNL     1      35.948 -25.159 -13.473  0.00  0.00    +0.052 C 
ATOM     18  C   UNL     1      36.035 -23.284 -11.792  0.00  0.00    +0.052 C 
ATOM     19  C   UNL     1      37.117 -25.787 -12.719  0.00  0.00    +0.144 C 
ATOM     20  C   UNL     1      37.206 -24.019 -11.149  0.00  0.00    +0.144 C 
ENDBRANCH   2  16
BRANCH  12  21
ATOM     21  O   UNL     1      34.543 -20.819 -21.041  0.00  0.00    -0.447 OA
BRANCH  21  24
ATOM     22  F   UNL     1      34.934 -19.981 -23.633  0.00  0.00    -0.201 F 
ATOM     23  F   UNL     1      35.689 -15.560 -22.120  0.00  0.00    -0.204 F 
ATOM     24  C   UNL     1      34.828 -19.511 -21.310  0.00  0.00    +0.173 C 
ATOM     25  C   UNL     1      35.024 -19.101 -22.627  0.00  0.00    +0.177 C 
ATOM     26  C   UNL     1      34.922 -18.594 -20.266  0.00  0.00    +0.042 C 
ATOM     27  C   UNL     1      35.315 -17.764 -22.900  0.00  0.00    +0.062 C 
ATOM     28  C   UNL     1      35.213 -17.258 -20.540  0.00  0.00    +0.033 C 
ATOM     29  C   UNL     1      35.409 -16.843 -21.857  0.00  0.00    +0.143 C 
ENDBRANCH  21  24
ENDBRANCH  12  21
TORSDOF 3
ENDMDL
MODEL 6
REMARK VINA RESULT:     -10.6      3.920      8.979
REMARK  Name = 11406590
REMARK  3 active torsions:
REMARK  status: ('A' for Active; 'I' for Inactive)
REMARK    1  A    between atoms: N_2  and  C_16
REMARK    2  A    between atoms: C_12  and  O_21
REMARK    3  A    between atoms: O_21  and  C_24
REMARK                            x       y       z     vdW  Elec       q    Type
REMARK                         _______ _______ _______ _____ _____    ______ ____
ROOT
ATOM      1  O   UNL     1      35.774 -17.170 -19.986  0.00  0.00    -0.266 OA
ATOM      2  N   UNL     1      33.247 -11.557 -23.488  0.00  0.00    -0.270 N 
ATOM      3  N   UNL     1      34.088 -13.395 -22.296  0.00  0.00    -0.322 NA
ATOM      4  N   UNL     1      34.951 -15.288 -21.080  0.00  0.00    -0.225 N 
ATOM      5  N   UNL     1      33.408 -13.618 -24.595  0.00  0.00    -0.170 NA
ATOM      6  C   UNL     1      33.598 -12.924 -23.460  0.00  0.00    +0.146 C 
ATOM      7  C   UNL     1      34.423 -14.707 -22.273  0.00  0.00    +0.204 C 
ATOM      8  C   UNL     1      34.269 -15.519 -23.388  0.00  0.00    +0.068 C 
ATOM      9  C   UNL     1      33.756 -14.918 -24.526  0.00  0.00    +0.116 C 
ATOM     10  C   UNL     1      34.634 -16.923 -23.347  0.00  0.00    +0.048 C 
ATOM     11  C   UNL     1      35.315 -16.633 -20.995  0.00  0.00    +0.289 C 
ATOM     12  C   UNL     1      35.128 -17.461 -22.226  0.00  0.00    +0.199 C 
ATOM     13  C   UNL     1      35.101 -14.411 -19.922  0.00  0.00    +0.123 C 
ATOM     14  H   UNL     1      32.886 -11.181 -24.324  0.00  0.00    +0.159 HD
ENDROOT
BRANCH   2  16
ATOM     15  O   UNL     1      31.108  -8.925 -22.134  0.00  0.00    -0.354 OA
ATOM     16  C   UNL     1      33.394 -10.684 -22.341  0.00  0.00    +0.084 C 
ATOM     17  C   UNL     1      33.431  -9.222 -22.789  0.00  0.00    +0.052 C 
ATOM     18  C   UNL     1      32.248 -10.924 -21.355  0.00  0.00    +0.052 C 
ATOM     19  C   UNL     1      32.049  -8.705 -23.181  0.00  0.00    +0.144 C 
ATOM     20  C   UNL     1      30.940 -10.312 -21.845  0.00  0.00    +0.144 C 
ENDBRANCH   2  16
BRANCH  12  21
ATOM     21  O   UNL     1      35.488 -18.790 -22.139  0.00  0.00    -0.447 OA
BRANCH  21  24
ATOM     22  F   UNL     1      36.937 -20.176 -20.254  0.00  0.00    -0.201 F 
ATOM     23  F   UNL     1      32.932 -21.806 -18.330  0.00  0.00    -0.204 F 
ATOM     24  C   UNL     1      34.853 -19.541 -21.191  0.00  0.00    +0.173 C 
ATOM     25  C   UNL     1      35.599 -20.237 -20.243  0.00  0.00    +0.177 C 
ATOM     26  C   UNL     1      33.462 -19.605 -21.178  0.00  0.00    +0.042 C 
ATOM     27  C   UNL     1      34.949 -21.003 -19.276  0.00  0.00    +0.062 C 
ATOM     28  C   UNL     1      32.812 -20.371 -20.210  0.00  0.00    +0.033 C 
ATOM     29  C   UNL     1      33.556 -21.070 -19.259  0.00  0.00    +0.143 C 
ENDBRANCH  21  24
ENDBRANCH  12  21
TORSDOF 3
ENDMDL
MODEL 7
REMARK VINA RESULT:     -10.3      4.204      8.835
REMARK  Name = 11406590
REMARK  3 active torsions:
REMARK  status: ('A' for Active; 'I' for Inactive)
REMARK    1  A    between atoms: N_2  and  C_16
REMARK    2  A    between atoms: C_12  and  O_21
REMARK    3  A    between atoms: O_21  and  C_24
REMARK                            x       y       z     vdW  Elec       q    Type
REMARK                         _______ _______ _______ _____ _____    ______ ____
ROOT
ATOM      1  O   UNL     1      34.411 -13.947 -26.663  0.00  0.00    -0.266 OA
ATOM      2  N   UNL     1      32.505  -9.230 -21.735  0.00  0.00    -0.270 N 
ATOM      3  N   UNL     1      33.148 -10.764 -23.391  0.00  0.00    -0.322 NA
ATOM      4  N   UNL     1      33.806 -12.346 -25.085  0.00  0.00    -0.225 N 
ATOM      5  N   UNL     1      32.236 -11.517 -21.294  0.00  0.00    -0.170 NA
ATOM      6  C   UNL     1      32.635 -10.571 -22.159  0.00  0.00    +0.146 C 
ATOM      7  C   UNL     1      33.272 -12.052 -23.794  0.00  0.00    +0.204 C 
ATOM      8  C   UNL     1      32.891 -13.110 -22.981  0.00  0.00    +0.068 C 
ATOM      9  C   UNL     1      32.377 -12.782 -21.737  0.00  0.00    +0.116 C 
ATOM     10  C   UNL     1      33.030 -14.484 -23.428  0.00  0.00    +0.048 C 
ATOM     11  C   UNL     1      33.957 -13.652 -25.556  0.00  0.00    +0.289 C 
ATOM     12  C   UNL     1      33.530 -14.753 -24.640  0.00  0.00    +0.199 C 
ATOM     13  C   UNL     1      34.199 -11.214 -25.918  0.00  0.00    +0.123 C 
ATOM     14  H   UNL     1      32.133  -9.054 -20.841  0.00  0.00    +0.159 HD
ENDROOT
BRANCH   2  16
ATOM     15  O   UNL     1      31.796  -5.656 -21.478  0.00  0.00    -0.354 OA
ATOM     16  C   UNL     1      32.895  -8.103 -22.559  0.00  0.00    +0.084 C 
ATOM     17  C   UNL     1      31.658  -7.422 -23.146  0.00  0.00    +0.052 C 
ATOM     18  C   UNL     1      33.722  -7.116 -21.732  0.00  0.00    +0.052 C 
ATOM     19  C   UNL     1      30.916  -6.584 -22.107  0.00  0.00    +0.144 C 
ATOM     20  C   UNL     1      32.851  -6.310 -20.774  0.00  0.00    +0.144 C 
ENDBRANCH   2  16
BRANCH  12  21
ATOM     21  O   UNL     1      33.681 -16.042 -25.108  0.00  0.00    -0.447 OA
BRANCH  21  24
ATOM     22  F   UNL     1      32.778 -18.642 -25.106  0.00  0.00    -0.201 F 
ATOM     23  F   UNL     1      35.785 -19.716 -21.613  0.00  0.00    -0.204 F 
ATOM     24  C   UNL     1      34.204 -16.957 -24.238  0.00  0.00    +0.173 C 
ATOM     25  C   UNL     1      33.737 -18.269 -24.249  0.00  0.00    +0.177 C 
ATOM     26  C   UNL     1      35.201 -16.572 -23.346  0.00  0.00    +0.042 C 
ATOM     27  C   UNL     1      34.272 -19.202 -23.360  0.00  0.00    +0.062 C 
ATOM     28  C   UNL     1      35.736 -17.505 -22.458  0.00  0.00    +0.033 C 
ATOM     29  C   UNL     1      35.272 -18.820 -22.466  0.00  0.00    +0.143 C 
ENDBRANCH  21  24
ENDBRANCH  12  21
TORSDOF 3
ENDMDL
MODEL 8
REMARK VINA RESULT:      -9.9      6.072     10.921
REMARK  Name = 11406590
REMARK  3 active torsions:
REMARK  status: ('A' for Active; 'I' for Inactive)
REMARK    1  A    between atoms: N_2  and  C_16
REMARK    2  A    between atoms: C_12  and  O_21
REMARK    3  A    between atoms: O_21  and  C_24
REMARK                            x       y       z     vdW  Elec       q    Type
REMARK                         _______ _______ _______ _____ _____    ______ ____
ROOT
ATOM      1  O   UNL     1      36.937 -22.185 -17.384  0.00  0.00    -0.266 OA
ATOM      2  N   UNL     1      33.951 -18.359 -22.542  0.00  0.00    -0.270 N 
ATOM      3  N   UNL     1      34.975 -19.611 -20.842  0.00  0.00    -0.322 NA
ATOM      4  N   UNL     1      36.017 -20.901 -19.093  0.00  0.00    -0.225 N 
ATOM      5  N   UNL     1      32.603 -19.756 -21.227  0.00  0.00    -0.170 NA
ATOM      6  C   UNL     1      33.835 -19.288 -21.485  0.00  0.00    +0.146 C 
ATOM      7  C   UNL     1      34.859 -20.503 -19.828  0.00  0.00    +0.204 C 
ATOM      8  C   UNL     1      33.634 -21.051 -19.474  0.00  0.00    +0.068 C 
ATOM      9  C   UNL     1      32.536 -20.640 -20.212  0.00  0.00    +0.116 C 
ATOM     10  C   UNL     1      33.528 -22.005 -18.386  0.00  0.00    +0.048 C 
ATOM     11  C   UNL     1      35.962 -21.815 -18.040  0.00  0.00    +0.289 C 
ATOM     12  C   UNL     1      34.617 -22.374 -17.702  0.00  0.00    +0.199 C 
ATOM     13  C   UNL     1      37.292 -20.308 -19.486  0.00  0.00    +0.123 C 
ATOM     14  H   UNL     1      33.137 -18.102 -23.034  0.00  0.00    +0.159 HD
ENDROOT
BRANCH   2  16
ATOM     15  O   UNL     1      35.081 -14.890 -22.689  0.00  0.00    -0.354 OA
ATOM     16  C   UNL     1      35.214 -17.768 -22.935  0.00  0.00    +0.084 C 
ATOM     17  C   UNL     1      35.016 -16.843 -24.137  0.00  0.00    +0.052 C 
ATOM     18  C   UNL     1      35.821 -17.007 -21.754  0.00  0.00    +0.052 C 
ATOM     19  C   UNL     1      34.360 -15.522 -23.744  0.00  0.00    +0.144 C 
ATOM     20  C   UNL     1      35.105 -15.683 -21.504  0.00  0.00    +0.144 C 
ENDBRANCH   2  16
BRANCH  12  21
ATOM     21  O   UNL     1      34.565 -23.277 -16.660  0.00  0.00    -0.447 OA
BRANCH  21  24
ATOM     22  F   UNL     1      34.853 -23.157 -13.925  0.00  0.00    -0.201 F 
ATOM     23  F   UNL     1      30.150 -23.054 -13.405  0.00  0.00    -0.204 F 
ATOM     24  C   UNL     1      33.467 -23.221 -15.849  0.00  0.00    +0.173 C 
ATOM     25  C   UNL     1      33.628 -23.161 -14.467  0.00  0.00    +0.177 C 
ATOM     26  C   UNL     1      32.193 -23.226 -16.410  0.00  0.00    +0.042 C 
ATOM     27  C   UNL     1      32.506 -23.105 -13.641  0.00  0.00    +0.062 C 
ATOM     28  C   UNL     1      31.071 -23.169 -15.583  0.00  0.00    +0.033 C 
ATOM     29  C   UNL     1      31.227 -23.108 -14.199  0.00  0.00    +0.143 C 
ENDBRANCH  21  24
ENDBRANCH  12  21
TORSDOF 3
ENDMDL
MODEL 9
REMARK VINA RESULT:      -9.8      3.784      6.136
REMARK  Name = 11406590
REMARK  3 active torsions:
REMARK  status: ('A' for Active; 'I' for Inactive)
REMARK    1  A    between atoms: N_2  and  C_16
REMARK    2  A    between atoms: C_12  and  O_21
REMARK    3  A    between atoms: O_21  and  C_24
REMARK                            x       y       z     vdW  Elec       q    Type
REMARK                         _______ _______ _______ _____ _____    ______ ____
ROOT
ATOM      1  O   UNL     1      31.413  -8.058 -19.712  0.00  0.00    -0.266 OA
ATOM      2  N   UNL     1      33.925 -12.727 -24.409  0.00  0.00    -0.270 N 
ATOM      3  N   UNL     1      33.072 -11.208 -22.836  0.00  0.00    -0.322 NA
ATOM      4  N   UNL     1      32.202  -9.641 -21.225  0.00  0.00    -0.225 N 
ATOM      5  N   UNL     1      34.657 -10.501 -24.505  0.00  0.00    -0.170 NA
ATOM      6  C   UNL     1      33.884 -11.413 -23.892  0.00  0.00    +0.146 C 
ATOM      7  C   UNL     1      33.036  -9.946 -22.344  0.00  0.00    +0.204 C 
ATOM      8  C   UNL     1      33.793  -8.924 -22.898  0.00  0.00    +0.068 C 
ATOM      9  C   UNL     1      34.588  -9.261 -23.982  0.00  0.00    +0.116 C 
ATOM     10  C   UNL     1      33.742  -7.578 -22.359  0.00  0.00    +0.048 C 
ATOM     11  C   UNL     1      32.122  -8.361 -20.674  0.00  0.00    +0.289 C 
ATOM     12  C   UNL     1      32.959  -7.299 -21.311  0.00  0.00    +0.199 C 
ATOM     13  C   UNL     1      31.417 -10.735 -20.661  0.00  0.00    +0.123 C 
ATOM     14  H   UNL     1      34.507 -12.911 -25.181  0.00  0.00    +0.159 HD
ENDROOT
BRANCH   2  16
ATOM     15  O   UNL     1      34.793 -16.180 -23.596  0.00  0.00    -0.354 OA
ATOM     16  C   UNL     1      33.148 -13.815 -23.851  0.00  0.00    +0.084 C 
ATOM     17  C   UNL     1      33.082 -14.980 -24.840  0.00  0.00    +0.052 C 
ATOM     18  C   UNL     1      33.759 -14.262 -22.521  0.00  0.00    +0.052 C 
ATOM     19  C   UNL     1      34.392 -15.761 -24.898  0.00  0.00    +0.144 C 
ATOM     20  C   UNL     1      35.033 -15.075 -22.726  0.00  0.00    +0.144 C 
ENDBRANCH   2  16
BRANCH  12  21
ATOM     21  O   UNL     1      32.877  -6.035 -20.764  0.00  0.00    -0.447 OA
BRANCH  21  24
ATOM     22  F   UNL     1      32.834  -3.409 -19.939  0.00  0.00    -0.201 F 
ATOM     23  F   UNL     1      30.154  -2.251 -23.664  0.00  0.00    -0.204 F 
ATOM     24  C   UNL     1      32.200  -5.092 -21.485  0.00  0.00    +0.173 C 
ATOM     25  C   UNL     1      32.186  -3.768 -21.055  0.00  0.00    +0.177 C 
ATOM     26  C   UNL     1      31.526  -5.463 -22.646  0.00  0.00    +0.042 C 
ATOM     27  C   UNL     1      31.494  -2.807 -21.793  0.00  0.00    +0.062 C 
ATOM     28  C   UNL     1      30.834  -4.502 -23.383  0.00  0.00    +0.033 C 
ATOM     29  C   UNL     1      30.819  -3.174 -22.956  0.00  0.00    +0.143 C 
ENDBRANCH  21  24
ENDBRANCH  12  21
TORSDOF 3
ENDMDL
