MODEL 1
REMARK VINA RESULT:     -11.8      0.000      0.000
REMARK  Name = 17754438
REMARK  6 active torsions:
REMARK  status: ('A' for Active; 'I' for Inactive)
REMARK    1  A    between atoms: N_1  and  C_19
REMARK    2  A    between atoms: C_7  and  C_12
REMARK    3  A    between atoms: N_10  and  C_15
REMARK    4  A    between atoms: C_15  and  C_16
REMARK    5  A    between atoms: C_16  and  O_17
REMARK    6  A    between atoms: C_19  and  C_21
REMARK                            x       y       z     vdW  Elec       q    Type
REMARK                         _______ _______ _______ _____ _____    ______ ____
ROOT
ATOM      1  N   UNL     1      34.766 -20.415 -19.915  0.00  0.00    -0.163 N 
ATOM      2  N   UNL     1      35.561 -21.624 -17.945  0.00  0.00    -0.378 NA
ATOM      3  N   UNL     1      33.588 -20.267 -20.553  0.00  0.00    -0.033 NA
ATOM      4  N   UNL     1      32.770 -22.398 -17.900  0.00  0.00    -0.208 NA
ATOM      5  N   UNL     1      32.676 -20.983 -19.896  0.00  0.00    -0.086 NA
ATOM      6  C   UNL     1      34.637 -21.229 -18.834  0.00  0.00    +0.267 C 
ATOM      7  C   UNL     1      35.019 -22.441 -17.013  0.00  0.00    +0.140 C 
ATOM      8  C   UNL     1      33.300 -21.579 -18.840  0.00  0.00    +0.098 C 
ATOM      9  C   UNL     1      33.682 -22.812 -16.991  0.00  0.00    +0.195 C 
ENDROOT
BRANCH   7  12
ATOM     10  N   UNL     1      36.739 -24.099 -14.358  0.00  0.00    -0.208 N 
ATOM     11  N   UNL     1      37.733 -23.243 -14.653  0.00  0.00    -0.176 NA
ATOM     12  C   UNL     1      35.921 -22.925 -16.009  0.00  0.00    +0.064 C 
ATOM     13  C   UNL     1      35.632 -23.950 -15.141  0.00  0.00    +0.088 C 
ATOM     14  C   UNL     1      37.227 -22.528 -15.662  0.00  0.00    +0.121 C 
BRANCH  10  15
ATOM     15  C   UNL     1      36.914 -25.059 -13.295  0.00  0.00    +0.148 C 
BRANCH  15  16
ATOM     16  C   UNL     1      37.364 -26.421 -13.806  0.00  0.00    +0.161 C 
BRANCH  16  17
ATOM     17  O   UNL     1      38.210 -26.253 -14.936  0.00  0.00    -0.380 OA
ATOM     18  H   UNL     1      37.707 -25.847 -15.659  0.00  0.00    +0.211 HD
ENDBRANCH  16  17
ENDBRANCH  15  16
ENDBRANCH  10  15
ENDBRANCH   7  12
BRANCH   1  19
ATOM     19  C   UNL     1      35.973 -19.740 -20.405  0.00  0.00    +0.145 C 
BRANCH  19  21
ATOM     20  N   UNL     1      34.736 -14.958 -23.167  0.00  0.00    -0.244 NA
ATOM     21  C   UNL     1      35.647 -18.474 -21.124  0.00  0.00    -0.000 C 
ATOM     22  C   UNL     1      35.357 -17.317 -20.408  0.00  0.00    -0.001 C 
ATOM     23  C   UNL     1      35.049 -16.122 -21.082  0.00  0.00    +0.017 C 
ATOM     24  C   UNL     1      35.628 -18.445 -22.513  0.00  0.00    -0.001 C 
ATOM     25  C   UNL     1      35.029 -16.085 -22.491  0.00  0.00    +0.081 C 
ATOM     26  C   UNL     1      35.322 -17.257 -23.182  0.00  0.00    +0.019 C 
ATOM     27  C   UNL     1      34.755 -14.943 -20.385  0.00  0.00    +0.003 C 
ATOM     28  C   UNL     1      34.453 -13.779 -21.079  0.00  0.00    +0.021 C 
ATOM     29  C   UNL     1      34.458 -13.840 -22.457  0.00  0.00    +0.099 C 
ENDBRANCH  19  21
ENDBRANCH   1  19
TORSDOF 6
ENDMDL
MODEL 2
REMARK VINA RESULT:     -11.6      4.973     10.707
REMARK  Name = 17754438
REMARK  6 active torsions:
REMARK  status: ('A' for Active; 'I' for Inactive)
REMARK    1  A    between atoms: N_1  and  C_19
REMARK    2  A    between atoms: C_7  and  C_12
REMARK    3  A    between atoms: N_10  and  C_15
REMARK    4  A    between atoms: C_15  and  C_16
REMARK    5  A    between atoms: C_16  and  O_17
REMARK    6  A    between atoms: C_19  and  C_21
REMARK                            x       y       z     vdW  Elec       q    Type
REMARK                         _______ _______ _______ _____ _____    ______ ____
ROOT
ATOM      1  N   UNL     1      35.204 -17.111 -22.870  0.00  0.00    -0.163 N 
ATOM      2  N   UNL     1      34.465 -14.786 -23.010  0.00  0.00    -0.378 NA
ATOM      3  N   UNL     1      35.051 -18.224 -23.614  0.00  0.00    -0.033 NA
ATOM      4  N   UNL     1      33.248 -15.832 -25.422  0.00  0.00    -0.208 NA
ATOM      5  N   UNL     1      34.302 -17.910 -24.670  0.00  0.00    -0.086 NA
ATOM      6  C   UNL     1      34.557 -16.056 -23.431  0.00  0.00    +0.267 C 
ATOM      7  C   UNL     1      33.722 -14.044 -23.864  0.00  0.00    +0.140 C 
ATOM      8  C   UNL     1      33.990 -16.585 -24.575  0.00  0.00    +0.098 C 
ATOM      9  C   UNL     1      33.139 -14.545 -25.020  0.00  0.00    +0.195 C 
ENDROOT
BRANCH   7  12
ATOM     10  N   UNL     1      32.883 -10.862 -22.475  0.00  0.00    -0.208 N 
ATOM     11  N   UNL     1      33.696 -10.385 -23.433  0.00  0.00    -0.176 NA
ATOM     12  C   UNL     1      33.558 -12.664 -23.510  0.00  0.00    +0.064 C 
ATOM     13  C   UNL     1      32.766 -12.221 -22.478  0.00  0.00    +0.088 C 
ATOM     14  C   UNL     1      34.105 -11.490 -24.062  0.00  0.00    +0.121 C 
BRANCH  10  15
ATOM     15  C   UNL     1      32.235  -9.949 -21.565  0.00  0.00    +0.148 C 
BRANCH  15  16
ATOM     16  C   UNL     1      32.545  -8.492 -21.881  0.00  0.00    +0.161 C 
BRANCH  16  17
ATOM     17  O   UNL     1      31.777  -8.071 -23.001  0.00  0.00    -0.380 OA
ATOM     18  H   UNL     1      30.856  -8.352 -22.887  0.00  0.00    +0.211 HD
ENDBRANCH  16  17
ENDBRANCH  15  16
ENDBRANCH  10  15
ENDBRANCH   7  12
BRANCH   1  19
ATOM     19  C   UNL     1      35.988 -17.141 -21.631  0.00  0.00    +0.145 C 
BRANCH  19  21
ATOM     20  N   UNL     1      35.383 -22.026 -18.839  0.00  0.00    -0.244 NA
ATOM     21  C   UNL     1      35.819 -18.428 -20.897  0.00  0.00    -0.000 C 
ATOM     22  C   UNL     1      34.545 -18.934 -20.656  0.00  0.00    -0.001 C 
ATOM     23  C   UNL     1      34.381 -20.146 -19.964  0.00  0.00    +0.017 C 
ATOM     24  C   UNL     1      36.932 -19.128 -20.447  0.00  0.00    -0.001 C 
ATOM     25  C   UNL     1      35.505 -20.862 -19.505  0.00  0.00    +0.081 C 
ATOM     26  C   UNL     1      36.768 -20.333 -19.759  0.00  0.00    +0.019 C 
ATOM     27  C   UNL     1      33.110 -20.678 -19.709  0.00  0.00    +0.003 C 
ATOM     28  C   UNL     1      32.980 -21.878 -19.023  0.00  0.00    +0.021 C 
ATOM     29  C   UNL     1      34.139 -22.506 -18.613  0.00  0.00    +0.099 C 
ENDBRANCH  19  21
ENDBRANCH   1  19
TORSDOF 6
ENDMDL
MODEL 3
REMARK VINA RESULT:     -11.5      2.423      4.098
REMARK  Name = 17754438
REMARK  6 active torsions:
REMARK  status: ('A' for Active; 'I' for Inactive)
REMARK    1  A    between atoms: N_1  and  C_19
REMARK    2  A    between atoms: C_7  and  C_12
REMARK    3  A    between atoms: N_10  and  C_15
REMARK    4  A    between atoms: C_15  and  C_16
REMARK    5  A    between atoms: C_16  and  O_17
REMARK    6  A    between atoms: C_19  and  C_21
REMARK                            x       y       z     vdW  Elec       q    Type
REMARK                         _______ _______ _______ _____ _____    ______ ____
ROOT
ATOM      1  N   UNL     1      33.137 -23.264 -17.042  0.00  0.00    -0.163 N 
ATOM      2  N   UNL     1      34.753 -24.011 -15.369  0.00  0.00    -0.378 NA
ATOM      3  N   UNL     1      31.873 -22.795 -17.030  0.00  0.00    -0.033 NA
ATOM      4  N   UNL     1      32.531 -23.339 -13.636  0.00  0.00    -0.208 NA
ATOM      5  N   UNL     1      31.465 -22.755 -15.762  0.00  0.00    -0.086 NA
ATOM      6  C   UNL     1      33.569 -23.536 -15.783  0.00  0.00    +0.267 C 
ATOM      7  C   UNL     1      34.779 -24.140 -14.022  0.00  0.00    +0.140 C 
ATOM      8  C   UNL     1      32.491 -23.205 -14.984  0.00  0.00    +0.098 C 
ATOM      9  C   UNL     1      33.715 -23.818 -13.192  0.00  0.00    +0.195 C 
ENDROOT
BRANCH   7  12
ATOM     10  N   UNL     1      37.988 -25.544 -13.319  0.00  0.00    -0.208 N 
ATOM     11  N   UNL     1      37.679 -25.258 -12.043  0.00  0.00    -0.176 NA
ATOM     12  C   UNL     1      36.003 -24.643 -13.468  0.00  0.00    +0.064 C 
ATOM     13  C   UNL     1      37.017 -25.196 -14.212  0.00  0.00    +0.088 C 
ATOM     14  C   UNL     1      36.465 -24.708 -12.140  0.00  0.00    +0.121 C 
BRANCH  10  15
ATOM     15  C   UNL     1      39.255 -26.160 -13.629  0.00  0.00    +0.148 C 
BRANCH  15  16
ATOM     16  C   UNL     1      40.164 -25.250 -14.444  0.00  0.00    +0.161 C 
BRANCH  16  17
ATOM     17  O   UNL     1      40.332 -25.786 -15.750  0.00  0.00    -0.380 OA
ATOM     18  H   UNL     1      39.583 -26.363 -15.962  0.00  0.00    +0.211 HD
ENDBRANCH  16  17
ENDBRANCH  15  16
ENDBRANCH  10  15
ENDBRANCH   7  12
BRANCH   1  19
ATOM     19  C   UNL     1      33.864 -23.422 -18.307  0.00  0.00    +0.145 C 
BRANCH  19  21
ATOM     20  N   UNL     1      34.574 -18.463 -20.939  0.00  0.00    -0.244 NA
ATOM     21  C   UNL     1      34.061 -22.117 -19.001  0.00  0.00    -0.000 C 
ATOM     22  C   UNL     1      35.346 -21.626 -19.216  0.00  0.00    -0.001 C 
ATOM     23  C   UNL     1      35.535 -20.396 -19.869  0.00  0.00    +0.017 C 
ATOM     24  C   UNL     1      32.964 -21.383 -19.433  0.00  0.00    -0.001 C 
ATOM     25  C   UNL     1      34.427 -19.645 -20.311  0.00  0.00    +0.081 C 
ATOM     26  C   UNL     1      33.153 -20.160 -20.082  0.00  0.00    +0.019 C 
ATOM     27  C   UNL     1      36.817 -19.879 -20.100  0.00  0.00    +0.003 C 
ATOM     28  C   UNL     1      36.972 -18.660 -20.746  0.00  0.00    +0.021 C 
ATOM     29  C   UNL     1      35.828 -17.999 -21.142  0.00  0.00    +0.099 C 
ENDBRANCH  19  21
ENDBRANCH   1  19
TORSDOF 6
ENDMDL
MODEL 4
REMARK VINA RESULT:     -11.5      1.871      2.501
REMARK  Name = 17754438
REMARK  6 active torsions:
REMARK  status: ('A' for Active; 'I' for Inactive)
REMARK    1  A    between atoms: N_1  and  C_19
REMARK    2  A    between atoms: C_7  and  C_12
REMARK    3  A    between atoms: N_10  and  C_15
REMARK    4  A    between atoms: C_15  and  C_16
REMARK    5  A    between atoms: C_16  and  O_17
REMARK    6  A    between atoms: C_19  and  C_21
REMARK                            x       y       z     vdW  Elec       q    Type
REMARK                         _______ _______ _______ _____ _____    ______ ____
ROOT
ATOM      1  N   UNL     1      34.753 -21.294 -19.149  0.00  0.00    -0.163 N 
ATOM      2  N   UNL     1      35.574 -22.290 -17.074  0.00  0.00    -0.378 NA
ATOM      3  N   UNL     1      33.561 -21.187 -19.769  0.00  0.00    -0.033 NA
ATOM      4  N   UNL     1      32.767 -22.975 -16.867  0.00  0.00    -0.208 NA
ATOM      5  N   UNL     1      32.650 -21.797 -19.010  0.00  0.00    -0.086 NA
ATOM      6  C   UNL     1      34.635 -21.974 -17.978  0.00  0.00    +0.267 C 
ATOM      7  C   UNL     1      35.039 -22.978 -16.040  0.00  0.00    +0.140 C 
ATOM      8  C   UNL     1      33.291 -22.285 -17.909  0.00  0.00    +0.098 C 
ATOM      9  C   UNL     1      33.695 -23.307 -15.940  0.00  0.00    +0.195 C 
ENDROOT
BRANCH   7  12
ATOM     10  N   UNL     1      36.746 -24.193 -13.146  0.00  0.00    -0.208 N 
ATOM     11  N   UNL     1      37.844 -23.734 -13.772  0.00  0.00    -0.176 NA
ATOM     12  C   UNL     1      35.959 -23.369 -15.010  0.00  0.00    +0.064 C 
ATOM     13  C   UNL     1      35.591 -23.999 -13.846  0.00  0.00    +0.088 C 
ATOM     14  C   UNL     1      37.356 -23.231 -14.909  0.00  0.00    +0.121 C 
BRANCH  10  15
ATOM     15  C   UNL     1      36.869 -24.825 -11.854  0.00  0.00    +0.148 C 
BRANCH  15  16
ATOM     16  C   UNL     1      35.994 -24.166 -10.797  0.00  0.00    +0.161 C 
BRANCH  16  17
ATOM     17  O   UNL     1      35.333 -25.165 -10.031  0.00  0.00    -0.380 OA
ATOM     18  H   UNL     1      34.400 -24.924  -9.921  0.00  0.00    +0.211 HD
ENDBRANCH  16  17
ENDBRANCH  15  16
ENDBRANCH  10  15
ENDBRANCH   7  12
BRANCH   1  19
ATOM     19  C   UNL     1      35.961 -20.714 -19.746  0.00  0.00    +0.145 C 
BRANCH  19  21
ATOM     20  N   UNL     1      34.765 -16.351 -23.146  0.00  0.00    -0.244 NA
ATOM     21  C   UNL     1      35.640 -19.570 -20.648  0.00  0.00    -0.000 C 
ATOM     22  C   UNL     1      35.018 -19.797 -21.872  0.00  0.00    -0.001 C 
ATOM     23  C   UNL     1      34.715 -18.722 -22.725  0.00  0.00    +0.017 C 
ATOM     24  C   UNL     1      35.964 -18.272 -20.273  0.00  0.00    -0.001 C 
ATOM     25  C   UNL     1      35.040 -17.403 -22.351  0.00  0.00    +0.081 C 
ATOM     26  C   UNL     1      35.663 -17.204 -21.122  0.00  0.00    +0.019 C 
ATOM     27  C   UNL     1      34.088 -18.923 -23.963  0.00  0.00    +0.003 C 
ATOM     28  C   UNL     1      33.803 -17.841 -24.784  0.00  0.00    +0.021 C 
ATOM     29  C   UNL     1      34.158 -16.587 -24.332  0.00  0.00    +0.099 C 
ENDBRANCH  19  21
ENDBRANCH   1  19
TORSDOF 6
ENDMDL
MODEL 5
REMARK VINA RESULT:     -11.3      4.350      6.733
REMARK  Name = 17754438
REMARK  6 active torsions:
REMARK  status: ('A' for Active; 'I' for Inactive)
REMARK    1  A    between atoms: N_1  and  C_19
REMARK    2  A    between atoms: C_7  and  C_12
REMARK    3  A    between atoms: N_10  and  C_15
REMARK    4  A    between atoms: C_15  and  C_16
REMARK    5  A    between atoms: C_16  and  O_17
REMARK    6  A    between atoms: C_19  and  C_21
REMARK                            x       y       z     vdW  Elec       q    Type
REMARK                         _______ _______ _______ _____ _____    ______ ____
ROOT
ATOM      1  N   UNL     1      34.193 -23.247 -16.780  0.00  0.00    -0.163 N 
ATOM      2  N   UNL     1      31.821 -23.308 -16.197  0.00  0.00    -0.378 NA
ATOM      3  N   UNL     1      35.354 -23.105 -16.109  0.00  0.00    -0.033 NA
ATOM      4  N   UNL     1      32.961 -22.929 -13.561  0.00  0.00    -0.208 NA
ATOM      5  N   UNL     1      35.063 -22.965 -14.816  0.00  0.00    -0.086 NA
ATOM      6  C   UNL     1      33.132 -23.204 -15.932  0.00  0.00    +0.267 C 
ATOM      7  C   UNL     1      31.088 -23.212 -15.064  0.00  0.00    +0.140 C 
ATOM      8  C   UNL     1      33.707 -23.024 -14.689  0.00  0.00    +0.098 C 
ATOM      9  C   UNL     1      31.634 -23.031 -13.801  0.00  0.00    +0.195 C 
ENDROOT
BRANCH   7  12
ATOM     10  N   UNL     1      27.582 -22.750 -15.567  0.00  0.00    -0.208 N 
ATOM     11  N   UNL     1      27.524 -24.083 -15.402  0.00  0.00    -0.176 NA
ATOM     12  C   UNL     1      29.667 -23.309 -15.231  0.00  0.00    +0.064 C 
ATOM     13  C   UNL     1      28.843 -22.237 -15.474  0.00  0.00    +0.088 C 
ATOM     14  C   UNL     1      28.800 -24.419 -15.197  0.00  0.00    +0.121 C 
BRANCH  10  15
ATOM     15  C   UNL     1      26.371 -22.006 -15.819  0.00  0.00    +0.148 C 
BRANCH  15  16
ATOM     16  C   UNL     1      26.222 -21.612 -17.283  0.00  0.00    +0.161 C 
BRANCH  16  17
ATOM     17  O   UNL     1      25.910 -20.229 -17.377  0.00  0.00    -0.380 OA
ATOM     18  H   UNL     1      26.231 -19.769 -16.587  0.00  0.00    +0.211 HD
ENDBRANCH  16  17
ENDBRANCH  15  16
ENDBRANCH  10  15
ENDBRANCH   7  12
BRANCH   1  19
ATOM     19  C   UNL     1      34.187 -23.423 -18.236  0.00  0.00    +0.145 C 
BRANCH  19  21
ATOM     20  N   UNL     1      34.549 -18.471 -20.952  0.00  0.00    -0.244 NA
ATOM     21  C   UNL     1      34.293 -22.119 -18.953  0.00  0.00    -0.000 C 
ATOM     22  C   UNL     1      35.542 -21.575 -19.235  0.00  0.00    -0.001 C 
ATOM     23  C   UNL     1      35.646 -20.346 -19.910  0.00  0.00    +0.017 C 
ATOM     24  C   UNL     1      33.144 -21.439 -19.339  0.00  0.00    -0.001 C 
ATOM     25  C   UNL     1      34.485 -19.651 -20.306  0.00  0.00    +0.081 C 
ATOM     26  C   UNL     1      33.248 -20.218 -20.010  0.00  0.00    +0.019 C 
ATOM     27  C   UNL     1      36.891 -19.777 -20.208  0.00  0.00    +0.003 C 
ATOM     28  C   UNL     1      36.961 -18.561 -20.874  0.00  0.00    +0.021 C 
ATOM     29  C   UNL     1      35.770 -17.956 -21.221  0.00  0.00    +0.099 C 
ENDBRANCH  19  21
ENDBRANCH   1  19
TORSDOF 6
ENDMDL
MODEL 6
REMARK VINA RESULT:     -11.1      3.381      6.431
REMARK  Name = 17754438
REMARK  6 active torsions:
REMARK  status: ('A' for Active; 'I' for Inactive)
REMARK    1  A    between atoms: N_1  and  C_19
REMARK    2  A    between atoms: C_7  and  C_12
REMARK    3  A    between atoms: N_10  and  C_15
REMARK    4  A    between atoms: C_15  and  C_16
REMARK    5  A    between atoms: C_16  and  O_17
REMARK    6  A    between atoms: C_19  and  C_21
REMARK                            x       y       z     vdW  Elec       q    Type
REMARK                         _______ _______ _______ _____ _____    ______ ____
ROOT
ATOM      1  N   UNL     1      34.491 -15.239 -23.867  0.00  0.00    -0.163 N 
ATOM      2  N   UNL     1      35.059 -17.118 -22.411  0.00  0.00    -0.378 NA
ATOM      3  N   UNL     1      33.833 -15.079 -25.032  0.00  0.00    -0.033 NA
ATOM      4  N   UNL     1      33.628 -18.531 -24.496  0.00  0.00    -0.208 NA
ATOM      5  N   UNL     1      33.417 -16.280 -25.435  0.00  0.00    -0.086 NA
ATOM      6  C   UNL     1      34.512 -16.546 -23.494  0.00  0.00    +0.267 C 
ATOM      7  C   UNL     1      34.855 -18.455 -22.414  0.00  0.00    +0.140 C 
ATOM      8  C   UNL     1      33.824 -17.191 -24.504  0.00  0.00    +0.098 C 
ATOM      9  C   UNL     1      34.170 -19.133 -23.412  0.00  0.00    +0.195 C 
ENDROOT
BRANCH   7  12
ATOM     10  N   UNL     1      35.608 -20.610 -19.667  0.00  0.00    -0.208 N 
ATOM     11  N   UNL     1      36.750 -19.903 -19.604  0.00  0.00    -0.176 NA
ATOM     12  C   UNL     1      35.401 -19.171 -21.297  0.00  0.00    +0.064 C 
ATOM     13  C   UNL     1      34.766 -20.212 -20.663  0.00  0.00    +0.088 C 
ATOM     14  C   UNL     1      36.617 -19.025 -20.602  0.00  0.00    +0.121 C 
BRANCH  10  15
ATOM     15  C   UNL     1      35.378 -21.681 -18.727  0.00  0.00    +0.148 C 
BRANCH  15  16
ATOM     16  C   UNL     1      33.930 -22.153 -18.723  0.00  0.00    +0.161 C 
BRANCH  16  17
ATOM     17  O   UNL     1      33.887 -23.571 -18.811  0.00  0.00    -0.380 OA
ATOM     18  H   UNL     1      34.747 -23.937 -18.554  0.00  0.00    +0.211 HD
ENDBRANCH  16  17
ENDBRANCH  15  16
ENDBRANCH  10  15
ENDBRANCH   7  12
BRANCH   1  19
ATOM     19  C   UNL     1      35.071 -14.086 -23.170  0.00  0.00    +0.145 C 
BRANCH  19  21
ATOM     20  N   UNL     1      31.071 -10.705 -21.027  0.00  0.00    -0.244 NA
ATOM     21  C   UNL     1      34.019 -13.188 -22.613  0.00  0.00    -0.000 C 
ATOM     22  C   UNL     1      33.912 -11.874 -23.059  0.00  0.00    -0.001 C 
ATOM     23  C   UNL     1      32.922 -11.024 -22.534  0.00  0.00    +0.017 C 
ATOM     24  C   UNL     1      33.142 -13.657 -21.642  0.00  0.00    -0.001 C 
ATOM     25  C   UNL     1      32.029 -11.494 -21.550  0.00  0.00    +0.081 C 
ATOM     26  C   UNL     1      32.159 -12.812 -21.122  0.00  0.00    +0.019 C 
ATOM     27  C   UNL     1      32.792  -9.697 -22.967  0.00  0.00    +0.003 C 
ATOM     28  C   UNL     1      31.805  -8.883 -22.429  0.00  0.00    +0.021 C 
ATOM     29  C   UNL     1      30.978  -9.431 -21.471  0.00  0.00    +0.099 C 
ENDBRANCH  19  21
ENDBRANCH   1  19
TORSDOF 6
ENDMDL
MODEL 7
REMARK VINA RESULT:     -11.1      4.640     10.330
REMARK  Name = 17754438
REMARK  6 active torsions:
REMARK  status: ('A' for Active; 'I' for Inactive)
REMARK    1  A    between atoms: N_1  and  C_19
REMARK    2  A    between atoms: C_7  and  C_12
REMARK    3  A    between atoms: N_10  and  C_15
REMARK    4  A    between atoms: C_15  and  C_16
REMARK    5  A    between atoms: C_16  and  O_17
REMARK    6  A    between atoms: C_19  and  C_21
REMARK                            x       y       z     vdW  Elec       q    Type
REMARK                         _______ _______ _______ _____ _____    ______ ____
ROOT
ATOM      1  N   UNL     1      34.978 -18.029 -22.932  0.00  0.00    -0.163 N 
ATOM      2  N   UNL     1      34.324 -15.674 -22.918  0.00  0.00    -0.378 NA
ATOM      3  N   UNL     1      34.897 -19.053 -23.804  0.00  0.00    -0.033 NA
ATOM      4  N   UNL     1      33.412 -16.419 -25.565  0.00  0.00    -0.208 NA
ATOM      5  N   UNL     1      34.303 -18.603 -24.909  0.00  0.00    -0.086 NA
ATOM      6  C   UNL     1      34.438 -16.897 -23.457  0.00  0.00    +0.267 C 
ATOM      7  C   UNL     1      33.721 -14.820 -23.777  0.00  0.00    +0.140 C 
ATOM      8  C   UNL     1      34.015 -17.284 -24.714  0.00  0.00    +0.098 C 
ATOM      9  C   UNL     1      33.284 -15.177 -25.045  0.00  0.00    +0.195 C 
ENDROOT
BRANCH   7  12
ATOM     10  N   UNL     1      32.811 -11.773 -22.152  0.00  0.00    -0.208 N 
ATOM     11  N   UNL     1      33.709 -11.221 -22.986  0.00  0.00    -0.176 NA
ATOM     12  C   UNL     1      33.546 -13.478 -23.301  0.00  0.00    +0.064 C 
ATOM     13  C   UNL     1      32.676 -13.122 -22.300  0.00  0.00    +0.088 C 
ATOM     14  C   UNL     1      34.154 -12.269 -23.686  0.00  0.00    +0.121 C 
BRANCH  10  15
ATOM     15  C   UNL     1      32.100 -10.938 -21.212  0.00  0.00    +0.148 C 
BRANCH  15  16
ATOM     16  C   UNL     1      31.775  -9.564 -21.781  0.00  0.00    +0.161 C 
BRANCH  16  17
ATOM     17  O   UNL     1      32.796  -8.642 -21.420  0.00  0.00    -0.380 OA
ATOM     18  H   UNL     1      33.523  -9.117 -20.989  0.00  0.00    +0.211 HD
ENDBRANCH  16  17
ENDBRANCH  15  16
ENDBRANCH  10  15
ENDBRANCH   7  12
BRANCH   1  19
ATOM     19  C   UNL     1      35.589 -18.216 -21.612  0.00  0.00    +0.145 C 
BRANCH  19  21
ATOM     20  N   UNL     1      32.745 -22.014 -18.528  0.00  0.00    -0.244 NA
ATOM     21  C   UNL     1      34.848 -19.219 -20.794  0.00  0.00    -0.000 C 
ATOM     22  C   UNL     1      35.536 -20.055 -19.919  0.00  0.00    -0.001 C 
ATOM     23  C   UNL     1      34.841 -21.002 -19.147  0.00  0.00    +0.017 C 
ATOM     24  C   UNL     1      33.467 -19.327 -20.904  0.00  0.00    -0.001 C 
ATOM     25  C   UNL     1      33.440 -21.117 -19.253  0.00  0.00    +0.081 C 
ATOM     26  C   UNL     1      32.777 -20.269 -20.136  0.00  0.00    +0.019 C 
ATOM     27  C   UNL     1      35.509 -21.854 -18.257  0.00  0.00    +0.003 C 
ATOM     28  C   UNL     1      34.795 -22.780 -17.510  0.00  0.00    +0.021 C 
ATOM     29  C   UNL     1      33.426 -22.818 -17.681  0.00  0.00    +0.099 C 
ENDBRANCH  19  21
ENDBRANCH   1  19
TORSDOF 6
ENDMDL
MODEL 8
REMARK VINA RESULT:     -10.9      4.821     10.528
REMARK  Name = 17754438
REMARK  6 active torsions:
REMARK  status: ('A' for Active; 'I' for Inactive)
REMARK    1  A    between atoms: N_1  and  C_19
REMARK    2  A    between atoms: C_7  and  C_12
REMARK    3  A    between atoms: N_10  and  C_15
REMARK    4  A    between atoms: C_15  and  C_16
REMARK    5  A    between atoms: C_16  and  O_17
REMARK    6  A    between atoms: C_19  and  C_21
REMARK                            x       y       z     vdW  Elec       q    Type
REMARK                         _______ _______ _______ _____ _____    ______ ____
ROOT
ATOM      1  N   UNL     1      35.009 -18.166 -22.903  0.00  0.00    -0.163 N 
ATOM      2  N   UNL     1      34.374 -15.806 -22.879  0.00  0.00    -0.378 NA
ATOM      3  N   UNL     1      34.911 -19.189 -23.776  0.00  0.00    -0.033 NA
ATOM      4  N   UNL     1      33.429 -16.539 -25.518  0.00  0.00    -0.208 NA
ATOM      5  N   UNL     1      34.309 -18.732 -24.874  0.00  0.00    -0.086 NA
ATOM      6  C   UNL     1      34.473 -17.029 -23.421  0.00  0.00    +0.267 C 
ATOM      7  C   UNL     1      33.769 -14.947 -23.731  0.00  0.00    +0.140 C 
ATOM      8  C   UNL     1      34.034 -17.411 -24.674  0.00  0.00    +0.098 C 
ATOM      9  C   UNL     1      33.317 -15.297 -24.995  0.00  0.00    +0.195 C 
ENDROOT
BRANCH   7  12
ATOM     10  N   UNL     1      33.717 -11.425 -23.133  0.00  0.00    -0.208 N 
ATOM     11  N   UNL     1      33.067 -11.766 -22.007  0.00  0.00    -0.176 NA
ATOM     12  C   UNL     1      33.610 -13.604 -23.251  0.00  0.00    +0.064 C 
ATOM     13  C   UNL     1      34.064 -12.489 -23.913  0.00  0.00    +0.088 C 
ATOM     14  C   UNL     1      33.005 -13.098 -22.085  0.00  0.00    +0.121 C 
BRANCH  10  15
ATOM     15  C   UNL     1      33.979 -10.034 -23.416  0.00  0.00    +0.148 C 
BRANCH  15  16
ATOM     16  C   UNL     1      32.937  -9.108 -22.803  0.00  0.00    +0.161 C 
BRANCH  16  17
ATOM     17  O   UNL     1      33.219  -7.763 -23.168  0.00  0.00    -0.380 OA
ATOM     18  H   UNL     1      33.967  -7.744 -23.784  0.00  0.00    +0.211 HD
ENDBRANCH  16  17
ENDBRANCH  15  16
ENDBRANCH  10  15
ENDBRANCH   7  12
BRANCH   1  19
ATOM     19  C   UNL     1      35.633 -18.360 -21.590  0.00  0.00    +0.145 C 
BRANCH  19  21
ATOM     20  N   UNL     1      32.706 -22.026 -18.425  0.00  0.00    -0.244 NA
ATOM     21  C   UNL     1      34.870 -19.329 -20.751  0.00  0.00    -0.000 C 
ATOM     22  C   UNL     1      35.540 -20.166 -19.863  0.00  0.00    -0.001 C 
ATOM     23  C   UNL     1      34.825 -21.080 -19.071  0.00  0.00    +0.017 C 
ATOM     24  C   UNL     1      33.487 -19.403 -20.853  0.00  0.00    -0.001 C 
ATOM     25  C   UNL     1      33.421 -21.161 -19.169  0.00  0.00    +0.081 C 
ATOM     26  C   UNL     1      32.776 -20.312 -20.065  0.00  0.00    +0.019 C 
ATOM     27  C   UNL     1      35.475 -21.933 -18.169  0.00  0.00    +0.003 C 
ATOM     28  C   UNL     1      34.740 -22.827 -17.401  0.00  0.00    +0.021 C 
ATOM     29  C   UNL     1      33.370 -22.832 -17.566  0.00  0.00    +0.099 C 
ENDBRANCH  19  21
ENDBRANCH   1  19
TORSDOF 6
ENDMDL
MODEL 9
REMARK VINA RESULT:     -10.8      4.004      9.703
REMARK  Name = 17754438
REMARK  6 active torsions:
REMARK  status: ('A' for Active; 'I' for Inactive)
REMARK    1  A    between atoms: N_1  and  C_19
REMARK    2  A    between atoms: C_7  and  C_12
REMARK    3  A    between atoms: N_10  and  C_15
REMARK    4  A    between atoms: C_15  and  C_16
REMARK    5  A    between atoms: C_16  and  O_17
REMARK    6  A    between atoms: C_19  and  C_21
REMARK                            x       y       z     vdW  Elec       q    Type
REMARK                         _______ _______ _______ _____ _____    ______ ____
ROOT
ATOM      1  N   UNL     1      34.927 -21.234 -19.103  0.00  0.00    -0.163 N 
ATOM      2  N   UNL     1      34.659 -19.831 -21.086  0.00  0.00    -0.378 NA
ATOM      3  N   UNL     1      35.875 -21.413 -18.162  0.00  0.00    -0.033 NA
ATOM      4  N   UNL     1      37.283 -18.960 -20.222  0.00  0.00    -0.208 NA
ATOM      5  N   UNL     1      36.889 -20.594 -18.442  0.00  0.00    -0.086 NA
ATOM      6  C   UNL     1      35.309 -20.296 -20.009  0.00  0.00    +0.267 C 
ATOM      7  C   UNL     1      35.392 -18.893 -21.728  0.00  0.00    +0.140 C 
ATOM      8  C   UNL     1      36.559 -19.901 -19.570  0.00  0.00    +0.098 C 
ATOM      9  C   UNL     1      36.649 -18.475 -21.314  0.00  0.00    +0.195 C 
ENDROOT
BRANCH   7  12
ATOM     10  N   UNL     1      34.182 -16.874 -24.415  0.00  0.00    -0.208 N 
ATOM     11  N   UNL     1      33.637 -18.024 -24.849  0.00  0.00    -0.176 NA
ATOM     12  C   UNL     1      34.790 -18.326 -22.900  0.00  0.00    +0.064 C 
ATOM     13  C   UNL     1      34.883 -17.001 -23.251  0.00  0.00    +0.088 C 
ATOM     14  C   UNL     1      34.011 -18.907 -23.919  0.00  0.00    +0.121 C 
BRANCH  10  15
ATOM     15  C   UNL     1      33.995 -15.662 -25.175  0.00  0.00    +0.148 C 
BRANCH  15  16
ATOM     16  C   UNL     1      33.457 -14.518 -24.326  0.00  0.00    +0.161 C 
BRANCH  16  17
ATOM     17  O   UNL     1      32.475 -13.798 -25.060  0.00  0.00    -0.380 OA
ATOM     18  H   UNL     1      32.671 -13.858 -26.008  0.00  0.00    +0.211 HD
ENDBRANCH  16  17
ENDBRANCH  15  16
ENDBRANCH  10  15
ENDBRANCH   7  12
BRANCH   1  19
ATOM     19  C   UNL     1      33.679 -22.003 -19.063  0.00  0.00    +0.145 C 
BRANCH  19  21
ATOM     20  N   UNL     1      32.586 -23.916 -13.850  0.00  0.00    -0.244 NA
ATOM     21  C   UNL     1      33.381 -22.506 -17.691  0.00  0.00    -0.000 C 
ATOM     22  C   UNL     1      32.078 -22.478 -17.203  0.00  0.00    -0.001 C 
ATOM     23  C   UNL     1      31.793 -22.950 -15.910  0.00  0.00    +0.017 C 
ATOM     24  C   UNL     1      34.403 -23.004 -16.892  0.00  0.00    -0.001 C 
ATOM     25  C   UNL     1      32.825 -23.457 -15.093  0.00  0.00    +0.081 C 
ATOM     26  C   UNL     1      34.119 -23.473 -15.607  0.00  0.00    +0.019 C 
ATOM     27  C   UNL     1      30.490 -22.934 -15.394  0.00  0.00    +0.003 C 
ATOM     28  C   UNL     1      30.241 -23.406 -14.113  0.00  0.00    +0.021 C 
ATOM     29  C   UNL     1      31.315 -23.883 -13.390  0.00  0.00    +0.099 C 
ENDBRANCH  19  21
ENDBRANCH   1  19
TORSDOF 6
ENDMDL
