MODEL 1
REMARK VINA RESULT:     -12.3      0.000      0.000
REMARK  Name = 17748441
REMARK  5 active torsions:
REMARK  status: ('A' for Active; 'I' for Inactive)
REMARK    1  A    between atoms: C_2  and  N_10
REMARK    2  A    between atoms: C_3  and  O_24
REMARK    3  A    between atoms: C_12  and  C_16
REMARK    4  A    between atoms: C_16  and  C_18
REMARK    5  A    between atoms: O_24  and  C_27
REMARK                            x       y       z     vdW  Elec       q    Type
REMARK                         _______ _______ _______ _____ _____    ______ ____
ROOT
ATOM      1  F   UNL     1      31.160 -11.683 -20.233  0.00  0.00    -0.201 F 
ATOM      2  C   UNL     1      33.894 -13.738 -21.469  0.00  0.00    +0.054 C 
ATOM      3  C   UNL     1      32.560 -11.377 -22.123  0.00  0.00    +0.173 C 
ATOM      4  C   UNL     1      32.838 -13.290 -20.675  0.00  0.00    +0.047 C 
ATOM      5  C   UNL     1      34.281 -13.005 -22.591  0.00  0.00    +0.018 C 
ATOM      6  C   UNL     1      32.172 -12.109 -21.002  0.00  0.00    +0.176 C 
ATOM      7  C   UNL     1      33.614 -11.825 -22.918  0.00  0.00    +0.041 C 
ENDROOT
BRANCH   2  10
ATOM      8  O   UNL     1      35.909 -18.565 -22.962  0.00  0.00    -0.274 OA
ATOM      9  O   UNL     1      34.631 -16.091 -23.182  0.00  0.00    -0.252 OA
ATOM     10  N   UNL     1      34.570 -14.936 -21.138  0.00  0.00    -0.268 N 
ATOM     11  N   UNL     1      35.565 -17.006 -21.262  0.00  0.00    -0.239 N 
ATOM     12  C   UNL     1      36.028 -18.213 -21.792  0.00  0.00    +0.234 C 
ATOM     13  C   UNL     1      34.887 -16.003 -21.984  0.00  0.00    +0.310 C 
ATOM     14  H   UNL     1      34.850 -15.029 -20.198  0.00  0.00    +0.156 HD
ATOM     15  H   UNL     1      35.724 -16.843 -20.304  0.00  0.00    +0.159 HD
BRANCH  12  16
ATOM     16  C   UNL     1      36.710 -19.054 -20.729  0.00  0.00    +0.112 C 
BRANCH  16  18
ATOM     17  F   UNL     1      33.231 -22.686 -18.188  0.00  0.00    -0.204 F 
ATOM     18  C   UNL     1      35.780 -20.025 -20.049  0.00  0.00    -0.013 C 
ATOM     19  C   UNL     1      36.295 -21.014 -19.213  0.00  0.00    -0.001 C 
ATOM     20  C   UNL     1      34.403 -19.934 -20.256  0.00  0.00    -0.001 C 
ATOM     21  C   UNL     1      35.434 -21.914 -18.584  0.00  0.00    +0.029 C 
ATOM     22  C   UNL     1      33.542 -20.833 -19.629  0.00  0.00    +0.029 C 
ATOM     23  C   UNL     1      34.057 -21.823 -18.791  0.00  0.00    +0.140 C 
ENDBRANCH  16  18
ENDBRANCH  12  16
ENDBRANCH   2  10
BRANCH   3  24
ATOM     24  O   UNL     1      31.908 -10.226 -22.444  0.00  0.00    -0.451 OA
BRANCH  24  27
ATOM     25  N   UNL     1      33.786  -6.609 -21.517  0.00  0.00    -0.229 NA
ATOM     26  N   UNL     1      33.449  -7.045 -19.199  0.00  0.00    -0.343 N 
ATOM     27  C   UNL     1      32.530  -9.027 -22.136  0.00  0.00    +0.150 C 
ATOM     28  C   UNL     1      32.677  -8.637 -20.810  0.00  0.00    +0.071 C 
ATOM     29  C   UNL     1      33.011  -8.210 -23.153  0.00  0.00    +0.058 C 
ATOM     30  C   UNL     1      33.307  -7.429 -20.556  0.00  0.00    +0.128 C 
ATOM     31  C   UNL     1      33.626  -7.021 -22.794  0.00  0.00    +0.103 C 
ATOM     32  H   UNL     1      33.890  -6.195 -18.971  0.00  0.00    +0.144 HD
ATOM     33  H   UNL     1      33.106  -7.629 -18.484  0.00  0.00    +0.144 HD
ENDBRANCH  24  27
ENDBRANCH   3  24
TORSDOF 5
ENDMDL
MODEL 2
REMARK VINA RESULT:     -12.3      4.057     10.826
REMARK  Name = 17748441
REMARK  5 active torsions:
REMARK  status: ('A' for Active; 'I' for Inactive)
REMARK    1  A    between atoms: C_2  and  N_10
REMARK    2  A    between atoms: C_3  and  O_24
REMARK    3  A    between atoms: C_12  and  C_16
REMARK    4  A    between atoms: C_16  and  C_18
REMARK    5  A    between atoms: O_24  and  C_27
REMARK                            x       y       z     vdW  Elec       q    Type
REMARK                         _______ _______ _______ _____ _____    ______ ____
ROOT
ATOM      1  F   UNL     1      36.606 -22.248 -18.433  0.00  0.00    -0.201 F 
ATOM      2  C   UNL     1      34.523 -19.869 -20.232  0.00  0.00    +0.054 C 
ATOM      3  C   UNL     1      34.254 -22.216 -18.749  0.00  0.00    +0.173 C 
ATOM      4  C   UNL     1      35.652 -20.487 -19.692  0.00  0.00    +0.047 C 
ATOM      5  C   UNL     1      33.260 -20.426 -20.030  0.00  0.00    +0.018 C 
ATOM      6  C   UNL     1      35.517 -21.660 -18.951  0.00  0.00    +0.176 C 
ATOM      7  C   UNL     1      33.126 -21.600 -19.289  0.00  0.00    +0.041 C 
ENDROOT
BRANCH   2  10
ATOM      8  O   UNL     1      34.534 -17.323 -25.039  0.00  0.00    -0.274 OA
ATOM      9  O   UNL     1      34.340 -19.411 -23.194  0.00  0.00    -0.252 OA
ATOM     10  N   UNL     1      34.659 -18.679 -20.985  0.00  0.00    -0.268 N 
ATOM     11  N   UNL     1      34.761 -17.176 -22.723  0.00  0.00    -0.239 N 
ATOM     12  C   UNL     1      34.735 -16.664 -24.023  0.00  0.00    +0.234 C 
ATOM     13  C   UNL     1      34.563 -18.526 -22.371  0.00  0.00    +0.310 C 
ATOM     14  H   UNL     1      34.845 -17.860 -20.469  0.00  0.00    +0.156 HD
ATOM     15  H   UNL     1      34.934 -16.540 -21.991  0.00  0.00    +0.159 HD
BRANCH  12  16
ATOM     16  C   UNL     1      34.990 -15.168 -24.030  0.00  0.00    +0.112 C 
BRANCH  16  18
ATOM     17  F   UNL     1      32.203 -12.408 -19.985  0.00  0.00    -0.204 F 
ATOM     18  C   UNL     1      34.245 -14.431 -22.949  0.00  0.00    -0.013 C 
ATOM     19  C   UNL     1      33.118 -13.677 -23.270  0.00  0.00    -0.001 C 
ATOM     20  C   UNL     1      34.683 -14.502 -21.626  0.00  0.00    -0.001 C 
ATOM     21  C   UNL     1      32.427 -12.993 -22.268  0.00  0.00    +0.029 C 
ATOM     22  C   UNL     1      33.994 -13.819 -20.625  0.00  0.00    +0.029 C 
ATOM     23  C   UNL     1      32.865 -13.064 -20.946  0.00  0.00    +0.140 C 
ENDBRANCH  16  18
ENDBRANCH  12  16
ENDBRANCH   2  10
BRANCH   3  24
ATOM     24  O   UNL     1      34.123 -23.363 -18.027  0.00  0.00    -0.451 OA
BRANCH  24  27
ATOM     25  N   UNL     1      32.710 -23.036 -14.106  0.00  0.00    -0.229 NA
ATOM     26  N   UNL     1      34.956 -23.063 -13.311  0.00  0.00    -0.343 N 
ATOM     27  C   UNL     1      33.655 -23.255 -16.728  0.00  0.00    +0.150 C 
ATOM     28  C   UNL     1      34.550 -23.213 -15.664  0.00  0.00    +0.071 C 
ATOM     29  C   UNL     1      32.289 -23.187 -16.482  0.00  0.00    +0.058 C 
ATOM     30  C   UNL     1      34.031 -23.104 -14.384  0.00  0.00    +0.128 C 
ATOM     31  C   UNL     1      31.871 -23.079 -15.165  0.00  0.00    +0.103 C 
ATOM     32  H   UNL     1      34.632 -22.986 -12.385  0.00  0.00    +0.144 HD
ATOM     33  H   UNL     1      35.923 -23.111 -13.492  0.00  0.00    +0.144 HD
ENDBRANCH  24  27
ENDBRANCH   3  24
TORSDOF 5
ENDMDL
MODEL 3
REMARK VINA RESULT:     -11.9      5.498     12.665
REMARK  Name = 17748441
REMARK  5 active torsions:
REMARK  status: ('A' for Active; 'I' for Inactive)
REMARK    1  A    between atoms: C_2  and  N_10
REMARK    2  A    between atoms: C_3  and  O_24
REMARK    3  A    between atoms: C_12  and  C_16
REMARK    4  A    between atoms: C_16  and  C_18
REMARK    5  A    between atoms: O_24  and  C_27
REMARK                            x       y       z     vdW  Elec       q    Type
REMARK                         _______ _______ _______ _____ _____    ______ ____
ROOT
ATOM      1  F   UNL     1      38.017 -22.030 -15.583  0.00  0.00    -0.201 F 
ATOM      2  C   UNL     1      35.330 -21.719 -18.014  0.00  0.00    +0.054 C 
ATOM      3  C   UNL     1      35.819 -22.922 -15.545  0.00  0.00    +0.173 C 
ATOM      4  C   UNL     1      36.575 -21.574 -17.401  0.00  0.00    +0.047 C 
ATOM      5  C   UNL     1      34.330 -22.467 -17.392  0.00  0.00    +0.018 C 
ATOM      6  C   UNL     1      36.819 -22.175 -16.167  0.00  0.00    +0.176 C 
ATOM      7  C   UNL     1      34.575 -23.069 -16.158  0.00  0.00    +0.041 C 
ENDROOT
BRANCH   2  10
ATOM      8  O   UNL     1      36.819 -18.255 -21.935  0.00  0.00    -0.274 OA
ATOM      9  O   UNL     1      36.926 -19.680 -19.535  0.00  0.00    -0.252 OA
ATOM     10  N   UNL     1      35.081 -21.110 -19.266  0.00  0.00    -0.268 N 
ATOM     11  N   UNL     1      35.265 -19.808 -21.154  0.00  0.00    -0.239 N 
ATOM     12  C   UNL     1      35.775 -18.885 -22.071  0.00  0.00    +0.234 C 
ATOM     13  C   UNL     1      35.866 -20.160 -19.928  0.00  0.00    +0.310 C 
ATOM     14  H   UNL     1      34.256 -21.388 -19.726  0.00  0.00    +0.156 HD
ATOM     15  H   UNL     1      34.414 -20.249 -21.382  0.00  0.00    +0.159 HD
BRANCH  12  16
ATOM     16  C   UNL     1      34.867 -18.753 -23.280  0.00  0.00    +0.112 C 
BRANCH  16  18
ATOM     17  F   UNL     1      33.612 -13.409 -24.551  0.00  0.00    -0.204 F 
ATOM     18  C   UNL     1      34.532 -17.324 -23.619  0.00  0.00    -0.013 C 
ATOM     19  C   UNL     1      33.873 -17.028 -24.812  0.00  0.00    -0.001 C 
ATOM     20  C   UNL     1      34.880 -16.298 -22.741  0.00  0.00    -0.001 C 
ATOM     21  C   UNL     1      33.562 -15.705 -25.127  0.00  0.00    +0.029 C 
ATOM     22  C   UNL     1      34.570 -14.975 -23.056  0.00  0.00    +0.029 C 
ATOM     23  C   UNL     1      33.910 -14.678 -24.249  0.00  0.00    +0.140 C 
ENDBRANCH  16  18
ENDBRANCH  12  16
ENDBRANCH   2  10
BRANCH   3  24
ATOM     24  O   UNL     1      36.058 -23.511 -14.341  0.00  0.00    -0.451 OA
BRANCH  24  27
ATOM     25  N   UNL     1      38.168 -27.120 -14.329  0.00  0.00    -0.229 NA
ATOM     26  N   UNL     1      40.106 -25.967 -13.560  0.00  0.00    -0.343 N 
ATOM     27  C   UNL     1      36.758 -24.707 -14.337  0.00  0.00    +0.150 C 
ATOM     28  C   UNL     1      38.092 -24.734 -13.947  0.00  0.00    +0.071 C 
ATOM     29  C   UNL     1      36.128 -25.884 -14.723  0.00  0.00    +0.058 C 
ATOM     30  C   UNL     1      38.746 -25.955 -13.960  0.00  0.00    +0.128 C 
ATOM     31  C   UNL     1      36.870 -27.054 -14.701  0.00  0.00    +0.103 C 
ATOM     32  H   UNL     1      40.610 -26.812 -13.554  0.00  0.00    +0.144 HD
ATOM     33  H   UNL     1      40.546 -25.129 -13.288  0.00  0.00    +0.144 HD
ENDBRANCH  24  27
ENDBRANCH   3  24
TORSDOF 5
ENDMDL
MODEL 4
REMARK VINA RESULT:     -11.8      2.891     11.000
REMARK  Name = 17748441
REMARK  5 active torsions:
REMARK  status: ('A' for Active; 'I' for Inactive)
REMARK    1  A    between atoms: C_2  and  N_10
REMARK    2  A    between atoms: C_3  and  O_24
REMARK    3  A    between atoms: C_12  and  C_16
REMARK    4  A    between atoms: C_16  and  C_18
REMARK    5  A    between atoms: O_24  and  C_27
REMARK                            x       y       z     vdW  Elec       q    Type
REMARK                         _______ _______ _______ _____ _____    ______ ____
ROOT
ATOM      1  F   UNL     1      34.955 -18.713 -23.883  0.00  0.00    -0.201 F 
ATOM      2  C   UNL     1      34.765 -15.429 -22.331  0.00  0.00    +0.054 C 
ATOM      3  C   UNL     1      35.359 -18.064 -21.637  0.00  0.00    +0.173 C 
ATOM      4  C   UNL     1      34.710 -16.434 -23.297  0.00  0.00    +0.047 C 
ATOM      5  C   UNL     1      35.117 -15.742 -21.018  0.00  0.00    +0.018 C 
ATOM      6  C   UNL     1      35.008 -17.752 -22.950  0.00  0.00    +0.176 C 
ATOM      7  C   UNL     1      35.413 -17.060 -20.671  0.00  0.00    +0.041 C 
ENDROOT
BRANCH   2  10
ATOM      8  O   UNL     1      31.874 -10.892 -21.520  0.00  0.00    -0.274 OA
ATOM      9  O   UNL     1      32.773 -13.512 -21.158  0.00  0.00    -0.252 OA
ATOM     10  N   UNL     1      34.464 -14.092 -22.683  0.00  0.00    -0.268 N 
ATOM     11  N   UNL     1      33.530 -11.991 -22.741  0.00  0.00    -0.239 N 
ATOM     12  C   UNL     1      32.714 -10.904 -22.416  0.00  0.00    +0.234 C 
ATOM     13  C   UNL     1      33.519 -13.244 -22.096  0.00  0.00    +0.310 C 
ATOM     14  H   UNL     1      34.981 -13.714 -23.431  0.00  0.00    +0.156 HD
ATOM     15  H   UNL     1      34.165 -11.871 -23.485  0.00  0.00    +0.159 HD
BRANCH  12  16
ATOM     16  C   UNL     1      32.993  -9.717 -23.318  0.00  0.00    +0.112 C 
BRANCH  16  18
ATOM     17  F   UNL     1      31.661  -4.771 -20.970  0.00  0.00    -0.204 F 
ATOM     18  C   UNL     1      32.637  -8.395 -22.691  0.00  0.00    -0.013 C 
ATOM     19  C   UNL     1      33.540  -7.763 -21.836  0.00  0.00    -0.001 C 
ATOM     20  C   UNL     1      31.404  -7.801 -22.964  0.00  0.00    -0.001 C 
ATOM     21  C   UNL     1      33.210  -6.539 -21.254  0.00  0.00    +0.029 C 
ATOM     22  C   UNL     1      31.074  -6.578 -22.382  0.00  0.00    +0.029 C 
ATOM     23  C   UNL     1      31.977  -5.946 -21.528  0.00  0.00    +0.140 C 
ENDBRANCH  16  18
ENDBRANCH  12  16
ENDBRANCH   2  10
BRANCH   3  24
ATOM     24  O   UNL     1      35.647 -19.351 -21.298  0.00  0.00    -0.451 OA
BRANCH  24  27
ATOM     25  N   UNL     1      32.902 -21.383 -18.888  0.00  0.00    -0.229 NA
ATOM     26  N   UNL     1      34.706 -22.486 -17.789  0.00  0.00    -0.343 N 
ATOM     27  C   UNL     1      34.738 -20.025 -20.500  0.00  0.00    +0.150 C 
ATOM     28  C   UNL     1      35.184 -20.924 -19.538  0.00  0.00    +0.071 C 
ATOM     29  C   UNL     1      33.374 -19.804 -20.656  0.00  0.00    +0.058 C 
ATOM     30  C   UNL     1      34.234 -21.572 -18.765  0.00  0.00    +0.128 C 
ATOM     31  C   UNL     1      32.505 -20.502 -19.833  0.00  0.00    +0.103 C 
ATOM     32  H   UNL     1      34.066 -22.968 -17.218  0.00  0.00    +0.144 HD
ATOM     33  H   UNL     1      35.673 -22.638 -17.684  0.00  0.00    +0.144 HD
ENDBRANCH  24  27
ENDBRANCH   3  24
TORSDOF 5
ENDMDL
MODEL 5
REMARK VINA RESULT:     -11.7      4.716      7.687
REMARK  Name = 17748441
REMARK  5 active torsions:
REMARK  status: ('A' for Active; 'I' for Inactive)
REMARK    1  A    between atoms: C_2  and  N_10
REMARK    2  A    between atoms: C_3  and  O_24
REMARK    3  A    between atoms: C_12  and  C_16
REMARK    4  A    between atoms: C_16  and  C_18
REMARK    5  A    between atoms: O_24  and  C_27
REMARK                            x       y       z     vdW  Elec       q    Type
REMARK                         _______ _______ _______ _____ _____    ______ ____
ROOT
ATOM      1  F   UNL     1      37.943 -18.581 -21.208  0.00  0.00    -0.201 F 
ATOM      2  C   UNL     1      35.219 -20.513 -19.768  0.00  0.00    +0.054 C 
ATOM      3  C   UNL     1      35.671 -18.738 -21.872  0.00  0.00    +0.173 C 
ATOM      4  C   UNL     1      36.491 -19.978 -19.968  0.00  0.00    +0.047 C 
ATOM      5  C   UNL     1      34.172 -20.160 -20.620  0.00  0.00    +0.018 C 
ATOM      6  C   UNL     1      36.717 -19.091 -21.020  0.00  0.00    +0.176 C 
ATOM      7  C   UNL     1      34.398 -19.272 -21.672  0.00  0.00    +0.041 C 
ENDROOT
BRANCH   2  10
ATOM      8  O   UNL     1      36.775 -22.680 -15.027  0.00  0.00    -0.274 OA
ATOM      9  O   UNL     1      36.842 -21.060 -17.301  0.00  0.00    -0.252 OA
ATOM     10  N   UNL     1      34.989 -21.413 -18.701  0.00  0.00    -0.268 N 
ATOM     11  N   UNL     1      35.202 -22.609 -16.748  0.00  0.00    -0.239 N 
ATOM     12  C   UNL     1      35.729 -23.070 -15.538  0.00  0.00    +0.234 C 
ATOM     13  C   UNL     1      35.785 -21.625 -17.571  0.00  0.00    +0.310 C 
ATOM     14  H   UNL     1      34.168 -21.955 -18.762  0.00  0.00    +0.156 HD
ATOM     15  H   UNL     1      34.352 -23.004 -17.050  0.00  0.00    +0.159 HD
BRANCH  12  16
ATOM     16  C   UNL     1      34.839 -24.132 -14.920  0.00  0.00    +0.112 C 
BRANCH  16  18
ATOM     17  F   UNL     1      29.528 -22.414 -14.149  0.00  0.00    -0.204 F 
ATOM     18  C   UNL     1      33.419 -23.673 -14.714  0.00  0.00    -0.013 C 
ATOM     19  C   UNL     1      32.589 -23.462 -15.813  0.00  0.00    -0.001 C 
ATOM     20  C   UNL     1      32.935 -23.459 -13.423  0.00  0.00    -0.001 C 
ATOM     21  C   UNL     1      31.274 -23.036 -15.623  0.00  0.00    +0.029 C 
ATOM     22  C   UNL     1      31.621 -23.033 -13.232  0.00  0.00    +0.029 C 
ATOM     23  C   UNL     1      30.790 -22.822 -14.332  0.00  0.00    +0.140 C 
ENDBRANCH  16  18
ENDBRANCH  12  16
ENDBRANCH   2  10
BRANCH   3  24
ATOM     24  O   UNL     1      35.891 -17.870 -22.897  0.00  0.00    -0.451 OA
BRANCH  24  27
ATOM     25  N   UNL     1      33.765 -14.271 -22.884  0.00  0.00    -0.229 NA
ATOM     26  N   UNL     1      33.032 -14.713 -25.108  0.00  0.00    -0.343 N 
ATOM     27  C   UNL     1      35.187 -16.677 -22.894  0.00  0.00    +0.150 C 
ATOM     28  C   UNL     1      34.458 -16.293 -24.013  0.00  0.00    +0.071 C 
ATOM     29  C   UNL     1      35.205 -15.860 -21.769  0.00  0.00    +0.058 C 
ATOM     30  C   UNL     1      33.770 -15.091 -23.959  0.00  0.00    +0.128 C 
ATOM     31  C   UNL     1      34.484 -14.678 -21.814  0.00  0.00    +0.103 C 
ATOM     32  H   UNL     1      32.528 -13.868 -25.113  0.00  0.00    +0.144 HD
ATOM     33  H   UNL     1      33.023 -15.297 -25.901  0.00  0.00    +0.144 HD
ENDBRANCH  24  27
ENDBRANCH   3  24
TORSDOF 5
ENDMDL
MODEL 6
REMARK VINA RESULT:     -11.6      4.202      6.717
REMARK  Name = 17748441
REMARK  5 active torsions:
REMARK  status: ('A' for Active; 'I' for Inactive)
REMARK    1  A    between atoms: C_2  and  N_10
REMARK    2  A    between atoms: C_3  and  O_24
REMARK    3  A    between atoms: C_12  and  C_16
REMARK    4  A    between atoms: C_16  and  C_18
REMARK    5  A    between atoms: O_24  and  C_27
REMARK                            x       y       z     vdW  Elec       q    Type
REMARK                         _______ _______ _______ _____ _____    ______ ____
ROOT
ATOM      1  F   UNL     1      33.510 -18.617 -24.398  0.00  0.00    -0.201 F 
ATOM      2  C   UNL     1      34.804 -19.392 -21.088  0.00  0.00    +0.054 C 
ATOM      3  C   UNL     1      35.177 -17.515 -23.118  0.00  0.00    +0.173 C 
ATOM      4  C   UNL     1      34.051 -19.473 -22.260  0.00  0.00    +0.047 C 
ATOM      5  C   UNL     1      35.743 -18.372 -20.933  0.00  0.00    +0.018 C 
ATOM      6  C   UNL     1      34.238 -18.534 -23.275  0.00  0.00    +0.176 C 
ATOM      7  C   UNL     1      35.930 -17.435 -21.948  0.00  0.00    +0.041 C 
ENDROOT
BRANCH   2  10
ATOM      8  O   UNL     1      31.492 -22.031 -17.674  0.00  0.00    -0.274 OA
ATOM      9  O   UNL     1      32.299 -20.264 -19.681  0.00  0.00    -0.252 OA
ATOM     10  N   UNL     1      34.616 -20.343 -20.058  0.00  0.00    -0.268 N 
ATOM     11  N   UNL     1      33.662 -21.694 -18.460  0.00  0.00    -0.239 N 
ATOM     12  C   UNL     1      32.693 -22.287 -17.646  0.00  0.00    +0.234 C 
ATOM     13  C   UNL     1      33.417 -20.710 -19.438  0.00  0.00    +0.310 C 
ATOM     14  H   UNL     1      35.428 -20.802 -19.740  0.00  0.00    +0.156 HD
ATOM     15  H   UNL     1      34.594 -21.988 -18.338  0.00  0.00    +0.159 HD
BRANCH  12  16
ATOM     16  C   UNL     1      33.311 -23.304 -16.706  0.00  0.00    +0.112 C 
BRANCH  16  18
ATOM     17  F   UNL     1      30.385 -24.012 -11.943  0.00  0.00    -0.204 F 
ATOM     18  C   UNL     1      32.529 -23.493 -15.433  0.00  0.00    -0.013 C 
ATOM     19  C   UNL     1      33.153 -23.315 -14.199  0.00  0.00    -0.001 C 
ATOM     20  C   UNL     1      31.181 -23.847 -15.488  0.00  0.00    -0.001 C 
ATOM     21  C   UNL     1      32.428 -23.490 -13.019  0.00  0.00    +0.029 C 
ATOM     22  C   UNL     1      30.457 -24.023 -14.309  0.00  0.00    +0.029 C 
ATOM     23  C   UNL     1      31.080 -23.844 -13.074  0.00  0.00    +0.140 C 
ENDBRANCH  16  18
ENDBRANCH  12  16
ENDBRANCH   2  10
BRANCH   3  24
ATOM     24  O   UNL     1      35.361 -16.601 -24.110  0.00  0.00    -0.451 OA
BRANCH  24  27
ATOM     25  N   UNL     1      32.851 -13.258 -24.159  0.00  0.00    -0.229 NA
ATOM     26  N   UNL     1      33.239 -12.952 -21.828  0.00  0.00    -0.343 N 
ATOM     27  C   UNL     1      34.529 -15.493 -24.126  0.00  0.00    +0.150 C 
ATOM     28  C   UNL     1      34.301 -14.774 -22.958  0.00  0.00    +0.071 C 
ATOM     29  C   UNL     1      33.919 -15.096 -25.310  0.00  0.00    +0.058 C 
ATOM     30  C   UNL     1      33.461 -13.674 -23.027  0.00  0.00    +0.128 C 
ATOM     31  C   UNL     1      33.097 -13.981 -25.275  0.00  0.00    +0.103 C 
ATOM     32  H   UNL     1      32.650 -12.163 -21.831  0.00  0.00    +0.144 HD
ATOM     33  H   UNL     1      33.674 -13.239 -20.993  0.00  0.00    +0.144 HD
ENDBRANCH  24  27
ENDBRANCH   3  24
TORSDOF 5
ENDMDL
MODEL 7
REMARK VINA RESULT:     -11.6      3.154     11.370
REMARK  Name = 17748441
REMARK  5 active torsions:
REMARK  status: ('A' for Active; 'I' for Inactive)
REMARK    1  A    between atoms: C_2  and  N_10
REMARK    2  A    between atoms: C_3  and  O_24
REMARK    3  A    between atoms: C_12  and  C_16
REMARK    4  A    between atoms: C_16  and  C_18
REMARK    5  A    between atoms: O_24  and  C_27
REMARK                            x       y       z     vdW  Elec       q    Type
REMARK                         _______ _______ _______ _____ _____    ______ ____
ROOT
ATOM      1  F   UNL     1      34.051 -16.387 -25.193  0.00  0.00    -0.201 F 
ATOM      2  C   UNL     1      33.625 -13.800 -22.672  0.00  0.00    +0.054 C 
ATOM      3  C   UNL     1      34.947 -16.234 -23.001  0.00  0.00    +0.173 C 
ATOM      4  C   UNL     1      33.506 -14.502 -23.871  0.00  0.00    +0.047 C 
ATOM      5  C   UNL     1      34.404 -14.317 -21.636  0.00  0.00    +0.018 C 
ATOM      6  C   UNL     1      34.168 -15.718 -24.036  0.00  0.00    +0.176 C 
ATOM      7  C   UNL     1      35.065 -15.534 -21.801  0.00  0.00    +0.041 C 
ENDROOT
BRANCH   2  10
ATOM      8  O   UNL     1      33.472  -8.403 -23.338  0.00  0.00    -0.274 OA
ATOM      9  O   UNL     1      34.438 -11.021 -23.467  0.00  0.00    -0.252 OA
ATOM     10  N   UNL     1      32.954 -12.566 -22.503  0.00  0.00    -0.268 N 
ATOM     11  N   UNL     1      32.422 -10.329 -22.544  0.00  0.00    -0.239 N 
ATOM     12  C   UNL     1      32.525  -8.956 -22.784  0.00  0.00    +0.234 C 
ATOM     13  C   UNL     1      33.385 -11.295 -22.897  0.00  0.00    +0.310 C 
ATOM     14  H   UNL     1      32.078 -12.608 -22.054  0.00  0.00    +0.156 HD
ATOM     15  H   UNL     1      31.608 -10.648 -22.089  0.00  0.00    +0.159 HD
BRANCH  12  16
ATOM     16  C   UNL     1      31.306  -8.214 -22.269  0.00  0.00    +0.112 C 
BRANCH  16  18
ATOM     17  F   UNL     1      31.749  -2.615 -22.717  0.00  0.00    -0.204 F 
ATOM     18  C   UNL     1      31.424  -6.718 -22.389  0.00  0.00    -0.013 C 
ATOM     19  C   UNL     1      31.125  -6.089 -23.597  0.00  0.00    -0.001 C 
ATOM     20  C   UNL     1      31.833  -5.960 -21.291  0.00  0.00    -0.001 C 
ATOM     21  C   UNL     1      31.235  -4.703 -23.708  0.00  0.00    +0.029 C 
ATOM     22  C   UNL     1      31.944  -4.574 -21.402  0.00  0.00    +0.029 C 
ATOM     23  C   UNL     1      31.644  -3.945 -22.610  0.00  0.00    +0.140 C 
ENDBRANCH  16  18
ENDBRANCH  12  16
ENDBRANCH   2  10
BRANCH   3  24
ATOM     24  O   UNL     1      35.591 -17.423 -23.161  0.00  0.00    -0.451 OA
BRANCH  24  27
ATOM     25  N   UNL     1      35.824 -19.968 -19.854  0.00  0.00    -0.229 NA
ATOM     26  N   UNL     1      33.494 -20.427 -20.062  0.00  0.00    -0.343 N 
ATOM     27  C   UNL     1      35.668 -18.266 -22.065  0.00  0.00    +0.150 C 
ATOM     28  C   UNL     1      34.532 -18.927 -21.612  0.00  0.00    +0.071 C 
ATOM     29  C   UNL     1      36.881 -18.455 -21.414  0.00  0.00    +0.058 C 
ATOM     30  C   UNL     1      34.662 -19.760 -20.512  0.00  0.00    +0.128 C 
ATOM     31  C   UNL     1      36.906 -19.309 -20.323  0.00  0.00    +0.103 C 
ATOM     32  H   UNL     1      33.540 -21.028 -19.284  0.00  0.00    +0.144 HD
ATOM     33  H   UNL     1      32.638 -20.288 -20.528  0.00  0.00    +0.144 HD
ENDBRANCH  24  27
ENDBRANCH   3  24
TORSDOF 5
ENDMDL
MODEL 8
REMARK VINA RESULT:     -11.6      3.033     11.207
REMARK  Name = 17748441
REMARK  5 active torsions:
REMARK  status: ('A' for Active; 'I' for Inactive)
REMARK    1  A    between atoms: C_2  and  N_10
REMARK    2  A    between atoms: C_3  and  O_24
REMARK    3  A    between atoms: C_12  and  C_16
REMARK    4  A    between atoms: C_16  and  C_18
REMARK    5  A    between atoms: O_24  and  C_27
REMARK                            x       y       z     vdW  Elec       q    Type
REMARK                         _______ _______ _______ _____ _____    ______ ____
ROOT
ATOM      1  F   UNL     1      35.253 -16.896 -24.020  0.00  0.00    -0.201 F 
ATOM      2  C   UNL     1      34.048 -14.454 -21.609  0.00  0.00    +0.054 C 
ATOM      3  C   UNL     1      35.460 -16.859 -21.657  0.00  0.00    +0.173 C 
ATOM      4  C   UNL     1      34.304 -15.089 -22.824  0.00  0.00    +0.047 C 
ATOM      5  C   UNL     1      34.499 -15.023 -20.418  0.00  0.00    +0.018 C 
ATOM      6  C   UNL     1      35.010 -16.291 -22.848  0.00  0.00    +0.176 C 
ATOM      7  C   UNL     1      35.204 -16.226 -20.442  0.00  0.00    +0.041 C 
ENDROOT
BRANCH   2  10
ATOM      8  O   UNL     1      33.229  -9.442 -23.558  0.00  0.00    -0.274 OA
ATOM      9  O   UNL     1      34.368 -11.977 -23.276  0.00  0.00    -0.252 OA
ATOM     10  N   UNL     1      33.332 -13.234 -21.584  0.00  0.00    -0.268 N 
ATOM     11  N   UNL     1      32.602 -11.102 -22.045  0.00  0.00    -0.239 N 
ATOM     12  C   UNL     1      32.512  -9.843 -22.646  0.00  0.00    +0.234 C 
ATOM     13  C   UNL     1      33.527 -12.108 -22.390  0.00  0.00    +0.310 C 
ATOM     14  H   UNL     1      32.609 -13.171 -20.917  0.00  0.00    +0.156 HD
ATOM     15  H   UNL     1      31.967 -11.303 -21.320  0.00  0.00    +0.159 HD
BRANCH  12  16
ATOM     16  C   UNL     1      31.403  -9.016 -22.024  0.00  0.00    +0.112 C 
BRANCH  16  18
ATOM     17  F   UNL     1      32.120  -3.466 -22.686  0.00  0.00    -0.204 F 
ATOM     18  C   UNL     1      31.595  -7.533 -22.201  0.00  0.00    -0.013 C 
ATOM     19  C   UNL     1      32.395  -6.821 -21.307  0.00  0.00    -0.001 C 
ATOM     20  C   UNL     1      30.973  -6.870 -23.259  0.00  0.00    -0.001 C 
ATOM     21  C   UNL     1      32.572  -5.447 -21.471  0.00  0.00    +0.029 C 
ATOM     22  C   UNL     1      31.150  -5.496 -23.423  0.00  0.00    +0.029 C 
ATOM     23  C   UNL     1      31.950  -4.784 -22.529  0.00  0.00    +0.140 C 
ENDBRANCH  16  18
ENDBRANCH  12  16
ENDBRANCH   2  10
BRANCH   3  24
ATOM     24  O   UNL     1      36.147 -18.034 -21.680  0.00  0.00    -0.451 OA
BRANCH  24  27
ATOM     25  N   UNL     1      34.756 -21.148 -19.263  0.00  0.00    -0.229 NA
ATOM     26  N   UNL     1      32.528 -20.673 -19.959  0.00  0.00    -0.343 N 
ATOM     27  C   UNL     1      35.686 -19.065 -20.879  0.00  0.00    +0.150 C 
ATOM     28  C   UNL     1      34.327 -19.352 -20.822  0.00  0.00    +0.071 C 
ATOM     29  C   UNL     1      36.581 -19.819 -20.128  0.00  0.00    +0.058 C 
ATOM     30  C   UNL     1      33.917 -20.394 -20.006  0.00  0.00    +0.128 C 
ATOM     31  C   UNL     1      36.070 -20.841 -19.343  0.00  0.00    +0.103 C 
ATOM     32  H   UNL     1      32.192 -21.404 -19.393  0.00  0.00    +0.144 HD
ATOM     33  H   UNL     1      31.899 -20.135 -20.494  0.00  0.00    +0.144 HD
ENDBRANCH  24  27
ENDBRANCH   3  24
TORSDOF 5
ENDMDL
MODEL 9
REMARK VINA RESULT:     -11.6      4.487      7.567
REMARK  Name = 17748441
REMARK  5 active torsions:
REMARK  status: ('A' for Active; 'I' for Inactive)
REMARK    1  A    between atoms: C_2  and  N_10
REMARK    2  A    between atoms: C_3  and  O_24
REMARK    3  A    between atoms: C_12  and  C_16
REMARK    4  A    between atoms: C_16  and  C_18
REMARK    5  A    between atoms: O_24  and  C_27
REMARK                            x       y       z     vdW  Elec       q    Type
REMARK                         _______ _______ _______ _____ _____    ______ ____
ROOT
ATOM      1  F   UNL     1      33.299 -19.443 -22.246  0.00  0.00    -0.201 F 
ATOM      2  C   UNL     1      36.279 -19.613 -20.168  0.00  0.00    +0.054 C 
ATOM      3  C   UNL     1      35.454 -18.515 -22.595  0.00  0.00    +0.173 C 
ATOM      4  C   UNL     1      34.971 -19.805 -20.612  0.00  0.00    +0.047 C 
ATOM      5  C   UNL     1      37.175 -18.871 -20.938  0.00  0.00    +0.018 C 
ATOM      6  C   UNL     1      34.558 -19.256 -21.826  0.00  0.00    +0.176 C 
ATOM      7  C   UNL     1      36.762 -18.323 -22.152  0.00  0.00    +0.041 C 
ENDROOT
BRANCH   2  10
ATOM      8  O   UNL     1      35.636 -23.289 -16.210  0.00  0.00    -0.274 OA
ATOM      9  O   UNL     1      35.154 -21.906 -18.588  0.00  0.00    -0.252 OA
ATOM     10  N   UNL     1      36.698 -20.170 -18.937  0.00  0.00    -0.268 N 
ATOM     11  N   UNL     1      36.849 -21.486 -17.056  0.00  0.00    -0.239 N 
ATOM     12  C   UNL     1      36.558 -22.484 -16.122  0.00  0.00    +0.234 C 
ATOM     13  C   UNL     1      36.131 -21.245 -18.245  0.00  0.00    +0.310 C 
ATOM     14  H   UNL     1      37.484 -19.749 -18.517  0.00  0.00    +0.156 HD
ATOM     15  H   UNL     1      37.619 -20.901 -16.867  0.00  0.00    +0.159 HD
BRANCH  12  16
ATOM     16  C   UNL     1      37.536 -22.453 -14.962  0.00  0.00    +0.112 C 
BRANCH  16  18
ATOM     17  F   UNL     1      37.030 -26.867 -11.496  0.00  0.00    -0.204 F 
ATOM     18  C   UNL     1      37.400 -23.633 -14.036  0.00  0.00    -0.013 C 
ATOM     19  C   UNL     1      36.534 -23.567 -12.946  0.00  0.00    -0.001 C 
ATOM     20  C   UNL     1      38.142 -24.792 -14.269  0.00  0.00    -0.001 C 
ATOM     21  C   UNL     1      36.408 -24.660 -12.088  0.00  0.00    +0.029 C 
ATOM     22  C   UNL     1      38.017 -25.883 -13.410  0.00  0.00    +0.029 C 
ATOM     23  C   UNL     1      37.150 -25.818 -12.320  0.00  0.00    +0.140 C 
ENDBRANCH  16  18
ENDBRANCH  12  16
ENDBRANCH   2  10
BRANCH   3  24
ATOM     24  O   UNL     1      35.053 -17.980 -23.781  0.00  0.00    -0.451 OA
BRANCH  24  27
ATOM     25  N   UNL     1      33.665 -14.037 -23.765  0.00  0.00    -0.229 NA
ATOM     26  N   UNL     1      34.635 -13.721 -21.611  0.00  0.00    -0.343 N 
ATOM     27  C   UNL     1      34.593 -16.674 -23.775  0.00  0.00    +0.150 C 
ATOM     28  C   UNL     1      34.848 -15.848 -22.686  0.00  0.00    +0.071 C 
ATOM     29  C   UNL     1      33.874 -16.182 -24.859  0.00  0.00    +0.058 C 
ATOM     30  C   UNL     1      34.366 -14.550 -22.730  0.00  0.00    +0.128 C 
ATOM     31  C   UNL     1      33.436 -14.869 -24.806  0.00  0.00    +0.103 C 
ATOM     32  H   UNL     1      34.312 -12.791 -21.599  0.00  0.00    +0.144 HD
ATOM     33  H   UNL     1      35.144 -14.075 -20.847  0.00  0.00    +0.144 HD
ENDBRANCH  24  27
ENDBRANCH   3  24
TORSDOF 5
ENDMDL
