MODEL 1
REMARK VINA RESULT:     -11.2      0.000      0.000
REMARK  Name = 24963036
REMARK  7 active torsions:
REMARK  status: ('A' for Active; 'I' for Inactive)
REMARK    1  A    between atoms: N_2  and  C_20
REMARK    2  A    between atoms: C_3  and  C_7
REMARK    3  A    between atoms: C_11  and  C_12
REMARK    4  A    between atoms: C_12  and  O_13
REMARK    5  A    between atoms: O_13  and  C_14
REMARK    6  A    between atoms: C_20  and  C_21
REMARK    7  A    between atoms: C_26  and  C_29
REMARK                            x       y       z     vdW  Elec       q    Type
REMARK                         _______ _______ _______ _____ _____    ______ ____
ROOT
ATOM      1  O   UNL     1      35.003 -23.811 -12.286  0.00  0.00    -0.273 OA
ATOM      2  N   UNL     1      33.448 -24.906 -13.629  0.00  0.00    -0.299 N 
ATOM      3  C   UNL     1      34.713 -24.461 -13.287  0.00  0.00    +0.241 C 
ATOM      4  H   UNL     1      33.341 -25.421 -14.461  0.00  0.00    +0.150 HD
ENDROOT
BRANCH   3   7
ATOM      5  O   UNL     1      34.297 -23.509 -16.342  0.00  0.00    -0.272 OA
ATOM      6  N   UNL     1      36.174 -23.689 -14.999  0.00  0.00    -0.271 N 
ATOM      7  C   UNL     1      35.752 -24.885 -14.282  0.00  0.00    +0.152 C 
ATOM      8  C   UNL     1      37.016 -25.393 -13.599  0.00  0.00    +0.031 C 
ATOM      9  C   UNL     1      37.831 -24.123 -13.370  0.00  0.00    +0.024 C 
ATOM     10  C   UNL     1      37.518 -23.281 -14.598  0.00  0.00    +0.094 C 
ATOM     11  C   UNL     1      35.431 -23.138 -16.032  0.00  0.00    +0.256 C 
BRANCH  11  12
ATOM     12  C   UNL     1      36.094 -22.010 -16.781  0.00  0.00    +0.227 C 
BRANCH  12  13
ATOM     13  O   UNL     1      35.814 -22.212 -18.144  0.00  0.00    -0.347 OA
BRANCH  13  14
ATOM     14  C   UNL     1      35.143 -21.099 -18.723  0.00  0.00    +0.116 C 
ATOM     15  C   UNL     1      35.979 -20.538 -19.873  0.00  0.00    +0.030 C 
ATOM     16  C   UNL     1      33.754 -21.526 -19.195  0.00  0.00    +0.030 C 
ATOM     17  C   UNL     1      35.258 -19.402 -20.591  0.00  0.00    +0.002 C 
ATOM     18  C   UNL     1      33.031 -20.390 -19.912  0.00  0.00    +0.002 C 
ATOM     19  C   UNL     1      33.868 -19.828 -21.059  0.00  0.00    +0.000 C 
ENDBRANCH  13  14
ENDBRANCH  12  13
ENDBRANCH  11  12
ENDBRANCH   3   7
BRANCH   2  20
ATOM     20  C   UNL     1      32.276 -24.650 -12.823  0.00  0.00    +0.116 C 
BRANCH  20  21
ATOM     21  C   UNL     1      31.103 -24.221 -13.656  0.00  0.00    -0.003 C 
ATOM     22  C   UNL     1      30.094 -25.135 -13.961  0.00  0.00    -0.003 C 
ATOM     23  C   UNL     1      31.023 -22.911 -14.128  0.00  0.00    -0.003 C 
ATOM     24  C   UNL     1      29.004 -24.738 -14.737  0.00  0.00    +0.002 C 
ATOM     25  C   UNL     1      29.934 -22.514 -14.903  0.00  0.00    +0.002 C 
ATOM     26  C   UNL     1      28.925 -23.427 -15.208  0.00  0.00    +0.031 C 
BRANCH  26  29
ATOM     27  N   UNL     1      26.795 -22.184 -15.501  0.00  0.00    -0.343 N 
ATOM     28  N   UNL     1      27.686 -23.427 -17.267  0.00  0.00    -0.285 NA
ATOM     29  C   UNL     1      27.790 -23.013 -16.017  0.00  0.00    +0.117 C 
ATOM     30  H   UNL     1      26.035 -21.916 -16.067  0.00  0.00    +0.144 HD
ATOM     31  H   UNL     1      26.853 -21.867 -14.570  0.00  0.00    +0.144 HD
ATOM     32  H   UNL     1      26.919 -23.148 -17.817  0.00  0.00    +0.188 HD
ENDBRANCH  26  29
ENDBRANCH  20  21
ENDBRANCH   2  20
TORSDOF 7
ENDMDL
MODEL 2
REMARK VINA RESULT:     -10.5      7.757     11.738
REMARK  Name = 24963036
REMARK  7 active torsions:
REMARK  status: ('A' for Active; 'I' for Inactive)
REMARK    1  A    between atoms: N_2  and  C_20
REMARK    2  A    between atoms: C_3  and  C_7
REMARK    3  A    between atoms: C_11  and  C_12
REMARK    4  A    between atoms: C_12  and  O_13
REMARK    5  A    between atoms: O_13  and  C_14
REMARK    6  A    between atoms: C_20  and  C_21
REMARK    7  A    between atoms: C_26  and  C_29
REMARK                            x       y       z     vdW  Elec       q    Type
REMARK                         _______ _______ _______ _____ _____    ______ ____
ROOT
ATOM      1  O   UNL     1      35.682 -14.893 -22.855  0.00  0.00    -0.273 OA
ATOM      2  N   UNL     1      34.793 -17.042 -22.758  0.00  0.00    -0.299 N 
ATOM      3  C   UNL     1      34.765 -15.688 -23.044  0.00  0.00    +0.241 C 
ATOM      4  H   UNL     1      33.992 -17.579 -22.956  0.00  0.00    +0.150 HD
ENDROOT
BRANCH   3   7
ATOM      5  O   UNL     1      32.856 -13.785 -21.271  0.00  0.00    -0.272 OA
ATOM      6  N   UNL     1      33.379 -13.816 -23.525  0.00  0.00    -0.271 N 
ATOM      7  C   UNL     1      33.465 -15.264 -23.658  0.00  0.00    +0.152 C 
ATOM      8  C   UNL     1      33.438 -15.518 -25.160  0.00  0.00    +0.031 C 
ATOM      9  C   UNL     1      34.064 -14.254 -25.745  0.00  0.00    +0.024 C 
ATOM     10  C   UNL     1      33.569 -13.157 -24.815  0.00  0.00    +0.094 C 
ATOM     11  C   UNL     1      33.007 -13.196 -22.343  0.00  0.00    +0.256 C 
BRANCH  11  12
ATOM     12  C   UNL     1      32.798 -11.705 -22.428  0.00  0.00    +0.227 C 
BRANCH  12  13
ATOM     13  O   UNL     1      31.814 -11.381 -21.476  0.00  0.00    -0.347 OA
BRANCH  13  14
ATOM     14  C   UNL     1      31.723  -9.979 -21.256  0.00  0.00    +0.116 C 
ATOM     15  C   UNL     1      31.936  -9.677 -19.773  0.00  0.00    +0.030 C 
ATOM     16  C   UNL     1      32.747  -9.255 -22.129  0.00  0.00    +0.030 C 
ATOM     17  C   UNL     1      31.944  -8.176 -19.500  0.00  0.00    +0.002 C 
ATOM     18  C   UNL     1      32.755  -7.753 -21.858  0.00  0.00    +0.002 C 
ATOM     19  C   UNL     1      32.965  -7.453 -20.376  0.00  0.00    +0.000 C 
ENDBRANCH  13  14
ENDBRANCH  12  13
ENDBRANCH  11  12
ENDBRANCH   3   7
BRANCH   2  20
ATOM     20  C   UNL     1      35.941 -17.705 -22.183  0.00  0.00    +0.116 C 
BRANCH  20  21
ATOM     21  C   UNL     1      35.541 -18.805 -21.242  0.00  0.00    -0.003 C 
ATOM     22  C   UNL     1      34.204 -19.194 -21.153  0.00  0.00    -0.003 C 
ATOM     23  C   UNL     1      36.505 -19.437 -20.457  0.00  0.00    -0.003 C 
ATOM     24  C   UNL     1      33.832 -20.216 -20.279  0.00  0.00    +0.002 C 
ATOM     25  C   UNL     1      36.133 -20.458 -19.583  0.00  0.00    +0.002 C 
ATOM     26  C   UNL     1      34.797 -20.847 -19.493  0.00  0.00    +0.031 C 
BRANCH  26  29
ATOM     27  N   UNL     1      33.111 -22.421 -18.572  0.00  0.00    -0.343 N 
ATOM     28  N   UNL     1      35.293 -22.411 -17.738  0.00  0.00    -0.285 NA
ATOM     29  C   UNL     1      34.409 -21.911 -18.582  0.00  0.00    +0.117 C 
ATOM     30  H   UNL     1      32.870 -23.143 -17.947  0.00  0.00    +0.144 HD
ATOM     31  H   UNL     1      32.436 -22.060 -19.192  0.00  0.00    +0.144 HD
ATOM     32  H   UNL     1      35.033 -23.132 -17.120  0.00  0.00    +0.188 HD
ENDBRANCH  26  29
ENDBRANCH  20  21
ENDBRANCH   2  20
TORSDOF 7
ENDMDL
MODEL 3
REMARK VINA RESULT:     -10.3      8.672     12.498
REMARK  Name = 24963036
REMARK  7 active torsions:
REMARK  status: ('A' for Active; 'I' for Inactive)
REMARK    1  A    between atoms: N_2  and  C_20
REMARK    2  A    between atoms: C_3  and  C_7
REMARK    3  A    between atoms: C_11  and  C_12
REMARK    4  A    between atoms: C_12  and  O_13
REMARK    5  A    between atoms: O_13  and  C_14
REMARK    6  A    between atoms: C_20  and  C_21
REMARK    7  A    between atoms: C_26  and  C_29
REMARK                            x       y       z     vdW  Elec       q    Type
REMARK                         _______ _______ _______ _____ _____    ______ ____
ROOT
ATOM      1  O   UNL     1      33.556 -14.719 -23.557  0.00  0.00    -0.273 OA
ATOM      2  N   UNL     1      35.082 -15.719 -22.111  0.00  0.00    -0.299 N 
ATOM      3  C   UNL     1      34.274 -14.689 -22.561  0.00  0.00    +0.241 C 
ATOM      4  H   UNL     1      35.614 -15.575 -21.295  0.00  0.00    +0.150 HD
ENDROOT
BRANCH   3   7
ATOM      5  O   UNL     1      34.719 -11.827 -23.983  0.00  0.00    -0.272 OA
ATOM      6  N   UNL     1      33.403 -12.504 -22.203  0.00  0.00    -0.271 N 
ATOM      7  C   UNL     1      34.337 -13.486 -21.669  0.00  0.00    +0.152 C 
ATOM      8  C   UNL     1      33.819 -13.792 -20.268  0.00  0.00    +0.031 C 
ATOM      9  C   UNL     1      32.315 -13.557 -20.388  0.00  0.00    +0.024 C 
ATOM     10  C   UNL     1      32.220 -12.386 -21.355  0.00  0.00    +0.094 C 
ATOM     11  C   UNL     1      33.709 -11.698 -23.289  0.00  0.00    +0.256 C 
BRANCH  11  12
ATOM     12  C   UNL     1      32.703 -10.619 -23.600  0.00  0.00    +0.227 C 
BRANCH  12  13
ATOM     13  O   UNL     1      33.316  -9.393 -23.282  0.00  0.00    -0.347 OA
BRANCH  13  14
ATOM     14  C   UNL     1      32.507  -8.597 -22.425  0.00  0.00    +0.116 C 
ATOM     15  C   UNL     1      33.399  -7.765 -21.505  0.00  0.00    +0.030 C 
ATOM     16  C   UNL     1      31.586  -7.713 -23.264  0.00  0.00    +0.030 C 
ATOM     17  C   UNL     1      32.580  -6.820 -20.631  0.00  0.00    +0.002 C 
ATOM     18  C   UNL     1      30.765  -6.768 -22.391  0.00  0.00    +0.002 C 
ATOM     19  C   UNL     1      31.657  -5.939 -21.470  0.00  0.00    +0.000 C 
ENDBRANCH  13  14
ENDBRANCH  12  13
ENDBRANCH  11  12
ENDBRANCH   3   7
BRANCH   2  20
ATOM     20  C   UNL     1      35.182 -16.996 -22.781  0.00  0.00    +0.116 C 
BRANCH  20  21
ATOM     21  C   UNL     1      35.336 -18.129 -21.809  0.00  0.00    -0.003 C 
ATOM     22  C   UNL     1      34.271 -19.002 -21.582  0.00  0.00    -0.003 C 
ATOM     23  C   UNL     1      36.541 -18.309 -21.131  0.00  0.00    -0.003 C 
ATOM     24  C   UNL     1      34.413 -20.056 -20.678  0.00  0.00    +0.002 C 
ATOM     25  C   UNL     1      36.684 -19.362 -20.228  0.00  0.00    +0.002 C 
ATOM     26  C   UNL     1      35.620 -20.235 -20.001  0.00  0.00    +0.031 C 
BRANCH  26  29
ATOM     27  N   UNL     1      36.675 -21.264 -18.003  0.00  0.00    -0.343 N 
ATOM     28  N   UNL     1      35.035 -22.422 -19.197  0.00  0.00    -0.285 NA
ATOM     29  C   UNL     1      35.768 -21.332 -19.058  0.00  0.00    +0.117 C 
ATOM     30  H   UNL     1      36.759 -22.019 -17.375  0.00  0.00    +0.144 HD
ATOM     31  H   UNL     1      37.233 -20.461 -17.884  0.00  0.00    +0.144 HD
ATOM     32  H   UNL     1      35.132 -23.166 -18.560  0.00  0.00    +0.188 HD
ENDBRANCH  26  29
ENDBRANCH  20  21
ENDBRANCH   2  20
TORSDOF 7
ENDMDL
MODEL 4
REMARK VINA RESULT:     -10.0     10.191     14.134
REMARK  Name = 24963036
REMARK  7 active torsions:
REMARK  status: ('A' for Active; 'I' for Inactive)
REMARK    1  A    between atoms: N_2  and  C_20
REMARK    2  A    between atoms: C_3  and  C_7
REMARK    3  A    between atoms: C_11  and  C_12
REMARK    4  A    between atoms: C_12  and  O_13
REMARK    5  A    between atoms: O_13  and  C_14
REMARK    6  A    between atoms: C_20  and  C_21
REMARK    7  A    between atoms: C_26  and  C_29
REMARK                            x       y       z     vdW  Elec       q    Type
REMARK                         _______ _______ _______ _____ _____    ______ ____
ROOT
ATOM      1  O   UNL     1      32.246 -13.424 -21.957  0.00  0.00    -0.273 OA
ATOM      2  N   UNL     1      32.796 -11.170 -22.140  0.00  0.00    -0.299 N 
ATOM      3  C   UNL     1      32.930 -12.517 -22.426  0.00  0.00    +0.241 C 
ATOM      4  H   UNL     1      33.406 -10.535 -22.581  0.00  0.00    +0.150 HD
ENDROOT
BRANCH   3   7
ATOM      5  O   UNL     1      35.126 -14.749 -21.649  0.00  0.00    -0.272 OA
ATOM      6  N   UNL     1      34.064 -14.222 -23.637  0.00  0.00    -0.271 N 
ATOM      7  C   UNL     1      34.016 -12.782 -23.424  0.00  0.00    +0.152 C 
ATOM      8  C   UNL     1      33.683 -12.198 -24.792  0.00  0.00    +0.031 C 
ATOM      9  C   UNL     1      32.873 -13.306 -25.462  0.00  0.00    +0.024 C 
ATOM     10  C   UNL     1      33.531 -14.579 -24.949  0.00  0.00    +0.094 C 
ATOM     11  C   UNL     1      34.688 -15.086 -22.750  0.00  0.00    +0.256 C 
BRANCH  11  12
ATOM     12  C   UNL     1      34.799 -16.518 -23.208  0.00  0.00    +0.227 C 
BRANCH  12  13
ATOM     13  O   UNL     1      35.981 -17.031 -22.643  0.00  0.00    -0.347 OA
BRANCH  13  14
ATOM     14  C   UNL     1      35.721 -17.834 -21.497  0.00  0.00    +0.116 C 
ATOM     15  C   UNL     1      34.552 -18.775 -21.785  0.00  0.00    +0.030 C 
ATOM     16  C   UNL     1      36.983 -18.607 -21.116  0.00  0.00    +0.030 C 
ATOM     17  C   UNL     1      34.296 -19.727 -20.620  0.00  0.00    +0.002 C 
ATOM     18  C   UNL     1      36.728 -19.558 -19.950  0.00  0.00    +0.002 C 
ATOM     19  C   UNL     1      35.558 -20.496 -20.237  0.00  0.00    +0.000 C 
ENDBRANCH  13  14
ENDBRANCH  12  13
ENDBRANCH  11  12
ENDBRANCH   3   7
BRANCH   2  20
ATOM     20  C   UNL     1      31.805 -10.650 -21.225  0.00  0.00    +0.116 C 
BRANCH  20  21
ATOM     21  C   UNL     1      31.676  -9.158 -21.327  0.00  0.00    -0.003 C 
ATOM     22  C   UNL     1      31.214  -8.577 -22.508  0.00  0.00    -0.003 C 
ATOM     23  C   UNL     1      32.018  -8.352 -20.241  0.00  0.00    -0.003 C 
ATOM     24  C   UNL     1      31.094  -7.190 -22.603  0.00  0.00    +0.002 C 
ATOM     25  C   UNL     1      31.898  -6.966 -20.336  0.00  0.00    +0.002 C 
ATOM     26  C   UNL     1      31.437  -6.385 -21.516  0.00  0.00    +0.031 C 
BRANCH  26  29
ATOM     27  N   UNL     1      32.232  -4.089 -21.005  0.00  0.00    -0.343 N 
ATOM     28  N   UNL     1      30.310  -4.409 -22.294  0.00  0.00    -0.285 NA
ATOM     29  C   UNL     1      31.313  -4.939 -21.616  0.00  0.00    +0.117 C 
ATOM     30  H   UNL     1      32.129  -3.113 -21.085  0.00  0.00    +0.144 HD
ATOM     31  H   UNL     1      32.985  -4.464 -20.492  0.00  0.00    +0.144 HD
ATOM     32  H   UNL     1      30.225  -3.432 -22.363  0.00  0.00    +0.188 HD
ENDBRANCH  26  29
ENDBRANCH  20  21
ENDBRANCH   2  20
TORSDOF 7
ENDMDL
MODEL 5
REMARK VINA RESULT:      -9.9     11.304     15.266
REMARK  Name = 24963036
REMARK  7 active torsions:
REMARK  status: ('A' for Active; 'I' for Inactive)
REMARK    1  A    between atoms: N_2  and  C_20
REMARK    2  A    between atoms: C_3  and  C_7
REMARK    3  A    between atoms: C_11  and  C_12
REMARK    4  A    between atoms: C_12  and  O_13
REMARK    5  A    between atoms: O_13  and  C_14
REMARK    6  A    between atoms: C_20  and  C_21
REMARK    7  A    between atoms: C_26  and  C_29
REMARK                            x       y       z     vdW  Elec       q    Type
REMARK                         _______ _______ _______ _____ _____    ______ ____
ROOT
ATOM      1  O   UNL     1      32.119 -12.006 -21.987  0.00  0.00    -0.273 OA
ATOM      2  N   UNL     1      32.679  -9.796 -22.459  0.00  0.00    -0.299 N 
ATOM      3  C   UNL     1      32.857 -11.168 -22.499  0.00  0.00    +0.241 C 
ATOM      4  H   UNL     1      33.342  -9.224 -22.909  0.00  0.00    +0.150 HD
ENDROOT
BRANCH   3   7
ATOM      5  O   UNL     1      34.651 -13.573 -21.313  0.00  0.00    -0.272 OA
ATOM      6  N   UNL     1      34.021 -13.003 -23.466  0.00  0.00    -0.271 N 
ATOM      7  C   UNL     1      34.076 -11.559 -23.279  0.00  0.00    +0.152 C 
ATOM      8  C   UNL     1      34.052 -10.985 -24.691  0.00  0.00    +0.031 C 
ATOM      9  C   UNL     1      33.273 -12.030 -25.487  0.00  0.00    +0.024 C 
ATOM     10  C   UNL     1      33.701 -13.344 -24.850  0.00  0.00    +0.094 C 
ATOM     11  C   UNL     1      34.388 -13.898 -22.473  0.00  0.00    +0.256 C 
BRANCH  11  12
ATOM     12  C   UNL     1      34.441 -15.346 -22.889  0.00  0.00    +0.227 C 
BRANCH  12  13
ATOM     13  O   UNL     1      35.748 -15.793 -22.625  0.00  0.00    -0.347 OA
BRANCH  13  14
ATOM     14  C   UNL     1      35.793 -17.192 -22.369  0.00  0.00    +0.116 C 
ATOM     15  C   UNL     1      35.524 -17.451 -20.887  0.00  0.00    +0.030 C 
ATOM     16  C   UNL     1      34.778 -17.910 -23.257  0.00  0.00    +0.030 C 
ATOM     17  C   UNL     1      35.466 -18.944 -20.578  0.00  0.00    +0.002 C 
ATOM     18  C   UNL     1      34.720 -19.403 -22.950  0.00  0.00    +0.002 C 
ATOM     19  C   UNL     1      34.454 -19.661 -21.469  0.00  0.00    +0.000 C 
ENDBRANCH  13  14
ENDBRANCH  12  13
ENDBRANCH  11  12
ENDBRANCH   3   7
BRANCH   2  20
ATOM     20  C   UNL     1      31.566  -9.163 -21.788  0.00  0.00    +0.116 C 
BRANCH  20  21
ATOM     21  C   UNL     1      31.644  -7.665 -21.862  0.00  0.00    -0.003 C 
ATOM     22  C   UNL     1      32.586  -6.978 -21.095  0.00  0.00    -0.003 C 
ATOM     23  C   UNL     1      30.775  -6.961 -22.694  0.00  0.00    -0.003 C 
ATOM     24  C   UNL     1      32.658  -5.586 -21.162  0.00  0.00    +0.002 C 
ATOM     25  C   UNL     1      30.847  -5.570 -22.762  0.00  0.00    +0.002 C 
ATOM     26  C   UNL     1      31.788  -4.882 -21.996  0.00  0.00    +0.031 C 
BRANCH  26  29
ATOM     27  N   UNL     1      31.994  -2.770 -23.285  0.00  0.00    -0.343 N 
ATOM     28  N   UNL     1      31.811  -2.716 -20.957  0.00  0.00    -0.285 NA
ATOM     29  C   UNL     1      31.863  -3.432 -22.065  0.00  0.00    +0.117 C 
ATOM     30  H   UNL     1      32.042  -1.787 -23.309  0.00  0.00    +0.144 HD
ATOM     31  H   UNL     1      32.037  -3.286 -24.123  0.00  0.00    +0.144 HD
ATOM     32  H   UNL     1      31.861  -1.734 -21.001  0.00  0.00    +0.188 HD
ENDBRANCH  26  29
ENDBRANCH  20  21
ENDBRANCH   2  20
TORSDOF 7
ENDMDL
MODEL 6
REMARK VINA RESULT:      -9.8      8.383     12.530
REMARK  Name = 24963036
REMARK  7 active torsions:
REMARK  status: ('A' for Active; 'I' for Inactive)
REMARK    1  A    between atoms: N_2  and  C_20
REMARK    2  A    between atoms: C_3  and  C_7
REMARK    3  A    between atoms: C_11  and  C_12
REMARK    4  A    between atoms: C_12  and  O_13
REMARK    5  A    between atoms: O_13  and  C_14
REMARK    6  A    between atoms: C_20  and  C_21
REMARK    7  A    between atoms: C_26  and  C_29
REMARK                            x       y       z     vdW  Elec       q    Type
REMARK                         _______ _______ _______ _____ _____    ______ ____
ROOT
ATOM      1  O   UNL     1      35.042 -14.264 -22.397  0.00  0.00    -0.273 OA
ATOM      2  N   UNL     1      34.254 -15.684 -24.065  0.00  0.00    -0.299 N 
ATOM      3  C   UNL     1      34.204 -14.573 -23.240  0.00  0.00    +0.241 C 
ATOM      4  H   UNL     1      33.520 -15.826 -24.704  0.00  0.00    +0.150 HD
ENDROOT
BRANCH   3   7
ATOM      5  O   UNL     1      32.313 -13.912 -20.711  0.00  0.00    -0.272 OA
ATOM      6  N   UNL     1      33.007 -12.647 -22.521  0.00  0.00    -0.271 N 
ATOM      7  C   UNL     1      32.992 -13.730 -23.496  0.00  0.00    +0.152 C 
ATOM      8  C   UNL     1      33.063 -13.033 -24.850  0.00  0.00    +0.031 C 
ATOM      9  C   UNL     1      33.828 -11.746 -24.547  0.00  0.00    +0.024 C 
ATOM     10  C   UNL     1      33.347 -11.374 -23.152  0.00  0.00    +0.094 C 
ATOM     11  C   UNL     1      32.592 -12.820 -21.210  0.00  0.00    +0.256 C 
BRANCH  11  12
ATOM     12  C   UNL     1      32.505 -11.561 -20.385  0.00  0.00    +0.227 C 
BRANCH  12  13
ATOM     13  O   UNL     1      31.185 -11.090 -20.507  0.00  0.00    -0.347 OA
BRANCH  13  14
ATOM     14  C   UNL     1      31.117  -9.670 -20.458  0.00  0.00    +0.116 C 
ATOM     15  C   UNL     1      32.143  -9.141 -19.457  0.00  0.00    +0.030 C 
ATOM     16  C   UNL     1      31.348  -9.097 -21.855  0.00  0.00    +0.030 C 
ATOM     17  C   UNL     1      32.178  -7.616 -19.438  0.00  0.00    +0.002 C 
ATOM     18  C   UNL     1      31.382  -7.571 -21.838  0.00  0.00    +0.002 C 
ATOM     19  C   UNL     1      32.405  -7.044 -20.835  0.00  0.00    +0.000 C 
ENDBRANCH  13  14
ENDBRANCH  12  13
ENDBRANCH  11  12
ENDBRANCH   3   7
BRANCH   2  20
ATOM     20  C   UNL     1      35.334 -16.645 -24.032  0.00  0.00    +0.116 C 
BRANCH  20  21
ATOM     21  C   UNL     1      35.166 -17.640 -22.922  0.00  0.00    -0.003 C 
ATOM     22  C   UNL     1      35.968 -17.555 -21.783  0.00  0.00    -0.003 C 
ATOM     23  C   UNL     1      34.211 -18.651 -23.028  0.00  0.00    -0.003 C 
ATOM     24  C   UNL     1      35.813 -18.481 -20.750  0.00  0.00    +0.002 C 
ATOM     25  C   UNL     1      34.056 -19.576 -21.996  0.00  0.00    +0.002 C 
ATOM     26  C   UNL     1      34.857 -19.492 -20.858  0.00  0.00    +0.031 C 
BRANCH  26  29
ATOM     27  N   UNL     1      35.787 -20.898 -19.035  0.00  0.00    -0.343 N 
ATOM     28  N   UNL     1      33.497 -20.935 -19.500  0.00  0.00    -0.285 NA
ATOM     29  C   UNL     1      34.696 -20.457 -19.782  0.00  0.00    +0.117 C 
ATOM     30  H   UNL     1      35.655 -21.552 -18.310  0.00  0.00    +0.144 HD
ATOM     31  H   UNL     1      36.689 -20.555 -19.232  0.00  0.00    +0.144 HD
ATOM     32  H   UNL     1      33.386 -21.588 -18.772  0.00  0.00    +0.188 HD
ENDBRANCH  26  29
ENDBRANCH  20  21
ENDBRANCH   2  20
TORSDOF 7
ENDMDL
MODEL 7
REMARK VINA RESULT:      -9.7      8.093     12.153
REMARK  Name = 24963036
REMARK  7 active torsions:
REMARK  status: ('A' for Active; 'I' for Inactive)
REMARK    1  A    between atoms: N_2  and  C_20
REMARK    2  A    between atoms: C_3  and  C_7
REMARK    3  A    between atoms: C_11  and  C_12
REMARK    4  A    between atoms: C_12  and  O_13
REMARK    5  A    between atoms: O_13  and  C_14
REMARK    6  A    between atoms: C_20  and  C_21
REMARK    7  A    between atoms: C_26  and  C_29
REMARK                            x       y       z     vdW  Elec       q    Type
REMARK                         _______ _______ _______ _____ _____    ______ ____
ROOT
ATOM      1  O   UNL     1      34.656 -15.129 -20.400  0.00  0.00    -0.273 OA
ATOM      2  N   UNL     1      33.554 -14.125 -22.188  0.00  0.00    -0.299 N 
ATOM      3  C   UNL     1      34.514 -14.933 -21.604  0.00  0.00    +0.241 C 
ATOM      4  H   UNL     1      33.540 -14.047 -23.169  0.00  0.00    +0.150 HD
ENDROOT
BRANCH   3   7
ATOM      5  O   UNL     1      36.167 -17.532 -20.643  0.00  0.00    -0.272 OA
ATOM      6  N   UNL     1      35.060 -17.019 -22.610  0.00  0.00    -0.271 N 
ATOM      7  C   UNL     1      35.390 -15.600 -22.622  0.00  0.00    +0.152 C 
ATOM      8  C   UNL     1      35.065 -15.138 -24.038  0.00  0.00    +0.031 C 
ATOM      9  C   UNL     1      33.942 -16.079 -24.469  0.00  0.00    +0.024 C 
ATOM     10  C   UNL     1      34.319 -17.398 -23.810  0.00  0.00    +0.094 C 
ATOM     11  C   UNL     1      35.544 -17.888 -21.645  0.00  0.00    +0.256 C 
BRANCH  11  12
ATOM     12  C   UNL     1      35.252 -19.349 -21.880  0.00  0.00    +0.227 C 
BRANCH  12  13
ATOM     13  O   UNL     1      34.005 -19.611 -21.285  0.00  0.00    -0.347 OA
BRANCH  13  14
ATOM     14  C   UNL     1      34.140 -20.165 -19.981  0.00  0.00    +0.116 C 
ATOM     15  C   UNL     1      32.925 -21.038 -19.667  0.00  0.00    +0.030 C 
ATOM     16  C   UNL     1      35.441 -20.961 -19.894  0.00  0.00    +0.030 C 
ATOM     17  C   UNL     1      33.067 -21.734 -18.317  0.00  0.00    +0.002 C 
ATOM     18  C   UNL     1      35.584 -21.657 -18.544  0.00  0.00    +0.002 C 
ATOM     19  C   UNL     1      34.370 -22.526 -18.229  0.00  0.00    +0.000 C 
ENDBRANCH  13  14
ENDBRANCH  12  13
ENDBRANCH  11  12
ENDBRANCH   3   7
BRANCH   2  20
ATOM     20  C   UNL     1      32.571 -13.388 -21.426  0.00  0.00    +0.116 C 
BRANCH  20  21
ATOM     21  C   UNL     1      32.508 -11.946 -21.836  0.00  0.00    -0.003 C 
ATOM     22  C   UNL     1      33.305 -11.484 -22.885  0.00  0.00    -0.003 C 
ATOM     23  C   UNL     1      31.656 -11.066 -21.169  0.00  0.00    -0.003 C 
ATOM     24  C   UNL     1      33.248 -10.143 -23.266  0.00  0.00    +0.002 C 
ATOM     25  C   UNL     1      31.598  -9.726 -21.550  0.00  0.00    +0.002 C 
ATOM     26  C   UNL     1      32.394  -9.264 -22.598  0.00  0.00    +0.031 C 
BRANCH  26  29
ATOM     27  N   UNL     1      33.494  -7.137 -23.253  0.00  0.00    -0.343 N 
ATOM     28  N   UNL     1      31.165  -7.264 -23.112  0.00  0.00    -0.285 NA
ATOM     29  C   UNL     1      32.335  -7.866 -22.994  0.00  0.00    +0.117 C 
ATOM     30  H   UNL     1      33.431  -6.191 -23.522  0.00  0.00    +0.144 HD
ATOM     31  H   UNL     1      34.376  -7.567 -23.168  0.00  0.00    +0.144 HD
ATOM     32  H   UNL     1      31.123  -6.318 -23.381  0.00  0.00    +0.188 HD
ENDBRANCH  26  29
ENDBRANCH  20  21
ENDBRANCH   2  20
TORSDOF 7
ENDMDL
MODEL 8
REMARK VINA RESULT:      -9.6     10.546     14.437
REMARK  Name = 24963036
REMARK  7 active torsions:
REMARK  status: ('A' for Active; 'I' for Inactive)
REMARK    1  A    between atoms: N_2  and  C_20
REMARK    2  A    between atoms: C_3  and  C_7
REMARK    3  A    between atoms: C_11  and  C_12
REMARK    4  A    between atoms: C_12  and  O_13
REMARK    5  A    between atoms: O_13  and  C_14
REMARK    6  A    between atoms: C_20  and  C_21
REMARK    7  A    between atoms: C_26  and  C_29
REMARK                            x       y       z     vdW  Elec       q    Type
REMARK                         _______ _______ _______ _____ _____    ______ ____
ROOT
ATOM      1  O   UNL     1      31.779 -13.104 -22.451  0.00  0.00    -0.273 OA
ATOM      2  N   UNL     1      34.099 -12.986 -22.611  0.00  0.00    -0.299 N 
ATOM      3  C   UNL     1      32.853 -12.582 -22.162  0.00  0.00    +0.241 C 
ATOM      4  H   UNL     1      34.891 -12.486 -22.308  0.00  0.00    +0.150 HD
ENDROOT
BRANCH   3   7
ATOM      5  O   UNL     1      34.187  -9.878 -23.310  0.00  0.00    -0.272 OA
ATOM      6  N   UNL     1      32.374 -10.264 -21.924  0.00  0.00    -0.271 N 
ATOM      7  C   UNL     1      32.938 -11.413 -21.228  0.00  0.00    +0.152 C 
ATOM      8  C   UNL     1      32.048 -11.600 -20.004  0.00  0.00    +0.031 C 
ATOM      9  C   UNL     1      30.694 -11.064 -20.466  0.00  0.00    +0.024 C 
ATOM     10  C   UNL     1      31.069  -9.904 -21.375  0.00  0.00    +0.094 C 
ATOM     11  C   UNL     1      33.086  -9.542 -22.869  0.00  0.00    +0.256 C 
BRANCH  11  12
ATOM     12  C   UNL     1      32.421  -8.282 -23.362  0.00  0.00    +0.227 C 
BRANCH  12  13
ATOM     13  O   UNL     1      33.400  -7.273 -23.336  0.00  0.00    -0.347 OA
BRANCH  13  14
ATOM     14  C   UNL     1      32.843  -5.994 -23.059  0.00  0.00    +0.116 C 
ATOM     15  C   UNL     1      31.467  -5.881 -23.714  0.00  0.00    +0.030 C 
ATOM     16  C   UNL     1      32.765  -5.785 -21.547  0.00  0.00    +0.030 C 
ATOM     17  C   UNL     1      30.784  -4.562 -23.365  0.00  0.00    +0.002 C 
ATOM     18  C   UNL     1      32.083  -4.465 -21.198  0.00  0.00    +0.002 C 
ATOM     19  C   UNL     1      30.709  -4.352 -21.854  0.00  0.00    +0.000 C 
ENDBRANCH  13  14
ENDBRANCH  12  13
ENDBRANCH  11  12
ENDBRANCH   3   7
BRANCH   2  20
ATOM     20  C   UNL     1      34.292 -14.106 -23.504  0.00  0.00    +0.116 C 
BRANCH  20  21
ATOM     21  C   UNL     1      34.704 -15.347 -22.767  0.00  0.00    -0.003 C 
ATOM     22  C   UNL     1      34.941 -16.529 -23.470  0.00  0.00    -0.003 C 
ATOM     23  C   UNL     1      34.847 -15.320 -21.380  0.00  0.00    -0.003 C 
ATOM     24  C   UNL     1      35.322 -17.683 -22.786  0.00  0.00    +0.002 C 
ATOM     25  C   UNL     1      35.228 -16.474 -20.696  0.00  0.00    +0.002 C 
ATOM     26  C   UNL     1      35.465 -17.656 -21.398  0.00  0.00    +0.031 C 
BRANCH  26  29
ATOM     27  N   UNL     1      35.067 -20.003 -20.696  0.00  0.00    -0.343 N 
ATOM     28  N   UNL     1      36.995 -18.879 -20.006  0.00  0.00    -0.285 NA
ATOM     29  C   UNL     1      35.862 -18.859 -20.685  0.00  0.00    +0.117 C 
ATOM     30  H   UNL     1      35.355 -20.808 -20.206  0.00  0.00    +0.144 HD
ATOM     31  H   UNL     1      34.217 -20.008 -21.193  0.00  0.00    +0.144 HD
ATOM     32  H   UNL     1      37.266 -19.692 -19.523  0.00  0.00    +0.188 HD
ENDBRANCH  26  29
ENDBRANCH  20  21
ENDBRANCH   2  20
TORSDOF 7
ENDMDL
MODEL 9
REMARK VINA RESULT:      -9.6      5.541      9.111
REMARK  Name = 24963036
REMARK  7 active torsions:
REMARK  status: ('A' for Active; 'I' for Inactive)
REMARK    1  A    between atoms: N_2  and  C_20
REMARK    2  A    between atoms: C_3  and  C_7
REMARK    3  A    between atoms: C_11  and  C_12
REMARK    4  A    between atoms: C_12  and  O_13
REMARK    5  A    between atoms: O_13  and  C_14
REMARK    6  A    between atoms: C_20  and  C_21
REMARK    7  A    between atoms: C_26  and  C_29
REMARK                            x       y       z     vdW  Elec       q    Type
REMARK                         _______ _______ _______ _____ _____    ______ ____
ROOT
ATOM      1  O   UNL     1      33.269 -19.326 -22.898  0.00  0.00    -0.273 OA
ATOM      2  N   UNL     1      34.299 -19.751 -20.853  0.00  0.00    -0.299 N 
ATOM      3  C   UNL     1      34.226 -19.229 -22.133  0.00  0.00    +0.241 C 
ATOM      4  H   UNL     1      35.123 -19.606 -20.335  0.00  0.00    +0.150 HD
ENDROOT
BRANCH   3   7
ATOM      5  O   UNL     1      34.321 -17.945 -25.092  0.00  0.00    -0.272 OA
ATOM      6  N   UNL     1      35.046 -17.184 -23.030  0.00  0.00    -0.271 N 
ATOM      7  C   UNL     1      35.467 -18.479 -22.512  0.00  0.00    +0.152 C 
ATOM      8  C   UNL     1      36.324 -18.150 -21.295  0.00  0.00    +0.031 C 
ATOM      9  C   UNL     1      35.741 -16.828 -20.798  0.00  0.00    +0.024 C 
ATOM     10  C   UNL     1      35.352 -16.113 -22.084  0.00  0.00    +0.094 C 
ATOM     11  C   UNL     1      34.568 -17.017 -24.320  0.00  0.00    +0.256 C 
BRANCH  11  12
ATOM     12  C   UNL     1      34.345 -15.589 -24.751  0.00  0.00    +0.227 C 
BRANCH  12  13
ATOM     13  O   UNL     1      33.168 -15.156 -24.114  0.00  0.00    -0.347 OA
BRANCH  13  14
ATOM     14  C   UNL     1      32.997 -13.746 -24.207  0.00  0.00    +0.116 C 
ATOM     15  C   UNL     1      33.804 -13.059 -23.106  0.00  0.00    +0.030 C 
ATOM     16  C   UNL     1      33.420 -13.268 -25.595  0.00  0.00    +0.030 C 
ATOM     17  C   UNL     1      33.731 -11.539 -23.221  0.00  0.00    +0.002 C 
ATOM     18  C   UNL     1      33.347 -11.749 -25.712  0.00  0.00    +0.002 C 
ATOM     19  C   UNL     1      34.151 -11.062 -24.610  0.00  0.00    +0.000 C 
ENDBRANCH  13  14
ENDBRANCH  12  13
ENDBRANCH  11  12
ENDBRANCH   3   7
BRANCH   2  20
ATOM     20  C   UNL     1      33.223 -20.498 -20.242  0.00  0.00    +0.116 C 
BRANCH  20  21
ATOM     21  C   UNL     1      33.691 -21.285 -19.053  0.00  0.00    -0.003 C 
ATOM     22  C   UNL     1      35.052 -21.359 -18.758  0.00  0.00    -0.003 C 
ATOM     23  C   UNL     1      32.765 -21.945 -18.244  0.00  0.00    -0.003 C 
ATOM     24  C   UNL     1      35.488 -22.092 -17.653  0.00  0.00    +0.002 C 
ATOM     25  C   UNL     1      33.201 -22.677 -17.140  0.00  0.00    +0.002 C 
ATOM     26  C   UNL     1      34.562 -22.751 -16.844  0.00  0.00    +0.031 C 
BRANCH  26  29
ATOM     27  N   UNL     1      34.113 -24.054 -14.779  0.00  0.00    -0.343 N 
ATOM     28  N   UNL     1      36.308 -23.706 -15.499  0.00  0.00    -0.285 NA
ATOM     29  C   UNL     1      35.016 -23.515 -15.694  0.00  0.00    +0.117 C 
ATOM     30  H   UNL     1      34.442 -24.569 -14.007  0.00  0.00    +0.144 HD
ATOM     31  H   UNL     1      33.146 -23.920 -14.905  0.00  0.00    +0.144 HD
ATOM     32  H   UNL     1      36.618 -24.224 -14.721  0.00  0.00    +0.188 HD
ENDBRANCH  26  29
ENDBRANCH  20  21
ENDBRANCH   2  20
TORSDOF 7
ENDMDL
