MODEL 1
REMARK VINA RESULT:     -12.2      0.000      0.000
REMARK  Name = 24941249
REMARK  6 active torsions:
REMARK  status: ('A' for Active; 'I' for Inactive)
REMARK    1  A    between atoms: N_1  and  C_13
REMARK    2  A    between atoms: N_2  and  C_26
REMARK    3  A    between atoms: C_14  and  C_19
REMARK    4  A    between atoms: C_19  and  C_20
REMARK    5  A    between atoms: C_20  and  C_23
REMARK    6  A    between atoms: C_26  and  C_28
REMARK                            x       y       z     vdW  Elec       q    Type
REMARK                         _______ _______ _______ _____ _____    ______ ____
ROOT
ATOM      1  N   UNL     1      33.291 -13.276 -23.115  0.00  0.00    -0.230 N 
ATOM      2  N   UNL     1      35.193 -17.388 -21.283  0.00  0.00    -0.316 N 
ATOM      3  N   UNL     1      33.152 -12.795 -24.363  0.00  0.00    -0.169 NA
ATOM      4  N   UNL     1      35.131 -16.887 -23.609  0.00  0.00    -0.229 NA
ATOM      5  C   UNL     1      33.896 -14.501 -23.051  0.00  0.00    +0.088 A 
ATOM      6  C   UNL     1      34.173 -14.843 -24.369  0.00  0.00    +0.052 A 
ATOM      7  C   UNL     1      33.690 -13.752 -25.123  0.00  0.00    +0.082 A 
ATOM      8  C   UNL     1      34.219 -15.322 -21.977  0.00  0.00    +0.053 C 
ATOM      9  C   UNL     1      34.839 -16.508 -22.340  0.00  0.00    +0.130 C 
ATOM     10  C   UNL     1      34.801 -16.060 -24.631  0.00  0.00    +0.103 C 
ATOM     11  C   UNL     1      33.724 -13.584 -26.586  0.00  0.00    +0.054 C 
ATOM     12  H   UNL     1      34.987 -17.122 -20.358  0.00  0.00    +0.148 HD
ENDROOT
BRANCH   1  13
ATOM     13  C   UNL     1      32.829 -12.526 -22.033  0.00  0.00    +0.082 C 
ATOM     14  C   UNL     1      32.030 -10.434 -21.126  0.00  0.00    -0.020 C 
ATOM     15  C   UNL     1      32.492 -11.184 -22.208  0.00  0.00    +0.015 C 
ATOM     16  C   UNL     1      32.702 -13.119 -20.777  0.00  0.00    +0.019 C 
ATOM     17  C   UNL     1      31.903 -11.026 -19.870  0.00  0.00    -0.004 C 
ATOM     18  C   UNL     1      32.239 -12.369 -19.695  0.00  0.00    +0.001 C 
BRANCH  14  19
ATOM     19  C   UNL     1      31.672  -8.998 -21.313  0.00  0.00    +0.036 C 
BRANCH  19  20
ATOM     20  C   UNL     1      32.905  -8.117 -21.539  0.00  0.00    +0.089 C 
BRANCH  20  23
ATOM     21  O   UNL     1      32.862  -5.810 -20.787  0.00  0.00    -0.275 OA
ATOM     22  N   UNL     1      33.336  -7.466 -19.263  0.00  0.00    -0.329 N 
ATOM     23  C   UNL     1      33.024  -6.998 -20.522  0.00  0.00    +0.220 C 
ATOM     24  H   UNL     1      33.441  -6.835 -18.516  0.00  0.00    +0.145 HD
ATOM     25  H   UNL     1      33.455  -8.432 -19.113  0.00  0.00    +0.145 HD
ENDBRANCH  20  23
ENDBRANCH  19  20
ENDBRANCH  14  19
ENDBRANCH   1  13
BRANCH   2  26
ATOM     26  C   UNL     1      35.833 -18.640 -21.509  0.00  0.00    +0.093 C 
ATOM     27  C   UNL     1      37.345 -18.470 -21.364  0.00  0.00    +0.026 C 
BRANCH  26  28
ATOM     28  C   UNL     1      35.266 -19.693 -20.581  0.00  0.00    -0.005 C 
ATOM     29  C   UNL     1      33.884 -19.835 -20.449  0.00  0.00    -0.003 C 
ATOM     30  C   UNL     1      36.124 -20.521 -19.859  0.00  0.00    -0.003 C 
ATOM     31  C   UNL     1      33.361 -20.804 -19.594  0.00  0.00    -0.000 C 
ATOM     32  C   UNL     1      35.600 -21.491 -19.004  0.00  0.00    -0.000 C 
ATOM     33  C   UNL     1      34.219 -21.633 -18.872  0.00  0.00    -0.000 C 
ENDBRANCH  26  28
ENDBRANCH   2  26
TORSDOF 6
ENDMDL
MODEL 2
REMARK VINA RESULT:     -12.0      8.122     13.721
REMARK  Name = 24941249
REMARK  6 active torsions:
REMARK  status: ('A' for Active; 'I' for Inactive)
REMARK    1  A    between atoms: N_1  and  C_13
REMARK    2  A    between atoms: N_2  and  C_26
REMARK    3  A    between atoms: C_14  and  C_19
REMARK    4  A    between atoms: C_19  and  C_20
REMARK    5  A    between atoms: C_20  and  C_23
REMARK    6  A    between atoms: C_26  and  C_28
REMARK                            x       y       z     vdW  Elec       q    Type
REMARK                         _______ _______ _______ _____ _____    ______ ____
ROOT
ATOM      1  N   UNL     1      33.630 -24.134 -13.505  0.00  0.00    -0.230 N 
ATOM      2  N   UNL     1      34.475 -22.155 -17.892  0.00  0.00    -0.316 N 
ATOM      3  N   UNL     1      32.519 -24.556 -12.877  0.00  0.00    -0.169 NA
ATOM      4  N   UNL     1      32.311 -22.784 -17.125  0.00  0.00    -0.229 NA
ATOM      5  C   UNL     1      33.410 -23.634 -14.758  0.00  0.00    +0.088 A 
ATOM      6  C   UNL     1      32.039 -23.741 -14.960  0.00  0.00    +0.052 A 
ATOM      7  C   UNL     1      31.553 -24.315 -13.767  0.00  0.00    +0.082 A 
ATOM      8  C   UNL     1      34.272 -23.107 -15.713  0.00  0.00    +0.053 C 
ATOM      9  C   UNL     1      33.642 -22.702 -16.879  0.00  0.00    +0.130 C 
ATOM     10  C   UNL     1      31.501 -23.304 -16.170  0.00  0.00    +0.103 C 
ATOM     11  C   UNL     1      30.159 -24.653 -13.433  0.00  0.00    +0.054 C 
ATOM     12  H   UNL     1      35.442 -22.089 -17.724  0.00  0.00    +0.148 HD
ENDROOT
BRANCH   1  13
ATOM     13  C   UNL     1      34.864 -24.234 -12.861  0.00  0.00    +0.082 C 
ATOM     14  C   UNL     1      37.094 -25.157 -12.743  0.00  0.00    -0.020 C 
ATOM     15  C   UNL     1      35.860 -25.057 -13.387  0.00  0.00    +0.015 C 
ATOM     16  C   UNL     1      35.102 -23.511 -11.692  0.00  0.00    +0.019 C 
ATOM     17  C   UNL     1      37.332 -24.434 -11.575  0.00  0.00    -0.004 C 
ATOM     18  C   UNL     1      36.336 -23.611 -11.049  0.00  0.00    +0.001 C 
BRANCH  14  19
ATOM     19  C   UNL     1      38.159 -26.038 -13.305  0.00  0.00    +0.036 C 
BRANCH  19  20
ATOM     20  C   UNL     1      39.526 -25.344 -13.341  0.00  0.00    +0.089 C 
BRANCH  20  23
ATOM     21  O   UNL     1      40.652 -25.976 -15.396  0.00  0.00    -0.275 OA
ATOM     22  N   UNL     1      41.335 -26.929 -13.417  0.00  0.00    -0.329 N 
ATOM     23  C   UNL     1      40.544 -26.095 -14.179  0.00  0.00    +0.220 C 
ATOM     24  H   UNL     1      42.034 -27.471 -13.847  0.00  0.00    +0.145 HD
ATOM     25  H   UNL     1      41.199 -26.982 -12.444  0.00  0.00    +0.145 HD
ENDBRANCH  20  23
ENDBRANCH  19  20
ENDBRANCH  14  19
ENDBRANCH   1  13
BRANCH   2  26
ATOM     26  C   UNL     1      33.964 -21.699 -19.142  0.00  0.00    +0.093 C 
ATOM     27  C   UNL     1      32.547 -21.163 -18.946  0.00  0.00    +0.026 C 
BRANCH  26  28
ATOM     28  C   UNL     1      34.903 -20.680 -19.749  0.00  0.00    -0.005 C 
ATOM     29  C   UNL     1      36.256 -20.686 -19.408  0.00  0.00    -0.003 C 
ATOM     30  C   UNL     1      34.417 -19.734 -20.651  0.00  0.00    -0.003 C 
ATOM     31  C   UNL     1      37.121 -19.747 -19.968  0.00  0.00    -0.000 C 
ATOM     32  C   UNL     1      35.282 -18.794 -21.211  0.00  0.00    -0.000 C 
ATOM     33  C   UNL     1      36.635 -18.801 -20.870  0.00  0.00    -0.000 C 
ENDBRANCH  26  28
ENDBRANCH   2  26
TORSDOF 6
ENDMDL
MODEL 3
REMARK VINA RESULT:     -11.1      0.785      1.188
REMARK  Name = 24941249
REMARK  6 active torsions:
REMARK  status: ('A' for Active; 'I' for Inactive)
REMARK    1  A    between atoms: N_1  and  C_13
REMARK    2  A    between atoms: N_2  and  C_26
REMARK    3  A    between atoms: C_14  and  C_19
REMARK    4  A    between atoms: C_19  and  C_20
REMARK    5  A    between atoms: C_20  and  C_23
REMARK    6  A    between atoms: C_26  and  C_28
REMARK                            x       y       z     vdW  Elec       q    Type
REMARK                         _______ _______ _______ _____ _____    ______ ____
ROOT
ATOM      1  N   UNL     1      33.446 -13.541 -23.315  0.00  0.00    -0.230 N 
ATOM      2  N   UNL     1      35.231 -17.474 -21.028  0.00  0.00    -0.316 N 
ATOM      3  N   UNL     1      33.329 -13.196 -24.609  0.00  0.00    -0.169 NA
ATOM      4  N   UNL     1      35.201 -17.227 -23.395  0.00  0.00    -0.229 NA
ATOM      5  C   UNL     1      34.020 -14.766 -23.113  0.00  0.00    +0.088 A 
ATOM      6  C   UNL     1      34.299 -15.255 -24.383  0.00  0.00    +0.052 A 
ATOM      7  C   UNL     1      33.850 -14.242 -25.256  0.00  0.00    +0.082 A 
ATOM      8  C   UNL     1      34.314 -15.473 -21.952  0.00  0.00    +0.053 C 
ATOM      9  C   UNL     1      34.908 -16.705 -22.178  0.00  0.00    +0.130 C 
ATOM     10  C   UNL     1      34.899 -16.508 -24.505  0.00  0.00    +0.103 C 
ATOM     11  C   UNL     1      33.899 -14.234 -26.728  0.00  0.00    +0.054 C 
ATOM     12  H   UNL     1      35.023 -17.104 -20.140  0.00  0.00    +0.148 HD
ENDROOT
BRANCH   1  13
ATOM     13  C   UNL     1      32.993 -12.668 -22.326  0.00  0.00    +0.082 C 
ATOM     14  C   UNL     1      32.434 -10.430 -21.607  0.00  0.00    -0.020 C 
ATOM     15  C   UNL     1      32.887 -11.303 -22.596  0.00  0.00    +0.015 C 
ATOM     16  C   UNL     1      32.645 -13.159 -21.068  0.00  0.00    +0.019 C 
ATOM     17  C   UNL     1      32.086 -10.921 -20.349  0.00  0.00    -0.004 C 
ATOM     18  C   UNL     1      32.191 -12.286 -20.079  0.00  0.00    +0.001 C 
BRANCH  14  19
ATOM     19  C   UNL     1      32.323  -8.971 -21.894  0.00  0.00    +0.036 C 
BRANCH  19  20
ATOM     20  C   UNL     1      31.736  -8.190 -20.712  0.00  0.00    +0.089 C 
BRANCH  20  23
ATOM     21  O   UNL     1      33.615  -7.120 -19.610  0.00  0.00    -0.275 OA
ATOM     22  N   UNL     1      32.120  -5.815 -20.774  0.00  0.00    -0.329 N 
ATOM     23  C   UNL     1      32.602  -7.015 -20.296  0.00  0.00    +0.220 C 
ATOM     24  H   UNL     1      32.596  -4.979 -20.569  0.00  0.00    +0.145 HD
ATOM     25  H   UNL     1      31.300  -5.796 -21.318  0.00  0.00    +0.145 HD
ENDBRANCH  20  23
ENDBRANCH  19  20
ENDBRANCH  14  19
ENDBRANCH   1  13
BRANCH   2  26
ATOM     26  C   UNL     1      35.842 -18.758 -21.110  0.00  0.00    +0.093 C 
ATOM     27  C   UNL     1      37.273 -18.673 -20.582  0.00  0.00    +0.026 C 
BRANCH  26  28
ATOM     28  C   UNL     1      35.003 -19.784 -20.380  0.00  0.00    -0.005 C 
ATOM     29  C   UNL     1      35.611 -20.697 -19.518  0.00  0.00    -0.003 C 
ATOM     30  C   UNL     1      33.622 -19.817 -20.569  0.00  0.00    -0.003 C 
ATOM     31  C   UNL     1      34.837 -21.643 -18.845  0.00  0.00    -0.000 C 
ATOM     32  C   UNL     1      32.848 -20.763 -19.897  0.00  0.00    -0.000 C 
ATOM     33  C   UNL     1      33.456 -21.676 -19.034  0.00  0.00    -0.000 C 
ENDBRANCH  26  28
ENDBRANCH   2  26
TORSDOF 6
ENDMDL
MODEL 4
REMARK VINA RESULT:     -10.7      6.065     10.818
REMARK  Name = 24941249
REMARK  6 active torsions:
REMARK  status: ('A' for Active; 'I' for Inactive)
REMARK    1  A    between atoms: N_1  and  C_13
REMARK    2  A    between atoms: N_2  and  C_26
REMARK    3  A    between atoms: C_14  and  C_19
REMARK    4  A    between atoms: C_19  and  C_20
REMARK    5  A    between atoms: C_20  and  C_23
REMARK    6  A    between atoms: C_26  and  C_28
REMARK                            x       y       z     vdW  Elec       q    Type
REMARK                         _______ _______ _______ _____ _____    ______ ____
ROOT
ATOM      1  N   UNL     1      33.317 -22.226 -17.526  0.00  0.00    -0.230 N 
ATOM      2  N   UNL     1      36.339 -24.627 -14.529  0.00  0.00    -0.316 N 
ATOM      3  N   UNL     1      31.981 -22.075 -17.569  0.00  0.00    -0.169 NA
ATOM      4  N   UNL     1      33.973 -24.601 -14.270  0.00  0.00    -0.229 NA
ATOM      5  C   UNL     1      33.759 -23.002 -16.490  0.00  0.00    +0.088 A 
ATOM      6  C   UNL     1      32.614 -23.387 -15.805  0.00  0.00    +0.052 A 
ATOM      7  C   UNL     1      31.557 -22.784 -16.520  0.00  0.00    +0.082 A 
ATOM      8  C   UNL     1      35.036 -23.392 -16.102  0.00  0.00    +0.053 C 
ATOM      9  C   UNL     1      35.060 -24.197 -14.973  0.00  0.00    +0.130 C 
ATOM     10  C   UNL     1      32.744 -24.199 -14.679  0.00  0.00    +0.103 C 
ATOM     11  C   UNL     1      30.115 -22.860 -16.230  0.00  0.00    +0.054 C 
ATOM     12  H   UNL     1      37.135 -24.341 -15.033  0.00  0.00    +0.148 HD
ENDROOT
BRANCH   1  13
ATOM     13  C   UNL     1      34.111 -21.608 -18.492  0.00  0.00    +0.082 C 
ATOM     14  C   UNL     1      34.315 -20.193 -20.441  0.00  0.00    -0.020 C 
ATOM     15  C   UNL     1      33.521 -20.811 -19.474  0.00  0.00    +0.015 C 
ATOM     16  C   UNL     1      35.494 -21.785 -18.476  0.00  0.00    +0.019 C 
ATOM     17  C   UNL     1      35.698 -20.371 -20.425  0.00  0.00    -0.004 C 
ATOM     18  C   UNL     1      36.288 -21.167 -19.442  0.00  0.00    +0.001 C 
BRANCH  14  19
ATOM     19  C   UNL     1      33.685 -19.343 -21.491  0.00  0.00    +0.036 C 
BRANCH  19  20
ATOM     20  C   UNL     1      34.557 -19.231 -22.748  0.00  0.00    +0.089 C 
BRANCH  20  23
ATOM     21  O   UNL     1      34.247 -17.112 -23.888  0.00  0.00    -0.275 OA
ATOM     22  N   UNL     1      36.020 -17.345 -22.441  0.00  0.00    -0.329 N 
ATOM     23  C   UNL     1      34.896 -17.796 -23.102  0.00  0.00    +0.220 C 
ATOM     24  H   UNL     1      36.341 -16.427 -22.589  0.00  0.00    +0.145 HD
ATOM     25  H   UNL     1      36.499 -17.943 -21.823  0.00  0.00    +0.145 HD
ENDBRANCH  20  23
ENDBRANCH  19  20
ENDBRANCH  14  19
ENDBRANCH   1  13
BRANCH   2  26
ATOM     26  C   UNL     1      36.515 -25.456 -13.384  0.00  0.00    +0.093 C 
ATOM     27  C   UNL     1      37.768 -26.311 -13.563  0.00  0.00    +0.026 C 
BRANCH  26  28
ATOM     28  C   UNL     1      36.550 -24.612 -12.128  0.00  0.00    -0.005 C 
ATOM     29  C   UNL     1      37.370 -23.485 -12.068  0.00  0.00    -0.003 C 
ATOM     30  C   UNL     1      35.762 -24.960 -11.032  0.00  0.00    -0.003 C 
ATOM     31  C   UNL     1      37.403 -22.707 -10.911  0.00  0.00    -0.000 C 
ATOM     32  C   UNL     1      35.795 -24.182  -9.874  0.00  0.00    -0.000 C 
ATOM     33  C   UNL     1      36.615 -23.055  -9.814  0.00  0.00    -0.000 C 
ENDBRANCH  26  28
ENDBRANCH   2  26
TORSDOF 6
ENDMDL
MODEL 5
REMARK VINA RESULT:     -10.3      7.214     11.193
REMARK  Name = 24941249
REMARK  6 active torsions:
REMARK  status: ('A' for Active; 'I' for Inactive)
REMARK    1  A    between atoms: N_1  and  C_13
REMARK    2  A    between atoms: N_2  and  C_26
REMARK    3  A    between atoms: C_14  and  C_19
REMARK    4  A    between atoms: C_19  and  C_20
REMARK    5  A    between atoms: C_20  and  C_23
REMARK    6  A    between atoms: C_26  and  C_28
REMARK                            x       y       z     vdW  Elec       q    Type
REMARK                         _______ _______ _______ _____ _____    ______ ____
ROOT
ATOM      1  N   UNL     1      32.453 -22.411 -17.105  0.00  0.00    -0.230 N 
ATOM      2  N   UNL     1      36.157 -24.550 -14.741  0.00  0.00    -0.316 N 
ATOM      3  N   UNL     1      31.125 -22.366 -16.899  0.00  0.00    -0.169 NA
ATOM      4  N   UNL     1      33.886 -24.709 -14.049  0.00  0.00    -0.229 NA
ATOM      5  C   UNL     1      33.139 -23.144 -16.176  0.00  0.00    +0.088 A 
ATOM      6  C   UNL     1      32.174 -23.614 -15.294  0.00  0.00    +0.052 A 
ATOM      7  C   UNL     1      30.960 -23.100 -15.796  0.00  0.00    +0.082 A 
ATOM      8  C   UNL     1      34.492 -23.431 -16.034  0.00  0.00    +0.053 C 
ATOM      9  C   UNL     1      34.788 -24.225 -14.937  0.00  0.00    +0.130 C 
ATOM     10  C   UNL     1      32.574 -24.408 -14.219  0.00  0.00    +0.103 C 
ATOM     11  C   UNL     1      29.607 -23.288 -15.246  0.00  0.00    +0.054 C 
ATOM     12  H   UNL     1      36.821 -24.206 -15.381  0.00  0.00    +0.148 HD
ENDROOT
BRANCH   1  13
ATOM     13  C   UNL     1      33.004 -21.737 -18.196  0.00  0.00    +0.082 C 
ATOM     14  C   UNL     1      34.930 -21.106 -19.510  0.00  0.00    -0.020 C 
ATOM     15  C   UNL     1      34.380 -21.779 -18.419  0.00  0.00    +0.015 C 
ATOM     16  C   UNL     1      32.177 -21.023 -19.063  0.00  0.00    +0.019 C 
ATOM     17  C   UNL     1      34.104 -20.392 -20.378  0.00  0.00    -0.004 C 
ATOM     18  C   UNL     1      32.727 -20.351 -20.155  0.00  0.00    +0.001 C 
BRANCH  14  19
ATOM     19  C   UNL     1      36.401 -21.149 -19.749  0.00  0.00    +0.036 C 
BRANCH  19  20
ATOM     20  C   UNL     1      37.095 -19.846 -19.334  0.00  0.00    +0.089 C 
BRANCH  20  23
ATOM     21  O   UNL     1      38.003 -18.725 -21.284  0.00  0.00    -0.275 OA
ATOM     22  N   UNL     1      36.020 -17.974 -20.395  0.00  0.00    -0.329 N 
ATOM     23  C   UNL     1      37.115 -18.811 -20.442  0.00  0.00    +0.220 C 
ATOM     24  H   UNL     1      35.919 -17.259 -21.064  0.00  0.00    +0.145 HD
ATOM     25  H   UNL     1      35.340 -18.093 -19.693  0.00  0.00    +0.145 HD
ENDBRANCH  20  23
ENDBRANCH  19  20
ENDBRANCH  14  19
ENDBRANCH   1  13
BRANCH   2  26
ATOM     26  C   UNL     1      36.606 -25.356 -13.656  0.00  0.00    +0.093 C 
ATOM     27  C   UNL     1      37.957 -25.976 -14.009  0.00  0.00    +0.026 C 
BRANCH  26  28
ATOM     28  C   UNL     1      36.645 -24.542 -12.381  0.00  0.00    -0.005 C 
ATOM     29  C   UNL     1      35.890 -24.938 -11.277  0.00  0.00    -0.003 C 
ATOM     30  C   UNL     1      37.436 -23.395 -12.310  0.00  0.00    -0.003 C 
ATOM     31  C   UNL     1      35.926 -24.187 -10.102  0.00  0.00    -0.000 C 
ATOM     32  C   UNL     1      37.472 -22.644 -11.135  0.00  0.00    -0.000 C 
ATOM     33  C   UNL     1      36.717 -23.040 -10.031  0.00  0.00    -0.000 C 
ENDBRANCH  26  28
ENDBRANCH   2  26
TORSDOF 6
ENDMDL
MODEL 6
REMARK VINA RESULT:      -9.9      3.803      9.143
REMARK  Name = 24941249
REMARK  6 active torsions:
REMARK  status: ('A' for Active; 'I' for Inactive)
REMARK    1  A    between atoms: N_1  and  C_13
REMARK    2  A    between atoms: N_2  and  C_26
REMARK    3  A    between atoms: C_14  and  C_19
REMARK    4  A    between atoms: C_19  and  C_20
REMARK    5  A    between atoms: C_20  and  C_23
REMARK    6  A    between atoms: C_26  and  C_28
REMARK                            x       y       z     vdW  Elec       q    Type
REMARK                         _______ _______ _______ _____ _____    ______ ____
ROOT
ATOM      1  N   UNL     1      34.591 -18.258 -23.050  0.00  0.00    -0.230 N 
ATOM      2  N   UNL     1      34.730 -13.376 -22.882  0.00  0.00    -0.316 N 
ATOM      3  N   UNL     1      33.932 -19.140 -23.822  0.00  0.00    -0.169 NA
ATOM      4  N   UNL     1      33.407 -14.603 -24.433  0.00  0.00    -0.229 NA
ATOM      5  C   UNL     1      34.333 -16.949 -23.351  0.00  0.00    +0.088 A 
ATOM      6  C   UNL     1      33.431 -16.986 -24.408  0.00  0.00    +0.052 A 
ATOM      7  C   UNL     1      33.228 -18.361 -24.647  0.00  0.00    +0.082 A 
ATOM      8  C   UNL     1      34.801 -15.760 -22.801  0.00  0.00    +0.053 C 
ATOM      9  C   UNL     1      34.287 -14.621 -23.402  0.00  0.00    +0.130 C 
ATOM     10  C   UNL     1      32.973 -15.783 -24.943  0.00  0.00    +0.103 C 
ATOM     11  C   UNL     1      32.360 -18.979 -25.665  0.00  0.00    +0.054 C 
ATOM     12  H   UNL     1      35.368 -13.378 -22.132  0.00  0.00    +0.148 HD
ENDROOT
BRANCH   1  13
ATOM     13  C   UNL     1      35.446 -18.723 -22.051  0.00  0.00    +0.082 C 
ATOM     14  C   UNL     1      35.850 -20.134 -20.131  0.00  0.00    -0.020 C 
ATOM     15  C   UNL     1      34.994 -19.669 -21.131  0.00  0.00    +0.015 C 
ATOM     16  C   UNL     1      36.753 -18.242 -21.972  0.00  0.00    +0.019 C 
ATOM     17  C   UNL     1      37.156 -19.653 -20.052  0.00  0.00    -0.004 C 
ATOM     18  C   UNL     1      37.608 -18.707 -20.973  0.00  0.00    +0.001 C 
BRANCH  14  19
ATOM     19  C   UNL     1      35.367 -21.144 -19.147  0.00  0.00    +0.036 C 
BRANCH  19  20
ATOM     20  C   UNL     1      33.838 -21.268 -19.144  0.00  0.00    +0.089 C 
BRANCH  20  23
ATOM     21  O   UNL     1      33.855 -23.652 -18.696  0.00  0.00    -0.275 OA
ATOM     22  N   UNL     1      32.281 -22.337 -17.654  0.00  0.00    -0.329 N 
ATOM     23  C   UNL     1      33.353 -22.550 -18.495  0.00  0.00    +0.220 C 
ATOM     24  H   UNL     1      31.876 -23.095 -17.174  0.00  0.00    +0.145 HD
ATOM     25  H   UNL     1      31.922 -21.429 -17.535  0.00  0.00    +0.145 HD
ENDBRANCH  20  23
ENDBRANCH  19  20
ENDBRANCH  14  19
ENDBRANCH   1  13
BRANCH   2  26
ATOM     26  C   UNL     1      34.287 -12.126 -23.402  0.00  0.00    +0.093 C 
ATOM     27  C   UNL     1      33.865 -12.304 -24.860  0.00  0.00    +0.026 C 
BRANCH  26  28
ATOM     28  C   UNL     1      33.186 -11.558 -22.533  0.00  0.00    -0.005 C 
ATOM     29  C   UNL     1      32.815 -10.220 -22.661  0.00  0.00    -0.003 C 
ATOM     30  C   UNL     1      32.542 -12.374 -21.603  0.00  0.00    -0.003 C 
ATOM     31  C   UNL     1      31.801  -9.697 -21.860  0.00  0.00    -0.000 C 
ATOM     32  C   UNL     1      31.527 -11.851 -20.801  0.00  0.00    -0.000 C 
ATOM     33  C   UNL     1      31.156 -10.512 -20.930  0.00  0.00    -0.000 C 
ENDBRANCH  26  28
ENDBRANCH   2  26
TORSDOF 6
ENDMDL
MODEL 7
REMARK VINA RESULT:      -9.3      3.905     10.504
REMARK  Name = 24941249
REMARK  6 active torsions:
REMARK  status: ('A' for Active; 'I' for Inactive)
REMARK    1  A    between atoms: N_1  and  C_13
REMARK    2  A    between atoms: N_2  and  C_26
REMARK    3  A    between atoms: C_14  and  C_19
REMARK    4  A    between atoms: C_19  and  C_20
REMARK    5  A    between atoms: C_20  and  C_23
REMARK    6  A    between atoms: C_26  and  C_28
REMARK                            x       y       z     vdW  Elec       q    Type
REMARK                         _______ _______ _______ _____ _____    ______ ____
ROOT
ATOM      1  N   UNL     1      32.726 -12.681 -22.212  0.00  0.00    -0.230 N 
ATOM      2  N   UNL     1      32.190  -7.856 -21.648  0.00  0.00    -0.316 N 
ATOM      3  N   UNL     1      32.585 -13.731 -21.385  0.00  0.00    -0.169 NA
ATOM      4  N   UNL     1      31.841  -9.433 -19.901  0.00  0.00    -0.229 NA
ATOM      5  C   UNL     1      32.471 -11.470 -21.628  0.00  0.00    +0.088 A 
ATOM      6  C   UNL     1      32.136 -11.762 -20.311  0.00  0.00    +0.052 A 
ATOM      7  C   UNL     1      32.226 -13.167 -20.229  0.00  0.00    +0.082 A 
ATOM      8  C   UNL     1      32.504 -10.173 -22.127  0.00  0.00    +0.053 C 
ATOM      9  C   UNL     1      32.173  -9.202 -21.194  0.00  0.00    +0.130 C 
ATOM     10  C   UNL     1      31.819 -10.712 -19.450  0.00  0.00    +0.103 C 
ATOM     11  C   UNL     1      31.973 -14.019 -19.054  0.00  0.00    +0.054 C 
ATOM     12  H   UNL     1      32.432  -7.677 -22.585  0.00  0.00    +0.148 HD
ENDROOT
BRANCH   1  13
ATOM     13  C   UNL     1      33.102 -12.894 -23.538  0.00  0.00    +0.082 C 
ATOM     14  C   UNL     1      33.776 -14.398 -25.306  0.00  0.00    -0.020 C 
ATOM     15  C   UNL     1      33.400 -14.184 -23.980  0.00  0.00    +0.015 C 
ATOM     16  C   UNL     1      33.180 -11.819 -24.423  0.00  0.00    +0.019 C 
ATOM     17  C   UNL     1      33.854 -13.322 -26.191  0.00  0.00    -0.004 C 
ATOM     18  C   UNL     1      33.556 -12.033 -25.750  0.00  0.00    +0.001 C 
BRANCH  14  19
ATOM     19  C   UNL     1      34.096 -15.775 -25.778  0.00  0.00    +0.036 C 
BRANCH  19  20
ATOM     20  C   UNL     1      34.538 -16.693 -24.632  0.00  0.00    +0.089 C 
BRANCH  20  23
ATOM     21  O   UNL     1      32.664 -18.145 -25.153  0.00  0.00    -0.275 OA
ATOM     22  N   UNL     1      34.292 -18.905 -23.717  0.00  0.00    -0.329 N 
ATOM     23  C   UNL     1      33.719 -17.967 -24.549  0.00  0.00    +0.220 C 
ATOM     24  H   UNL     1      33.854 -19.775 -23.581  0.00  0.00    +0.145 HD
ATOM     25  H   UNL     1      35.140 -18.703 -23.259  0.00  0.00    +0.145 HD
ENDBRANCH  20  23
ENDBRANCH  19  20
ENDBRANCH  14  19
ENDBRANCH   1  13
BRANCH   2  26
ATOM     26  C   UNL     1      31.871  -6.757 -20.800  0.00  0.00    +0.093 C 
ATOM     27  C   UNL     1      32.992  -6.559 -19.781  0.00  0.00    +0.026 C 
BRANCH  26  28
ATOM     28  C   UNL     1      31.600  -5.519 -21.628  0.00  0.00    -0.005 C 
ATOM     29  C   UNL     1      31.951  -4.261 -21.138  0.00  0.00    -0.003 C 
ATOM     30  C   UNL     1      31.001  -5.636 -22.882  0.00  0.00    -0.003 C 
ATOM     31  C   UNL     1      31.701  -3.121 -21.901  0.00  0.00    -0.000 C 
ATOM     32  C   UNL     1      30.751  -4.496 -23.645  0.00  0.00    -0.000 C 
ATOM     33  C   UNL     1      31.102  -3.238 -23.155  0.00  0.00    -0.000 C 
ENDBRANCH  26  28
ENDBRANCH   2  26
TORSDOF 6
ENDMDL
