MODEL 1
REMARK VINA RESULT:     -11.9      0.000      0.000
REMARK  Name = 6450813
REMARK  4 active torsions:
REMARK  status: ('A' for Active; 'I' for Inactive)
REMARK    1  A    between atoms: C_4  and  C_10
REMARK    2  A    between atoms: C_6  and  C_22
REMARK    3  A    between atoms: C_12  and  N_17
REMARK    4  A    between atoms: C_22  and  C_24
REMARK                            x       y       z     vdW  Elec       q    Type
REMARK                         _______ _______ _______ _____ _____    ______ ____
ROOT
ATOM      1  N   UNL     1      34.758 -15.802 -22.193  0.00  0.00    -0.191 N 
ATOM      2  N   UNL     1      34.941 -15.271 -20.951  0.00  0.00    -0.179 NA
ATOM      3  N   UNL     1      34.044 -15.121 -24.394  0.00  0.00    -0.231 NA
ATOM      4  C   UNL     1      34.958 -17.131 -22.603  0.00  0.00    +0.143 C 
ATOM      5  C   UNL     1      34.307 -14.828 -23.089  0.00  0.00    +0.141 C 
ATOM      6  C   UNL     1      34.217 -13.652 -22.379  0.00  0.00    +0.161 C 
ATOM      7  C   UNL     1      34.710 -17.463 -23.881  0.00  0.00    +0.020 C 
ATOM      8  C   UNL     1      34.616 -13.986 -21.080  0.00  0.00    +0.106 C 
ATOM      9  C   UNL     1      34.235 -16.355 -24.746  0.00  0.00    +0.097 C 
ENDROOT
BRANCH   4  10
ATOM     10  C   UNL     1      35.446 -18.165 -21.672  0.00  0.00    +0.003 C 
ATOM     11  C   UNL     1      34.541 -19.019 -21.040  0.00  0.00    +0.013 C 
ATOM     12  C   UNL     1      35.002 -19.998 -20.161  0.00  0.00    +0.054 C 
ATOM     13  C   UNL     1      36.812 -18.290 -21.423  0.00  0.00    -0.002 C 
ATOM     14  C   UNL     1      36.369 -20.122 -19.911  0.00  0.00    +0.015 C 
ATOM     15  C   UNL     1      37.275 -19.269 -20.542  0.00  0.00    +0.001 C 
BRANCH  12  17
ATOM     16  O   UNL     1      35.677 -22.173 -18.373  0.00  0.00    -0.275 OA
ATOM     17  N   UNL     1      34.098 -20.852 -19.528  0.00  0.00    -0.257 N 
ATOM     18  C   UNL     1      32.635 -20.618 -19.731  0.00  0.00    +0.120 C 
ATOM     19  C   UNL     1      34.501 -21.891 -18.620  0.00  0.00    +0.230 C 
ATOM     20  C   UNL     1      33.424 -22.662 -17.893  0.00  0.00    +0.095 C 
ENDBRANCH  12  17
ENDBRANCH   4  10
BRANCH   6  22
ATOM     21  O   UNL     1      34.280 -11.906 -23.942  0.00  0.00    -0.290 OA
ATOM     22  C   UNL     1      33.797 -12.386 -22.898  0.00  0.00    +0.191 C 
BRANCH  22  24
ATOM     23  S   UNL     1      32.657  -9.975 -22.413  0.00  0.00    -0.084 S 
ATOM     24  C   UNL     1      32.752 -11.639 -22.157  0.00  0.00    +0.065 C 
ATOM     25  C   UNL     1      31.856 -12.144 -21.292  0.00  0.00    +0.010 C 
ATOM     26  C   UNL     1      31.020 -11.107 -20.788  0.00  0.00    +0.008 C 
ATOM     27  C   UNL     1      31.346  -9.877 -21.315  0.00  0.00    +0.036 C 
ENDBRANCH  22  24
ENDBRANCH   6  22
TORSDOF 4
ENDMDL
MODEL 2
REMARK VINA RESULT:     -11.9      3.140      8.754
REMARK  Name = 6450813
REMARK  4 active torsions:
REMARK  status: ('A' for Active; 'I' for Inactive)
REMARK    1  A    between atoms: C_4  and  C_10
REMARK    2  A    between atoms: C_6  and  C_22
REMARK    3  A    between atoms: C_12  and  N_17
REMARK    4  A    between atoms: C_22  and  C_24
REMARK                            x       y       z     vdW  Elec       q    Type
REMARK                         _______ _______ _______ _____ _____    ______ ____
ROOT
ATOM      1  N   UNL     1      34.983 -16.063 -22.134  0.00  0.00    -0.191 N 
ATOM      2  N   UNL     1      35.249 -16.743 -23.284  0.00  0.00    -0.179 NA
ATOM      3  N   UNL     1      35.155 -16.356 -19.746  0.00  0.00    -0.231 NA
ATOM      4  C   UNL     1      34.426 -14.780 -21.996  0.00  0.00    +0.143 C 
ATOM      5  C   UNL     1      35.335 -16.822 -21.014  0.00  0.00    +0.141 C 
ATOM      6  C   UNL     1      35.844 -18.010 -21.489  0.00  0.00    +0.161 C 
ATOM      7  C   UNL     1      34.231 -14.282 -20.764  0.00  0.00    +0.020 C 
ATOM      8  C   UNL     1      35.765 -17.903 -22.882  0.00  0.00    +0.106 C 
ATOM      9  C   UNL     1      34.638 -15.171 -19.647  0.00  0.00    +0.097 C 
ENDROOT
BRANCH   4  10
ATOM     10  C   UNL     1      34.063 -13.963 -23.168  0.00  0.00    +0.003 C 
ATOM     11  C   UNL     1      34.272 -12.583 -23.150  0.00  0.00    +0.013 C 
ATOM     12  C   UNL     1      33.929 -11.810 -24.258  0.00  0.00    +0.054 C 
ATOM     13  C   UNL     1      33.510 -14.568 -24.297  0.00  0.00    -0.002 C 
ATOM     14  C   UNL     1      33.376 -12.415 -25.386  0.00  0.00    +0.015 C 
ATOM     15  C   UNL     1      33.166 -13.795 -25.406  0.00  0.00    +0.001 C 
BRANCH  12  17
ATOM     16  O   UNL     1      32.474  -9.887 -22.656  0.00  0.00    -0.275 OA
ATOM     17  N   UNL     1      34.137 -10.430 -24.240  0.00  0.00    -0.257 N 
ATOM     18  C   UNL     1      35.239  -9.865 -25.078  0.00  0.00    +0.120 C 
ATOM     19  C   UNL     1      33.402  -9.535 -23.389  0.00  0.00    +0.230 C 
ATOM     20  C   UNL     1      33.810  -8.080 -23.360  0.00  0.00    +0.095 C 
ENDBRANCH  12  17
ENDBRANCH   4  10
BRANCH   6  22
ATOM     21  O   UNL     1      37.550 -19.261 -20.480  0.00  0.00    -0.290 OA
ATOM     22  C   UNL     1      36.333 -19.095 -20.693  0.00  0.00    +0.191 C 
BRANCH  22  24
ATOM     23  S   UNL     1      35.938 -21.280 -19.139  0.00  0.00    -0.084 S 
ATOM     24  C   UNL     1      35.347 -20.035 -20.110  0.00  0.00    +0.065 C 
ATOM     25  C   UNL     1      34.012 -20.010 -20.269  0.00  0.00    +0.010 C 
ATOM     26  C   UNL     1      33.411 -21.082 -19.551  0.00  0.00    +0.008 C 
ATOM     27  C   UNL     1      34.343 -21.851 -18.890  0.00  0.00    +0.036 C 
ENDBRANCH  22  24
ENDBRANCH   6  22
TORSDOF 4
ENDMDL
MODEL 3
REMARK VINA RESULT:     -11.5      1.468      1.768
REMARK  Name = 6450813
REMARK  4 active torsions:
REMARK  status: ('A' for Active; 'I' for Inactive)
REMARK    1  A    between atoms: C_4  and  C_10
REMARK    2  A    between atoms: C_6  and  C_22
REMARK    3  A    between atoms: C_12  and  N_17
REMARK    4  A    between atoms: C_22  and  C_24
REMARK                            x       y       z     vdW  Elec       q    Type
REMARK                         _______ _______ _______ _____ _____    ______ ____
ROOT
ATOM      1  N   UNL     1      34.543 -16.299 -23.044  0.00  0.00    -0.191 N 
ATOM      2  N   UNL     1      34.958 -15.447 -22.064  0.00  0.00    -0.179 NA
ATOM      3  N   UNL     1      33.439 -16.235 -25.187  0.00  0.00    -0.231 NA
ATOM      4  C   UNL     1      34.655 -17.699 -23.075  0.00  0.00    +0.143 C 
ATOM      5  C   UNL     1      33.941 -15.597 -24.092  0.00  0.00    +0.141 C 
ATOM      6  C   UNL     1      33.993 -14.264 -23.754  0.00  0.00    +0.161 C 
ATOM      7  C   UNL     1      34.172 -18.368 -24.136  0.00  0.00    +0.020 C 
ATOM      8  C   UNL     1      34.624 -14.235 -22.505  0.00  0.00    +0.106 C 
ATOM      9  C   UNL     1      33.553 -17.527 -25.190  0.00  0.00    +0.097 C 
ENDROOT
BRANCH   4  10
ATOM     10  C   UNL     1      35.299 -18.451 -21.983  0.00  0.00    +0.003 C 
ATOM     11  C   UNL     1      34.550 -19.339 -21.209  0.00  0.00    +0.013 C 
ATOM     12  C   UNL     1      35.159 -20.051 -20.177  0.00  0.00    +0.054 C 
ATOM     13  C   UNL     1      36.658 -18.277 -21.723  0.00  0.00    -0.002 C 
ATOM     14  C   UNL     1      36.518 -19.875 -19.916  0.00  0.00    +0.015 C 
ATOM     15  C   UNL     1      37.268 -18.988 -20.689  0.00  0.00    +0.001 C 
BRANCH  12  17
ATOM     16  O   UNL     1      36.217 -21.999 -18.314  0.00  0.00    -0.275 OA
ATOM     17  N   UNL     1      34.410 -20.938 -19.402  0.00  0.00    -0.257 N 
ATOM     18  C   UNL     1      32.919 -20.869 -19.481  0.00  0.00    +0.120 C 
ATOM     19  C   UNL     1      35.001 -21.856 -18.466  0.00  0.00    +0.230 C 
ATOM     20  C   UNL     1      34.080 -22.671 -17.587  0.00  0.00    +0.095 C 
ENDBRANCH  12  17
ENDBRANCH   4  10
BRANCH   6  22
ATOM     21  O   UNL     1      32.861 -13.360 -25.596  0.00  0.00    -0.290 OA
ATOM     22  C   UNL     1      33.494 -13.176 -24.538  0.00  0.00    +0.191 C 
BRANCH  22  24
ATOM     23  S   UNL     1      32.828 -11.248 -22.753  0.00  0.00    -0.084 S 
ATOM     24  C   UNL     1      33.744 -11.795 -24.058  0.00  0.00    +0.065 C 
ATOM     25  C   UNL     1      34.632 -10.916 -24.552  0.00  0.00    +0.010 C 
ATOM     26  C   UNL     1      34.574  -9.695 -23.820  0.00  0.00    +0.008 C 
ATOM     27  C   UNL     1      33.635  -9.739 -22.814  0.00  0.00    +0.036 C 
ENDBRANCH  22  24
ENDBRANCH   6  22
TORSDOF 4
ENDMDL
MODEL 4
REMARK VINA RESULT:     -11.0      4.823     10.144
REMARK  Name = 6450813
REMARK  4 active torsions:
REMARK  status: ('A' for Active; 'I' for Inactive)
REMARK    1  A    between atoms: C_4  and  C_10
REMARK    2  A    between atoms: C_6  and  C_22
REMARK    3  A    between atoms: C_12  and  N_17
REMARK    4  A    between atoms: C_22  and  C_24
REMARK                            x       y       z     vdW  Elec       q    Type
REMARK                         _______ _______ _______ _____ _____    ______ ____
ROOT
ATOM      1  N   UNL     1      35.594 -21.413 -18.070  0.00  0.00    -0.191 N 
ATOM      2  N   UNL     1      36.851 -21.092 -17.653  0.00  0.00    -0.179 NA
ATOM      3  N   UNL     1      33.714 -22.753 -17.372  0.00  0.00    -0.231 NA
ATOM      4  C   UNL     1      34.934 -20.986 -19.235  0.00  0.00    +0.143 C 
ATOM      5  C   UNL     1      34.977 -22.284 -17.167  0.00  0.00    +0.141 C 
ATOM      6  C   UNL     1      35.880 -22.501 -16.151  0.00  0.00    +0.161 C 
ATOM      7  C   UNL     1      33.687 -21.426 -19.477  0.00  0.00    +0.020 C 
ATOM      8  C   UNL     1      37.005 -21.748 -16.504  0.00  0.00    +0.106 C 
ATOM      9  C   UNL     1      33.128 -22.345 -18.455  0.00  0.00    +0.097 C 
ENDROOT
BRANCH   4  10
ATOM     10  C   UNL     1      35.567 -20.058 -20.190  0.00  0.00    +0.003 C 
ATOM     11  C   UNL     1      34.824 -19.524 -21.243  0.00  0.00    +0.013 C 
ATOM     12  C   UNL     1      35.422 -18.647 -22.146  0.00  0.00    +0.054 C 
ATOM     13  C   UNL     1      36.910 -19.712 -20.040  0.00  0.00    -0.002 C 
ATOM     14  C   UNL     1      36.766 -18.302 -21.996  0.00  0.00    +0.015 C 
ATOM     15  C   UNL     1      37.510 -18.834 -20.943  0.00  0.00    +0.001 C 
BRANCH  12  17
ATOM     16  O   UNL     1      35.230 -15.845 -22.851  0.00  0.00    -0.275 OA
ATOM     17  N   UNL     1      34.680 -18.113 -23.201  0.00  0.00    -0.257 N 
ATOM     18  C   UNL     1      33.943 -19.054 -24.100  0.00  0.00    +0.120 C 
ATOM     19  C   UNL     1      34.659 -16.711 -23.518  0.00  0.00    +0.230 C 
ATOM     20  C   UNL     1      33.927 -16.272 -24.765  0.00  0.00    +0.095 C 
ENDBRANCH  12  17
ENDBRANCH   4  10
BRANCH   6  22
ATOM     21  O   UNL     1      34.653 -23.232 -14.293  0.00  0.00    -0.290 OA
ATOM     22  C   UNL     1      35.673 -23.330 -15.003  0.00  0.00    +0.191 C 
BRANCH  22  24
ATOM     23  S   UNL     1      36.254 -25.954 -14.655  0.00  0.00    -0.084 S 
ATOM     24  C   UNL     1      36.713 -24.331 -14.666  0.00  0.00    +0.065 C 
ATOM     25  C   UNL     1      38.000 -24.092 -14.366  0.00  0.00    +0.010 C 
ATOM     26  C   UNL     1      38.680 -25.315 -14.102  0.00  0.00    +0.008 C 
ATOM     27  C   UNL     1      37.849 -26.406 -14.223  0.00  0.00    +0.036 C 
ENDBRANCH  22  24
ENDBRANCH   6  22
TORSDOF 4
ENDMDL
MODEL 5
REMARK VINA RESULT:     -10.9      3.039      7.826
REMARK  Name = 6450813
REMARK  4 active torsions:
REMARK  status: ('A' for Active; 'I' for Inactive)
REMARK    1  A    between atoms: C_4  and  C_10
REMARK    2  A    between atoms: C_6  and  C_22
REMARK    3  A    between atoms: C_12  and  N_17
REMARK    4  A    between atoms: C_22  and  C_24
REMARK                            x       y       z     vdW  Elec       q    Type
REMARK                         _______ _______ _______ _____ _____    ______ ____
ROOT
ATOM      1  N   UNL     1      34.710 -16.820 -22.695  0.00  0.00    -0.191 N 
ATOM      2  N   UNL     1      35.064 -16.015 -21.655  0.00  0.00    -0.179 NA
ATOM      3  N   UNL     1      34.733 -19.154 -23.302  0.00  0.00    -0.231 NA
ATOM      4  C   UNL     1      34.143 -16.444 -23.925  0.00  0.00    +0.143 C 
ATOM      5  C   UNL     1      34.993 -18.159 -22.409  0.00  0.00    +0.141 C 
ATOM      6  C   UNL     1      35.533 -18.183 -21.143  0.00  0.00    +0.161 C 
ATOM      7  C   UNL     1      33.871 -17.394 -24.836  0.00  0.00    +0.020 C 
ATOM      8  C   UNL     1      35.552 -16.845 -20.734  0.00  0.00    +0.106 C 
ATOM      9  C   UNL     1      34.212 -18.780 -24.430  0.00  0.00    +0.097 C 
ENDROOT
BRANCH   4  10
ATOM     10  C   UNL     1      33.826 -15.038 -24.236  0.00  0.00    +0.003 C 
ATOM     11  C   UNL     1      33.463 -14.161 -23.213  0.00  0.00    +0.013 C 
ATOM     12  C   UNL     1      33.164 -12.831 -23.507  0.00  0.00    +0.054 C 
ATOM     13  C   UNL     1      33.891 -14.584 -25.553  0.00  0.00    -0.002 C 
ATOM     14  C   UNL     1      33.228 -12.377 -24.825  0.00  0.00    +0.015 C 
ATOM     15  C   UNL     1      33.592 -13.253 -25.848  0.00  0.00    +0.001 C 
BRANCH  12  17
ATOM     16  O   UNL     1      31.940 -13.562 -20.988  0.00  0.00    -0.275 OA
ATOM     17  N   UNL     1      32.800 -11.953 -22.485  0.00  0.00    -0.257 N 
ATOM     18  C   UNL     1      33.101 -10.499 -22.655  0.00  0.00    +0.120 C 
ATOM     19  C   UNL     1      32.229 -12.389 -21.240  0.00  0.00    +0.230 C 
ATOM     20  C   UNL     1      32.001 -11.359 -20.159  0.00  0.00    +0.095 C 
ENDBRANCH  12  17
ENDBRANCH   4  10
BRANCH   6  22
ATOM     21  O   UNL     1      37.180 -19.600 -20.262  0.00  0.00    -0.290 OA
ATOM     22  C   UNL     1      35.972 -19.349 -20.437  0.00  0.00    +0.191 C 
BRANCH  22  24
ATOM     23  S   UNL     1      35.474 -21.600 -19.012  0.00  0.00    -0.084 S 
ATOM     24  C   UNL     1      34.941 -20.271 -19.902  0.00  0.00    +0.065 C 
ATOM     25  C   UNL     1      33.609 -20.168 -20.047  0.00  0.00    +0.010 C 
ATOM     26  C   UNL     1      32.958 -21.249 -19.387  0.00  0.00    +0.008 C 
ATOM     27  C   UNL     1      33.853 -22.103 -18.783  0.00  0.00    +0.036 C 
ENDBRANCH  22  24
ENDBRANCH   6  22
TORSDOF 4
ENDMDL
MODEL 6
REMARK VINA RESULT:     -10.9      3.018      8.803
REMARK  Name = 6450813
REMARK  4 active torsions:
REMARK  status: ('A' for Active; 'I' for Inactive)
REMARK    1  A    between atoms: C_4  and  C_10
REMARK    2  A    between atoms: C_6  and  C_22
REMARK    3  A    between atoms: C_12  and  N_17
REMARK    4  A    between atoms: C_22  and  C_24
REMARK                            x       y       z     vdW  Elec       q    Type
REMARK                         _______ _______ _______ _____ _____    ______ ____
ROOT
ATOM      1  N   UNL     1      34.428 -15.217 -21.861  0.00  0.00    -0.191 N 
ATOM      2  N   UNL     1      34.565 -15.155 -20.506  0.00  0.00    -0.179 NA
ATOM      3  N   UNL     1      35.038 -16.647 -23.705  0.00  0.00    -0.231 NA
ATOM      4  C   UNL     1      33.791 -14.295 -22.708  0.00  0.00    +0.143 C 
ATOM      5  C   UNL     1      35.036 -16.368 -22.371  0.00  0.00    +0.141 C 
ATOM      6  C   UNL     1      35.560 -17.046 -21.294  0.00  0.00    +0.161 C 
ATOM      7  C   UNL     1      33.770 -14.531 -24.031  0.00  0.00    +0.020 C 
ATOM      8  C   UNL     1      35.241 -16.257 -20.183  0.00  0.00    +0.106 C 
ATOM      9  C   UNL     1      34.445 -15.779 -24.465  0.00  0.00    +0.097 C 
ENDROOT
BRANCH   4  10
ATOM     10  C   UNL     1      33.134 -13.084 -22.183  0.00  0.00    +0.003 C 
ATOM     11  C   UNL     1      33.377 -11.844 -22.776  0.00  0.00    +0.013 C 
ATOM     12  C   UNL     1      32.756 -10.699 -22.280  0.00  0.00    +0.054 C 
ATOM     13  C   UNL     1      32.269 -13.176 -21.093  0.00  0.00    -0.002 C 
ATOM     14  C   UNL     1      31.891 -10.792 -21.189  0.00  0.00    +0.015 C 
ATOM     15  C   UNL     1      31.647 -12.031 -20.595  0.00  0.00    +0.001 C 
BRANCH  12  17
ATOM     16  O   UNL     1      30.948  -8.438 -22.305  0.00  0.00    -0.275 OA
ATOM     17  N   UNL     1      32.999  -9.458 -22.872  0.00  0.00    -0.257 N 
ATOM     18  C   UNL     1      34.326  -9.226 -23.518  0.00  0.00    +0.120 C 
ATOM     19  C   UNL     1      32.069  -8.363 -22.813  0.00  0.00    +0.230 C 
ATOM     20  C   UNL     1      32.502  -7.029 -23.375  0.00  0.00    +0.095 C 
ENDBRANCH  12  17
ENDBRANCH   4  10
BRANCH   6  22
ATOM     21  O   UNL     1      37.301 -18.430 -22.035  0.00  0.00    -0.290 OA
ATOM     22  C   UNL     1      36.273 -18.286 -21.345  0.00  0.00    +0.191 C 
BRANCH  22  24
ATOM     23  S   UNL     1      34.104 -19.741 -20.618  0.00  0.00    -0.084 S 
ATOM     24  C   UNL     1      35.758 -19.422 -20.543  0.00  0.00    +0.065 C 
ATOM     25  C   UNL     1      36.470 -20.241 -19.750  0.00  0.00    +0.010 C 
ATOM     26  C   UNL     1      35.616 -21.209 -19.149  0.00  0.00    +0.008 C 
ATOM     27  C   UNL     1      34.303 -21.052 -19.534  0.00  0.00    +0.036 C 
ENDBRANCH  22  24
ENDBRANCH   6  22
TORSDOF 4
ENDMDL
MODEL 7
REMARK VINA RESULT:     -10.5      3.280      8.264
REMARK  Name = 6450813
REMARK  4 active torsions:
REMARK  status: ('A' for Active; 'I' for Inactive)
REMARK    1  A    between atoms: C_4  and  C_10
REMARK    2  A    between atoms: C_6  and  C_22
REMARK    3  A    between atoms: C_12  and  N_17
REMARK    4  A    between atoms: C_22  and  C_24
REMARK                            x       y       z     vdW  Elec       q    Type
REMARK                         _______ _______ _______ _____ _____    ______ ____
ROOT
ATOM      1  N   UNL     1      34.249 -14.112 -23.652  0.00  0.00    -0.191 N 
ATOM      2  N   UNL     1      34.706 -14.100 -22.368  0.00  0.00    -0.179 NA
ATOM      3  N   UNL     1      33.818 -15.680 -25.432  0.00  0.00    -0.231 NA
ATOM      4  C   UNL     1      33.842 -13.019 -24.435  0.00  0.00    +0.143 C 
ATOM      5  C   UNL     1      34.230 -15.413 -24.162  0.00  0.00    +0.141 C 
ATOM      6  C   UNL     1      34.683 -16.236 -23.155  0.00  0.00    +0.161 C 
ATOM      7  C   UNL     1      33.428 -13.236 -25.694  0.00  0.00    +0.020 C 
ATOM      8  C   UNL     1      34.959 -15.377 -22.085  0.00  0.00    +0.106 C 
ATOM      9  C   UNL     1      33.449 -14.654 -26.134  0.00  0.00    +0.097 C 
ENDROOT
BRANCH   4  10
ATOM     10  C   UNL     1      33.843 -11.642 -23.906  0.00  0.00    +0.003 C 
ATOM     11  C   UNL     1      32.976 -11.290 -22.871  0.00  0.00    +0.013 C 
ATOM     12  C   UNL     1      32.978  -9.989 -22.371  0.00  0.00    +0.054 C 
ATOM     13  C   UNL     1      34.712 -10.691 -24.440  0.00  0.00    -0.002 C 
ATOM     14  C   UNL     1      33.847  -9.037 -22.906  0.00  0.00    +0.015 C 
ATOM     15  C   UNL     1      34.715  -9.389 -23.941  0.00  0.00    +0.001 C 
BRANCH  12  17
ATOM     16  O   UNL     1      32.181 -11.681 -20.161  0.00  0.00    -0.275 OA
ATOM     17  N   UNL     1      32.111  -9.635 -21.336  0.00  0.00    -0.257 N 
ATOM     18  C   UNL     1      31.564  -8.244 -21.309  0.00  0.00    +0.120 C 
ATOM     19  C   UNL     1      31.787 -10.515 -20.246  0.00  0.00    +0.230 C 
ATOM     20  C   UNL     1      30.943  -9.971 -19.116  0.00  0.00    +0.095 C 
ENDBRANCH  12  17
ENDBRANCH   4  10
BRANCH   6  22
ATOM     21  O   UNL     1      34.408 -18.315 -24.203  0.00  0.00    -0.290 OA
ATOM     22  C   UNL     1      34.829 -17.658 -23.231  0.00  0.00    +0.191 C 
BRANCH  22  24
ATOM     23  S   UNL     1      34.584 -19.413 -21.180  0.00  0.00    -0.084 S 
ATOM     24  C   UNL     1      35.507 -18.352 -22.110  0.00  0.00    +0.065 C 
ATOM     25  C   UNL     1      36.795 -18.232 -21.744  0.00  0.00    +0.010 C 
ATOM     26  C   UNL     1      37.067 -19.062 -20.620  0.00  0.00    +0.008 C 
ATOM     27  C   UNL     1      35.952 -19.760 -20.209  0.00  0.00    +0.036 C 
ENDBRANCH  22  24
ENDBRANCH   6  22
TORSDOF 4
ENDMDL
MODEL 8
REMARK VINA RESULT:     -10.3      5.857      9.500
REMARK  Name = 6450813
REMARK  4 active torsions:
REMARK  status: ('A' for Active; 'I' for Inactive)
REMARK    1  A    between atoms: C_4  and  C_10
REMARK    2  A    between atoms: C_6  and  C_22
REMARK    3  A    between atoms: C_12  and  N_17
REMARK    4  A    between atoms: C_22  and  C_24
REMARK                            x       y       z     vdW  Elec       q    Type
REMARK                         _______ _______ _______ _____ _____    ______ ____
ROOT
ATOM      1  N   UNL     1      34.237 -22.914 -16.266  0.00  0.00    -0.191 N 
ATOM      2  N   UNL     1      35.540 -22.680 -16.591  0.00  0.00    -0.179 NA
ATOM      3  N   UNL     1      32.027 -22.540 -17.155  0.00  0.00    -0.231 NA
ATOM      4  C   UNL     1      33.733 -23.539 -15.113  0.00  0.00    +0.143 C 
ATOM      5  C   UNL     1      33.381 -22.429 -17.259  0.00  0.00    +0.141 C 
ATOM      6  C   UNL     1      34.182 -21.883 -18.236  0.00  0.00    +0.161 C 
ATOM      7  C   UNL     1      32.403 -23.670 -14.970  0.00  0.00    +0.020 C 
ATOM      8  C   UNL     1      35.489 -22.065 -17.772  0.00  0.00    +0.106 C 
ATOM      9  C   UNL     1      31.587 -23.119 -16.081  0.00  0.00    +0.097 C 
ENDROOT
BRANCH   4  10
ATOM     10  C   UNL     1      34.624 -24.068 -14.064  0.00  0.00    +0.003 C 
ATOM     11  C   UNL     1      35.828 -24.683 -14.414  0.00  0.00    +0.013 C 
ATOM     12  C   UNL     1      36.671 -25.182 -13.422  0.00  0.00    +0.054 C 
ATOM     13  C   UNL     1      34.266 -23.953 -12.722  0.00  0.00    -0.002 C 
ATOM     14  C   UNL     1      36.311 -25.068 -12.079  0.00  0.00    +0.015 C 
ATOM     15  C   UNL     1      35.108 -24.453 -11.728  0.00  0.00    +0.001 C 
BRANCH  12  17
ATOM     16  O   UNL     1      39.323 -24.267 -12.711  0.00  0.00    -0.275 OA
ATOM     17  N   UNL     1      37.873 -25.798 -13.771  0.00  0.00    -0.257 N 
ATOM     18  C   UNL     1      37.821 -27.078 -14.542  0.00  0.00    +0.120 C 
ATOM     19  C   UNL     1      39.158 -25.308 -13.351  0.00  0.00    +0.230 C 
ATOM     20  C   UNL     1      40.379 -26.136 -13.678  0.00  0.00    +0.095 C 
ENDBRANCH  12  17
ENDBRANCH   4  10
BRANCH   6  22
ATOM     21  O   UNL     1      32.604 -21.497 -19.926  0.00  0.00    -0.290 OA
ATOM     22  C   UNL     1      33.732 -21.268 -19.448  0.00  0.00    +0.191 C 
BRANCH  22  24
ATOM     23  S   UNL     1      34.012 -19.404 -21.395  0.00  0.00    -0.084 S 
ATOM     24  C   UNL     1      34.649 -20.330 -20.139  0.00  0.00    +0.065 C 
ATOM     25  C   UNL     1      35.951 -20.129 -19.873  0.00  0.00    +0.010 C 
ATOM     26  C   UNL     1      36.487 -19.147 -20.755  0.00  0.00    +0.008 C 
ATOM     27  C   UNL     1      35.541 -18.669 -21.634  0.00  0.00    +0.036 C 
ENDBRANCH  22  24
ENDBRANCH   6  22
TORSDOF 4
ENDMDL
MODEL 9
REMARK VINA RESULT:     -10.2      3.438      5.828
REMARK  Name = 6450813
REMARK  4 active torsions:
REMARK  status: ('A' for Active; 'I' for Inactive)
REMARK    1  A    between atoms: C_4  and  C_10
REMARK    2  A    between atoms: C_6  and  C_22
REMARK    3  A    between atoms: C_12  and  N_17
REMARK    4  A    between atoms: C_22  and  C_24
REMARK                            x       y       z     vdW  Elec       q    Type
REMARK                         _______ _______ _______ _____ _____    ______ ____
ROOT
ATOM      1  N   UNL     1      35.315 -20.391 -19.490  0.00  0.00    -0.191 N 
ATOM      2  N   UNL     1      36.612 -19.975 -19.479  0.00  0.00    -0.179 NA
ATOM      3  N   UNL     1      33.300 -20.089 -20.781  0.00  0.00    -0.231 NA
ATOM      4  C   UNL     1      34.677 -21.256 -18.585  0.00  0.00    +0.143 C 
ATOM      5  C   UNL     1      34.620 -19.827 -20.564  0.00  0.00    +0.141 C 
ATOM      6  C   UNL     1      35.521 -19.041 -21.246  0.00  0.00    +0.161 C 
ATOM      7  C   UNL     1      33.376 -21.541 -18.761  0.00  0.00    +0.020 C 
ATOM      8  C   UNL     1      36.720 -19.171 -20.535  0.00  0.00    +0.106 C 
ATOM      9  C   UNL     1      32.735 -20.889 -19.930  0.00  0.00    +0.097 C 
ENDROOT
BRANCH   4  10
ATOM     10  C   UNL     1      35.401 -21.868 -17.455  0.00  0.00    +0.003 C 
ATOM     11  C   UNL     1      34.729 -22.715 -16.572  0.00  0.00    +0.013 C 
ATOM     12  C   UNL     1      35.413 -23.295 -15.504  0.00  0.00    +0.054 C 
ATOM     13  C   UNL     1      36.757 -21.603 -17.270  0.00  0.00    -0.002 C 
ATOM     14  C   UNL     1      36.770 -23.028 -15.319  0.00  0.00    +0.015 C 
ATOM     15  C   UNL     1      37.442 -22.182 -16.202  0.00  0.00    +0.001 C 
BRANCH  12  17
ATOM     16  O   UNL     1      32.818 -22.808 -14.317  0.00  0.00    -0.275 OA
ATOM     17  N   UNL     1      34.742 -24.140 -14.620  0.00  0.00    -0.257 N 
ATOM     18  C   UNL     1      35.373 -25.450 -14.270  0.00  0.00    +0.120 C 
ATOM     19  C   UNL     1      33.435 -23.853 -14.096  0.00  0.00    +0.230 C 
ATOM     20  C   UNL     1      32.755 -24.909 -13.254  0.00  0.00    +0.095 C 
ENDBRANCH  12  17
ENDBRANCH   4  10
BRANCH   6  22
ATOM     21  O   UNL     1      35.160 -18.796 -23.549  0.00  0.00    -0.290 OA
ATOM     22  C   UNL     1      35.247 -18.272 -22.421  0.00  0.00    +0.191 C 
BRANCH  22  24
ATOM     23  S   UNL     1      34.859 -15.902 -23.678  0.00  0.00    -0.084 S 
ATOM     24  C   UNL     1      35.060 -16.809 -22.271  0.00  0.00    +0.065 C 
ATOM     25  C   UNL     1      35.031 -16.110 -21.123  0.00  0.00    +0.010 C 
ATOM     26  C   UNL     1      34.830 -14.727 -21.394  0.00  0.00    +0.008 C 
ATOM     27  C   UNL     1      34.720 -14.473 -22.743  0.00  0.00    +0.036 C 
ENDBRANCH  22  24
ENDBRANCH   6  22
TORSDOF 4
ENDMDL
