MODEL 1
REMARK VINA RESULT:     -12.4      0.000      0.000
REMARK  Name = 10224181
REMARK  7 active torsions:
REMARK  status: ('A' for Active; 'I' for Inactive)
REMARK    1  A    between atoms: N_3  and  C_23
REMARK    2  A    between atoms: C_12  and  C_14
REMARK    3  A    between atoms: C_15  and  C_16
REMARK    4  A    between atoms: C_16  and  C_17
REMARK    5  A    between atoms: C_23  and  C_24
REMARK    6  A    between atoms: C_29  and  C_31
REMARK    7  A    between atoms: C_31  and  O_32
REMARK                            x       y       z     vdW  Elec       q    Type
REMARK                         _______ _______ _______ _____ _____    ______ ____
ROOT
ATOM      1  O   UNL     1      35.406 -16.205 -19.600  0.00  0.00    -0.267 OA
ATOM      2  O   UNL     1      35.996 -18.593 -23.543  0.00  0.00    -0.246 OA
ATOM      3  N   UNL     1      35.719 -17.424 -21.564  0.00  0.00    -0.244 N 
ATOM      4  N   UNL     1      34.737 -16.649 -23.598  0.00  0.00    -0.279 N 
ATOM      5  C   UNL     1      34.185 -15.529 -22.909  0.00  0.00    +0.069 A 
ATOM      6  C   UNL     1      34.411 -15.372 -21.540  0.00  0.00    +0.073 A 
ATOM      7  C   UNL     1      35.218 -16.360 -20.805  0.00  0.00    +0.266 A 
ATOM      8  C   UNL     1      35.515 -17.621 -22.949  0.00  0.00    +0.334 A 
ATOM      9  C   UNL     1      33.876 -14.276 -20.844  0.00  0.00    +0.014 C 
ATOM     10  C   UNL     1      33.407 -14.559 -23.567  0.00  0.00    +0.018 C 
ATOM     11  C   UNL     1      34.484 -16.789 -25.032  0.00  0.00    +0.135 C 
ATOM     12  C   UNL     1      33.109 -13.327 -21.512  0.00  0.00    +0.042 C 
ATOM     13  C   UNL     1      32.875 -13.468 -22.874  0.00  0.00    +0.010 C 
ENDROOT
BRANCH  12  14
ATOM     14  C   UNL     1      32.566 -12.213 -20.802  0.00  0.00    -0.064 C 
ATOM     15  C   UNL     1      32.111 -11.271 -20.204  0.00  0.00    -0.082 C 
BRANCH  15  16
ATOM     16  C   UNL     1      31.560 -10.122 -19.477  0.00  0.00    +0.103 C 
BRANCH  16  17
ATOM     17  C   UNL     1      31.851  -8.819 -20.178  0.00  0.00    -0.009 C 
ATOM     18  C   UNL     1      32.618  -7.857 -19.540  0.00  0.00    -0.003 C 
ATOM     19  C   UNL     1      31.346  -8.604 -21.453  0.00  0.00    -0.003 C 
ATOM     20  C   UNL     1      32.888  -6.652 -20.189  0.00  0.00    -0.000 C 
ATOM     21  C   UNL     1      31.615  -7.399 -22.102  0.00  0.00    -0.000 C 
ATOM     22  C   UNL     1      32.385  -6.424 -21.471  0.00  0.00    -0.000 C 
ENDBRANCH  16  17
ENDBRANCH  15  16
ENDBRANCH  12  14
BRANCH   3  23
ATOM     23  C   UNL     1      36.525 -18.420 -20.863  0.00  0.00    +0.140 C 
BRANCH  23  24
ATOM     24  C   UNL     1      35.673 -19.496 -20.243  0.00  0.00    +0.001 C 
ATOM     25  C   UNL     1      36.273 -20.484 -19.475  0.00  0.00    -0.002 C 
ATOM     26  C   UNL     1      34.301 -19.484 -20.447  0.00  0.00    -0.002 C 
ATOM     27  C   UNL     1      35.484 -21.480 -18.900  0.00  0.00    +0.006 C 
ATOM     28  C   UNL     1      33.512 -20.480 -19.873  0.00  0.00    +0.006 C 
ATOM     29  C   UNL     1      34.104 -21.479 -19.099  0.00  0.00    +0.075 C 
BRANCH  29  31
ATOM     30  O   UNL     1      32.252 -22.325 -17.842  0.00  0.00    -0.245 OA
ATOM     31  C   UNL     1      33.281 -22.518 -18.499  0.00  0.00    +0.338 C 
BRANCH  31  32
ATOM     32  O   UNL     1      33.766 -23.767 -18.734  0.00  0.00    -0.477 OA
ATOM     33  H   UNL     1      33.283 -24.363 -19.273  0.00  0.00    +0.295 HD
ENDBRANCH  31  32
ENDBRANCH  29  31
ENDBRANCH  23  24
ENDBRANCH   3  23
TORSDOF 7
ENDMDL
MODEL 2
REMARK VINA RESULT:     -11.7      5.489      9.481
REMARK  Name = 10224181
REMARK  7 active torsions:
REMARK  status: ('A' for Active; 'I' for Inactive)
REMARK    1  A    between atoms: N_3  and  C_23
REMARK    2  A    between atoms: C_12  and  C_14
REMARK    3  A    between atoms: C_15  and  C_16
REMARK    4  A    between atoms: C_16  and  C_17
REMARK    5  A    between atoms: C_23  and  C_24
REMARK    6  A    between atoms: C_29  and  C_31
REMARK    7  A    between atoms: C_31  and  O_32
REMARK                            x       y       z     vdW  Elec       q    Type
REMARK                         _______ _______ _______ _____ _____    ______ ____
ROOT
ATOM      1  O   UNL     1      32.291 -23.545 -16.573  0.00  0.00    -0.267 OA
ATOM      2  O   UNL     1      34.749 -24.511 -12.749  0.00  0.00    -0.246 OA
ATOM      3  N   UNL     1      33.501 -24.045 -14.641  0.00  0.00    -0.244 N 
ATOM      4  N   UNL     1      35.760 -23.297 -14.443  0.00  0.00    -0.279 N 
ATOM      5  C   UNL     1      35.676 -22.691 -15.732  0.00  0.00    +0.069 A 
ATOM      6  C   UNL     1      34.491 -22.774 -16.465  0.00  0.00    +0.073 A 
ATOM      7  C   UNL     1      33.325 -23.483 -15.912  0.00  0.00    +0.266 A 
ATOM      8  C   UNL     1      34.681 -23.985 -13.865  0.00  0.00    +0.334 A 
ATOM      9  C   UNL     1      34.388 -22.184 -17.735  0.00  0.00    +0.014 C 
ATOM     10  C   UNL     1      36.761 -22.003 -16.303  0.00  0.00    +0.018 C 
ATOM     11  C   UNL     1      37.014 -23.196 -13.697  0.00  0.00    +0.135 C 
ATOM     12  C   UNL     1      35.474 -21.507 -18.284  0.00  0.00    +0.042 C 
ATOM     13  C   UNL     1      36.660 -21.416 -17.567  0.00  0.00    +0.010 C 
ENDROOT
BRANCH  12  14
ATOM     14  C   UNL     1      35.367 -20.907 -19.576  0.00  0.00    -0.064 C 
ATOM     15  C   UNL     1      35.277 -20.398 -20.664  0.00  0.00    -0.082 C 
BRANCH  15  16
ATOM     16  C   UNL     1      35.166 -19.775 -21.988  0.00  0.00    +0.103 C 
BRANCH  16  17
ATOM     17  C   UNL     1      35.113 -18.271 -21.900  0.00  0.00    -0.009 C 
ATOM     18  C   UNL     1      35.205 -17.656 -20.660  0.00  0.00    -0.003 C 
ATOM     19  C   UNL     1      34.976 -17.525 -23.061  0.00  0.00    -0.003 C 
ATOM     20  C   UNL     1      35.157 -16.265 -20.580  0.00  0.00    -0.000 C 
ATOM     21  C   UNL     1      34.927 -16.134 -22.981  0.00  0.00    -0.000 C 
ATOM     22  C   UNL     1      35.018 -15.504 -21.740  0.00  0.00    -0.000 C 
ENDBRANCH  16  17
ENDBRANCH  15  16
ENDBRANCH  12  14
BRANCH   3  23
ATOM     23  C   UNL     1      32.362 -24.755 -14.065  0.00  0.00    +0.140 C 
BRANCH  23  24
ATOM     24  C   UNL     1      31.052 -24.128 -14.460  0.00  0.00    +0.001 C 
ATOM     25  C   UNL     1      30.100 -24.893 -15.121  0.00  0.00    -0.002 C 
ATOM     26  C   UNL     1      30.813 -22.795 -14.156  0.00  0.00    -0.002 C 
ATOM     27  C   UNL     1      28.886 -24.312 -15.486  0.00  0.00    +0.006 C 
ATOM     28  C   UNL     1      29.599 -22.214 -14.521  0.00  0.00    +0.006 C 
ATOM     29  C   UNL     1      28.635 -22.973 -15.187  0.00  0.00    +0.075 C 
BRANCH  29  31
ATOM     30  O   UNL     1      26.319 -22.435 -14.918  0.00  0.00    -0.245 OA
ATOM     31  C   UNL     1      27.368 -22.367 -15.567  0.00  0.00    +0.338 C 
BRANCH  31  32
ATOM     32  O   UNL     1      27.446 -21.694 -16.748  0.00  0.00    -0.477 OA
ATOM     33  H   UNL     1      27.781 -22.124 -17.510  0.00  0.00    +0.295 HD
ENDBRANCH  31  32
ENDBRANCH  29  31
ENDBRANCH  23  24
ENDBRANCH   3  23
TORSDOF 7
ENDMDL
MODEL 3
REMARK VINA RESULT:     -11.5      1.234      1.865
REMARK  Name = 10224181
REMARK  7 active torsions:
REMARK  status: ('A' for Active; 'I' for Inactive)
REMARK    1  A    between atoms: N_3  and  C_23
REMARK    2  A    between atoms: C_12  and  C_14
REMARK    3  A    between atoms: C_15  and  C_16
REMARK    4  A    between atoms: C_16  and  C_17
REMARK    5  A    between atoms: C_23  and  C_24
REMARK    6  A    between atoms: C_29  and  C_31
REMARK    7  A    between atoms: C_31  and  O_32
REMARK                            x       y       z     vdW  Elec       q    Type
REMARK                         _______ _______ _______ _____ _____    ______ ____
ROOT
ATOM      1  O   UNL     1      35.923 -15.728 -20.944  0.00  0.00    -0.267 OA
ATOM      2  O   UNL     1      35.110 -19.706 -23.207  0.00  0.00    -0.246 OA
ATOM      3  N   UNL     1      35.531 -17.740 -22.060  0.00  0.00    -0.244 N 
ATOM      4  N   UNL     1      34.204 -17.745 -24.044  0.00  0.00    -0.279 N 
ATOM      5  C   UNL     1      34.029 -16.334 -23.935  0.00  0.00    +0.069 A 
ATOM      6  C   UNL     1      34.615 -15.639 -22.876  0.00  0.00    +0.073 A 
ATOM      7  C   UNL     1      35.415 -16.357 -21.870  0.00  0.00    +0.266 A 
ATOM      8  C   UNL     1      34.956 -18.483 -23.116  0.00  0.00    +0.334 A 
ATOM      9  C   UNL     1      34.455 -14.249 -22.752  0.00  0.00    +0.014 C 
ATOM     10  C   UNL     1      33.275 -15.602 -24.871  0.00  0.00    +0.018 C 
ATOM     11  C   UNL     1      33.578 -18.448 -25.164  0.00  0.00    +0.135 C 
ATOM     12  C   UNL     1      33.705 -13.543 -23.687  0.00  0.00    +0.042 C 
ATOM     13  C   UNL     1      33.116 -14.220 -24.747  0.00  0.00    +0.010 C 
ENDROOT
BRANCH  12  14
ATOM     14  C   UNL     1      33.544 -12.129 -23.559  0.00  0.00    -0.064 C 
ATOM     15  C   UNL     1      33.411 -10.937 -23.448  0.00  0.00    -0.082 C 
BRANCH  15  16
ATOM     16  C   UNL     1      33.253  -9.485 -23.312  0.00  0.00    +0.103 C 
BRANCH  16  17
ATOM     17  C   UNL     1      32.764  -9.098 -21.940  0.00  0.00    -0.009 C 
ATOM     18  C   UNL     1      31.909  -9.948 -21.255  0.00  0.00    -0.003 C 
ATOM     19  C   UNL     1      33.179  -7.897 -21.382  0.00  0.00    -0.003 C 
ATOM     20  C   UNL     1      31.458  -9.590 -19.984  0.00  0.00    -0.000 C 
ATOM     21  C   UNL     1      32.727  -7.539 -20.112  0.00  0.00    -0.000 C 
ATOM     22  C   UNL     1      31.867  -8.385 -19.413  0.00  0.00    -0.000 C 
ENDBRANCH  16  17
ENDBRANCH  15  16
ENDBRANCH  12  14
BRANCH   3  23
ATOM     23  C   UNL     1      36.319 -18.482 -21.078  0.00  0.00    +0.140 C 
BRANCH  23  24
ATOM     24  C   UNL     1      35.497 -19.525 -20.372  0.00  0.00    +0.001 C 
ATOM     25  C   UNL     1      36.136 -20.546 -19.680  0.00  0.00    -0.002 C 
ATOM     26  C   UNL     1      34.112 -19.453 -20.420  0.00  0.00    -0.002 C 
ATOM     27  C   UNL     1      35.374 -21.513 -19.025  0.00  0.00    +0.006 C 
ATOM     28  C   UNL     1      33.350 -20.420 -19.765  0.00  0.00    +0.006 C 
ATOM     29  C   UNL     1      33.981 -21.450 -19.067  0.00  0.00    +0.075 C 
BRANCH  29  31
ATOM     30  O   UNL     1      32.144 -22.244 -17.756  0.00  0.00    -0.245 OA
ATOM     31  C   UNL     1      33.186 -22.459 -18.383  0.00  0.00    +0.338 C 
BRANCH  31  32
ATOM     32  O   UNL     1      33.716 -23.707 -18.500  0.00  0.00    -0.477 OA
ATOM     33  H   UNL     1      34.153 -24.100 -17.770  0.00  0.00    +0.295 HD
ENDBRANCH  31  32
ENDBRANCH  29  31
ENDBRANCH  23  24
ENDBRANCH   3  23
TORSDOF 7
ENDMDL
MODEL 4
REMARK VINA RESULT:     -11.2      6.173      9.853
REMARK  Name = 10224181
REMARK  7 active torsions:
REMARK  status: ('A' for Active; 'I' for Inactive)
REMARK    1  A    between atoms: N_3  and  C_23
REMARK    2  A    between atoms: C_12  and  C_14
REMARK    3  A    between atoms: C_15  and  C_16
REMARK    4  A    between atoms: C_16  and  C_17
REMARK    5  A    between atoms: C_23  and  C_24
REMARK    6  A    between atoms: C_29  and  C_31
REMARK    7  A    between atoms: C_31  and  O_32
REMARK                            x       y       z     vdW  Elec       q    Type
REMARK                         _______ _______ _______ _____ _____    ______ ____
ROOT
ATOM      1  O   UNL     1      36.566 -22.464 -15.017  0.00  0.00    -0.267 OA
ATOM      2  O   UNL     1      32.766 -24.705 -13.553  0.00  0.00    -0.246 OA
ATOM      3  N   UNL     1      34.673 -23.597 -14.256  0.00  0.00    -0.244 N 
ATOM      4  N   UNL     1      32.709 -23.647 -15.613  0.00  0.00    -0.279 N 
ATOM      5  C   UNL     1      33.373 -22.869 -16.608  0.00  0.00    +0.069 A 
ATOM      6  C   UNL     1      34.693 -22.462 -16.409  0.00  0.00    +0.073 A 
ATOM      7  C   UNL     1      35.405 -22.833 -15.174  0.00  0.00    +0.266 A 
ATOM      8  C   UNL     1      33.338 -24.031 -14.418  0.00  0.00    +0.334 A 
ATOM      9  C   UNL     1      35.363 -21.696 -17.376  0.00  0.00    +0.014 C 
ATOM     10  C   UNL     1      32.736 -22.490 -17.804  0.00  0.00    +0.018 C 
ATOM     11  C   UNL     1      31.326 -24.059 -15.847  0.00  0.00    +0.135 C 
ATOM     12  C   UNL     1      34.716 -21.330 -18.553  0.00  0.00    +0.042 C 
ATOM     13  C   UNL     1      33.402 -21.728 -18.767  0.00  0.00    +0.010 C 
ENDROOT
BRANCH  12  14
ATOM     14  C   UNL     1      35.400 -20.552 -19.536  0.00  0.00    -0.064 C 
ATOM     15  C   UNL     1      35.976 -19.891 -20.363  0.00  0.00    -0.082 C 
BRANCH  15  16
ATOM     16  C   UNL     1      36.677 -19.085 -21.368  0.00  0.00    +0.103 C 
BRANCH  16  17
ATOM     17  C   UNL     1      35.735 -18.540 -22.411  0.00  0.00    -0.009 C 
ATOM     18  C   UNL     1      34.921 -19.413 -23.118  0.00  0.00    -0.003 C 
ATOM     19  C   UNL     1      35.694 -17.174 -22.646  0.00  0.00    -0.003 C 
ATOM     20  C   UNL     1      34.049 -18.909 -24.082  0.00  0.00    -0.000 C 
ATOM     21  C   UNL     1      34.822 -16.669 -23.610  0.00  0.00    -0.000 C 
ATOM     22  C   UNL     1      33.999 -17.536 -24.328  0.00  0.00    -0.000 C 
ENDBRANCH  16  17
ENDBRANCH  15  16
ENDBRANCH  12  14
BRANCH   3  23
ATOM     23  C   UNL     1      35.352 -23.982 -13.022  0.00  0.00    +0.140 C 
BRANCH  23  24
ATOM     24  C   UNL     1      36.701 -24.593 -13.290  0.00  0.00    +0.001 C 
ATOM     25  C   UNL     1      36.815 -25.613 -14.226  0.00  0.00    -0.002 C 
ATOM     26  C   UNL     1      37.812 -24.129 -12.600  0.00  0.00    -0.002 C 
ATOM     27  C   UNL     1      38.065 -26.179 -14.475  0.00  0.00    +0.006 C 
ATOM     28  C   UNL     1      39.062 -24.695 -12.850  0.00  0.00    +0.006 C 
ATOM     29  C   UNL     1      39.189 -25.721 -13.787  0.00  0.00    +0.075 C 
BRANCH  29  31
ATOM     30  O   UNL     1      41.222 -26.835 -13.200  0.00  0.00    -0.245 OA
ATOM     31  C   UNL     1      40.493 -26.311 -14.047  0.00  0.00    +0.338 C 
BRANCH  31  32
ATOM     32  O   UNL     1      40.849 -26.229 -15.358  0.00  0.00    -0.477 OA
ATOM     33  H   UNL     1      40.475 -26.818 -15.983  0.00  0.00    +0.295 HD
ENDBRANCH  31  32
ENDBRANCH  29  31
ENDBRANCH  23  24
ENDBRANCH   3  23
TORSDOF 7
ENDMDL
MODEL 5
REMARK VINA RESULT:     -10.7      7.209     10.768
REMARK  Name = 10224181
REMARK  7 active torsions:
REMARK  status: ('A' for Active; 'I' for Inactive)
REMARK    1  A    between atoms: N_3  and  C_23
REMARK    2  A    between atoms: C_12  and  C_14
REMARK    3  A    between atoms: C_15  and  C_16
REMARK    4  A    between atoms: C_16  and  C_17
REMARK    5  A    between atoms: C_23  and  C_24
REMARK    6  A    between atoms: C_29  and  C_31
REMARK    7  A    between atoms: C_31  and  O_32
REMARK                            x       y       z     vdW  Elec       q    Type
REMARK                         _______ _______ _______ _____ _____    ______ ____
ROOT
ATOM      1  O   UNL     1      35.947 -22.409 -14.494  0.00  0.00    -0.267 OA
ATOM      2  O   UNL     1      33.431 -25.082 -11.644  0.00  0.00    -0.246 OA
ATOM      3  N   UNL     1      34.707 -23.751 -13.043  0.00  0.00    -0.244 N 
ATOM      4  N   UNL     1      32.496 -24.414 -13.655  0.00  0.00    -0.279 N 
ATOM      5  C   UNL     1      32.617 -23.697 -14.882  0.00  0.00    +0.069 A 
ATOM      6  C   UNL     1      33.796 -23.009 -15.174  0.00  0.00    +0.073 A 
ATOM      7  C   UNL     1      34.917 -23.021 -14.220  0.00  0.00    +0.266 A 
ATOM      8  C   UNL     1      33.532 -24.462 -12.708  0.00  0.00    +0.334 A 
ATOM      9  C   UNL     1      33.934 -22.297 -16.377  0.00  0.00    +0.014 C 
ATOM     10  C   UNL     1      31.575 -23.655 -15.826  0.00  0.00    +0.018 C 
ATOM     11  C   UNL     1      31.249 -25.125 -13.375  0.00  0.00    +0.135 C 
ATOM     12  C   UNL     1      32.892 -22.268 -17.298  0.00  0.00    +0.042 C 
ATOM     13  C   UNL     1      31.712 -22.947 -17.023  0.00  0.00    +0.010 C 
ENDROOT
BRANCH  12  14
ATOM     14  C   UNL     1      33.035 -21.543 -18.521  0.00  0.00    -0.064 C 
ATOM     15  C   UNL     1      33.155 -20.929 -19.551  0.00  0.00    -0.082 C 
BRANCH  15  16
ATOM     16  C   UNL     1      33.300 -20.178 -20.803  0.00  0.00    +0.103 C 
BRANCH  16  17
ATOM     17  C   UNL     1      34.693 -19.626 -20.970  0.00  0.00    -0.009 C 
ATOM     18  C   UNL     1      35.685 -19.992 -20.072  0.00  0.00    -0.003 C 
ATOM     19  C   UNL     1      34.961 -18.761 -22.021  0.00  0.00    -0.003 C 
ATOM     20  C   UNL     1      36.973 -19.482 -20.228  0.00  0.00    -0.000 C 
ATOM     21  C   UNL     1      36.250 -18.250 -22.177  0.00  0.00    -0.000 C 
ATOM     22  C   UNL     1      37.255 -18.610 -21.281  0.00  0.00    -0.000 C 
ENDBRANCH  16  17
ENDBRANCH  15  16
ENDBRANCH  12  14
BRANCH   3  23
ATOM     23  C   UNL     1      35.801 -23.783 -12.076  0.00  0.00    +0.140 C 
BRANCH  23  24
ATOM     24  C   UNL     1      37.036 -24.426 -12.648  0.00  0.00    +0.001 C 
ATOM     25  C   UNL     1      36.907 -25.482 -13.539  0.00  0.00    -0.002 C 
ATOM     26  C   UNL     1      38.287 -23.953 -12.277  0.00  0.00    -0.002 C 
ATOM     27  C   UNL     1      38.051 -26.077 -14.069  0.00  0.00    +0.006 C 
ATOM     28  C   UNL     1      39.432 -24.548 -12.807  0.00  0.00    +0.006 C 
ATOM     29  C   UNL     1      39.314 -25.610 -13.703  0.00  0.00    +0.075 C 
BRANCH  29  31
ATOM     30  O   UNL     1      41.344 -26.873 -13.613  0.00  0.00    -0.245 OA
ATOM     31  C   UNL     1      40.508 -26.231 -14.256  0.00  0.00    +0.338 C 
BRANCH  31  32
ATOM     32  O   UNL     1      40.625 -26.030 -15.598  0.00  0.00    -0.477 OA
ATOM     33  H   UNL     1      40.900 -26.733 -16.153  0.00  0.00    +0.295 HD
ENDBRANCH  31  32
ENDBRANCH  29  31
ENDBRANCH  23  24
ENDBRANCH   3  23
TORSDOF 7
ENDMDL
MODEL 6
REMARK VINA RESULT:     -10.1      4.555     11.630
REMARK  Name = 10224181
REMARK  7 active torsions:
REMARK  status: ('A' for Active; 'I' for Inactive)
REMARK    1  A    between atoms: N_3  and  C_23
REMARK    2  A    between atoms: C_12  and  C_14
REMARK    3  A    between atoms: C_15  and  C_16
REMARK    4  A    between atoms: C_16  and  C_17
REMARK    5  A    between atoms: C_23  and  C_24
REMARK    6  A    between atoms: C_29  and  C_31
REMARK    7  A    between atoms: C_31  and  O_32
REMARK                            x       y       z     vdW  Elec       q    Type
REMARK                         _______ _______ _______ _____ _____    ______ ____
ROOT
ATOM      1  O   UNL     1      34.315 -11.030 -24.093  0.00  0.00    -0.267 OA
ATOM      2  O   UNL     1      31.083  -8.650 -21.748  0.00  0.00    -0.246 OA
ATOM      3  N   UNL     1      32.696  -9.812 -22.935  0.00  0.00    -0.244 N 
ATOM      4  N   UNL     1      31.647 -10.776 -21.019  0.00  0.00    -0.279 N 
ATOM      5  C   UNL     1      32.428 -11.958 -21.181  0.00  0.00    +0.069 A 
ATOM      6  C   UNL     1      33.343 -12.050 -22.232  0.00  0.00    +0.073 A 
ATOM      7  C   UNL     1      33.505 -10.930 -23.174  0.00  0.00    +0.266 A 
ATOM      8  C   UNL     1      31.759  -9.676 -21.886  0.00  0.00    +0.334 A 
ATOM      9  C   UNL     1      34.122 -13.205 -22.408  0.00  0.00    +0.014 C 
ATOM     10  C   UNL     1      32.311 -13.054 -20.308  0.00  0.00    +0.018 C 
ATOM     11  C   UNL     1      30.695 -10.706 -19.910  0.00  0.00    +0.135 C 
ATOM     12  C   UNL     1      33.990 -14.279 -21.533  0.00  0.00    +0.042 C 
ATOM     13  C   UNL     1      33.085 -14.203 -20.483  0.00  0.00    +0.010 C 
ENDROOT
BRANCH  12  14
ATOM     14  C   UNL     1      34.784 -15.453 -21.714  0.00  0.00    -0.064 C 
ATOM     15  C   UNL     1      35.456 -16.442 -21.865  0.00  0.00    -0.082 C 
BRANCH  15  16
ATOM     16  C   UNL     1      36.277 -17.644 -22.047  0.00  0.00    +0.103 C 
BRANCH  16  17
ATOM     17  C   UNL     1      35.839 -18.768 -21.142  0.00  0.00    -0.009 C 
ATOM     18  C   UNL     1      34.502 -19.135 -21.109  0.00  0.00    -0.003 C 
ATOM     19  C   UNL     1      36.781 -19.418 -20.358  0.00  0.00    -0.003 C 
ATOM     20  C   UNL     1      34.097 -20.176 -20.273  0.00  0.00    -0.000 C 
ATOM     21  C   UNL     1      36.376 -20.457 -19.521  0.00  0.00    -0.000 C 
ATOM     22  C   UNL     1      35.035 -20.837 -19.479  0.00  0.00    -0.000 C 
ENDBRANCH  16  17
ENDBRANCH  15  16
ENDBRANCH  12  14
BRANCH   3  23
ATOM     23  C   UNL     1      32.834  -8.683 -23.852  0.00  0.00    +0.140 C 
BRANCH  23  24
ATOM     24  C   UNL     1      32.492  -7.376 -23.189  0.00  0.00    +0.001 C 
ATOM     25  C   UNL     1      33.291  -6.904 -22.157  0.00  0.00    -0.002 C 
ATOM     26  C   UNL     1      31.383  -6.660 -23.620  0.00  0.00    -0.002 C 
ATOM     27  C   UNL     1      32.975  -5.692 -21.543  0.00  0.00    +0.006 C 
ATOM     28  C   UNL     1      31.067  -5.449 -23.005  0.00  0.00    +0.006 C 
ATOM     29  C   UNL     1      31.863  -4.965 -21.967  0.00  0.00    +0.075 C 
BRANCH  29  31
ATOM     30  O   UNL     1      32.281  -3.060 -20.581  0.00  0.00    -0.245 OA
ATOM     31  C   UNL     1      31.533  -3.701 -21.326  0.00  0.00    +0.338 C 
BRANCH  31  32
ATOM     32  O   UNL     1      30.278  -3.273 -21.634  0.00  0.00    -0.477 OA
ATOM     33  H   UNL     1      30.142  -2.394 -21.928  0.00  0.00    +0.295 HD
ENDBRANCH  31  32
ENDBRANCH  29  31
ENDBRANCH  23  24
ENDBRANCH   3  23
TORSDOF 7
ENDMDL
MODEL 7
REMARK VINA RESULT:     -10.0      5.412     12.235
REMARK  Name = 10224181
REMARK  7 active torsions:
REMARK  status: ('A' for Active; 'I' for Inactive)
REMARK    1  A    between atoms: N_3  and  C_23
REMARK    2  A    between atoms: C_12  and  C_14
REMARK    3  A    between atoms: C_15  and  C_16
REMARK    4  A    between atoms: C_16  and  C_17
REMARK    5  A    between atoms: C_23  and  C_24
REMARK    6  A    between atoms: C_29  and  C_31
REMARK    7  A    between atoms: C_31  and  O_32
REMARK                            x       y       z     vdW  Elec       q    Type
REMARK                         _______ _______ _______ _____ _____    ______ ____
ROOT
ATOM      1  O   UNL     1      34.491  -8.946 -23.559  0.00  0.00    -0.267 OA
ATOM      2  O   UNL     1      32.273  -7.048 -19.943  0.00  0.00    -0.246 OA
ATOM      3  N   UNL     1      33.390  -7.966 -21.750  0.00  0.00    -0.244 N 
ATOM      4  N   UNL     1      31.957  -9.301 -20.384  0.00  0.00    -0.279 N 
ATOM      5  C   UNL     1      32.245 -10.442 -21.190  0.00  0.00    +0.069 A 
ATOM      6  C   UNL     1      33.111 -10.325 -22.278  0.00  0.00    +0.073 A 
ATOM      7  C   UNL     1      33.731  -9.029 -22.597  0.00  0.00    +0.266 A 
ATOM      8  C   UNL     1      32.519  -8.039 -20.639  0.00  0.00    +0.334 A 
ATOM      9  C   UNL     1      33.407 -11.437 -23.084  0.00  0.00    +0.014 C 
ATOM     10  C   UNL     1      31.678 -11.702 -20.927  0.00  0.00    +0.018 C 
ATOM     11  C   UNL     1      31.045  -9.450 -19.251  0.00  0.00    +0.135 C 
ATOM     12  C   UNL     1      32.836 -12.676 -22.807  0.00  0.00    +0.042 C 
ATOM     13  C   UNL     1      31.972 -12.808 -21.728  0.00  0.00    +0.010 C 
ENDROOT
BRANCH  12  14
ATOM     14  C   UNL     1      33.139 -13.805 -23.627  0.00  0.00    -0.064 C 
ATOM     15  C   UNL     1      33.396 -14.760 -24.316  0.00  0.00    -0.082 C 
BRANCH  15  16
ATOM     16  C   UNL     1      33.711 -15.923 -25.153  0.00  0.00    +0.103 C 
BRANCH  16  17
ATOM     17  C   UNL     1      34.230 -17.079 -24.337  0.00  0.00    -0.009 C 
ATOM     18  C   UNL     1      35.144 -16.842 -23.321  0.00  0.00    -0.003 C 
ATOM     19  C   UNL     1      33.785 -18.363 -24.615  0.00  0.00    -0.003 C 
ATOM     20  C   UNL     1      35.624 -17.912 -22.566  0.00  0.00    -0.000 C 
ATOM     21  C   UNL     1      34.265 -19.434 -23.860  0.00  0.00    -0.000 C 
ATOM     22  C   UNL     1      35.184 -19.208 -22.836  0.00  0.00    -0.000 C 
ENDBRANCH  16  17
ENDBRANCH  15  16
ENDBRANCH  12  14
BRANCH   3  23
ATOM     23  C   UNL     1      33.990  -6.666 -22.040  0.00  0.00    +0.140 C 
BRANCH  23  24
ATOM     24  C   UNL     1      32.952  -5.636 -22.394  0.00  0.00    +0.001 C 
ATOM     25  C   UNL     1      32.318  -5.701 -23.627  0.00  0.00    -0.002 C 
ATOM     26  C   UNL     1      32.642  -4.636 -21.482  0.00  0.00    -0.002 C 
ATOM     27  C   UNL     1      31.355  -4.746 -23.955  0.00  0.00    +0.006 C 
ATOM     28  C   UNL     1      31.680  -3.682 -21.810  0.00  0.00    +0.006 C 
ATOM     29  C   UNL     1      31.036  -3.736 -23.047  0.00  0.00    +0.075 C 
BRANCH  29  31
ATOM     30  O   UNL     1      29.568  -2.551 -24.518  0.00  0.00    -0.245 OA
ATOM     31  C   UNL     1      30.032  -2.741 -23.389  0.00  0.00    +0.338 C 
BRANCH  31  32
ATOM     32  O   UNL     1      29.636  -2.009 -22.311  0.00  0.00    -0.477 OA
ATOM     33  H   UNL     1      29.295  -2.441 -21.553  0.00  0.00    +0.295 HD
ENDBRANCH  31  32
ENDBRANCH  29  31
ENDBRANCH  23  24
ENDBRANCH   3  23
TORSDOF 7
ENDMDL
MODEL 8
REMARK VINA RESULT:      -9.9      7.189     10.599
REMARK  Name = 10224181
REMARK  7 active torsions:
REMARK  status: ('A' for Active; 'I' for Inactive)
REMARK    1  A    between atoms: N_3  and  C_23
REMARK    2  A    between atoms: C_12  and  C_14
REMARK    3  A    between atoms: C_15  and  C_16
REMARK    4  A    between atoms: C_16  and  C_17
REMARK    5  A    between atoms: C_23  and  C_24
REMARK    6  A    between atoms: C_29  and  C_31
REMARK    7  A    between atoms: C_31  and  O_32
REMARK                            x       y       z     vdW  Elec       q    Type
REMARK                         _______ _______ _______ _____ _____    ______ ____
ROOT
ATOM      1  O   UNL     1      32.974 -23.912 -15.930  0.00  0.00    -0.267 OA
ATOM      2  O   UNL     1      34.283 -24.915 -11.585  0.00  0.00    -0.246 OA
ATOM      3  N   UNL     1      33.605 -24.431 -13.745  0.00  0.00    -0.244 N 
ATOM      4  N   UNL     1      35.690 -23.629 -12.901  0.00  0.00    -0.279 N 
ATOM      5  C   UNL     1      35.953 -22.991 -14.150  0.00  0.00    +0.069 A 
ATOM      6  C   UNL     1      35.027 -23.085 -15.189  0.00  0.00    +0.073 A 
ATOM      7  C   UNL     1      33.777 -23.840 -15.003  0.00  0.00    +0.266 A 
ATOM      8  C   UNL     1      34.515 -24.361 -12.666  0.00  0.00    +0.334 A 
ATOM      9  C   UNL     1      35.268 -22.463 -16.426  0.00  0.00    +0.014 C 
ATOM     10  C   UNL     1      37.132 -22.258 -14.377  0.00  0.00    +0.018 C 
ATOM     11  C   UNL     1      36.678 -23.515 -11.829  0.00  0.00    +0.135 C 
ATOM     12  C   UNL     1      36.441 -21.743 -16.631  0.00  0.00    +0.042 C 
ATOM     13  C   UNL     1      37.373 -21.640 -15.607  0.00  0.00    +0.010 C 
ENDROOT
BRANCH  12  14
ATOM     14  C   UNL     1      36.684 -21.112 -17.890  0.00  0.00    -0.064 C 
ATOM     15  C   UNL     1      36.890 -20.576 -18.949  0.00  0.00    -0.082 C 
BRANCH  15  16
ATOM     16  C   UNL     1      37.140 -19.920 -20.237  0.00  0.00    +0.103 C 
BRANCH  16  17
ATOM     17  C   UNL     1      35.861 -19.619 -20.975  0.00  0.00    -0.009 C 
ATOM     18  C   UNL     1      35.915 -18.970 -22.199  0.00  0.00    -0.003 C 
ATOM     19  C   UNL     1      34.648 -19.997 -20.418  0.00  0.00    -0.003 C 
ATOM     20  C   UNL     1      34.731 -18.693 -22.882  0.00  0.00    -0.000 C 
ATOM     21  C   UNL     1      33.463 -19.719 -21.099  0.00  0.00    -0.000 C 
ATOM     22  C   UNL     1      33.505 -19.067 -22.331  0.00  0.00    -0.000 C 
ENDBRANCH  16  17
ENDBRANCH  15  16
ENDBRANCH  12  14
BRANCH   3  23
ATOM     23  C   UNL     1      32.374 -25.187 -13.528  0.00  0.00    +0.140 C 
BRANCH  23  24
ATOM     24  C   UNL     1      31.168 -24.457 -14.054  0.00  0.00    +0.001 C 
ATOM     25  C   UNL     1      31.022 -23.101 -13.794  0.00  0.00    -0.002 C 
ATOM     26  C   UNL     1      30.218 -25.149 -14.793  0.00  0.00    -0.002 C 
ATOM     27  C   UNL     1      29.905 -22.424 -14.281  0.00  0.00    +0.006 C 
ATOM     28  C   UNL     1      29.101 -24.472 -15.281  0.00  0.00    +0.006 C 
ATOM     29  C   UNL     1      28.943 -23.109 -15.025  0.00  0.00    +0.075 C 
BRANCH  29  31
ATOM     30  O   UNL     1      26.737 -22.192 -14.903  0.00  0.00    -0.245 OA
ATOM     31  C   UNL     1      27.778 -22.404 -15.534  0.00  0.00    +0.338 C 
BRANCH  31  32
ATOM     32  O   UNL     1      27.944 -21.983 -16.818  0.00  0.00    -0.477 OA
ATOM     33  H   UNL     1      27.293 -22.179 -17.462  0.00  0.00    +0.295 HD
ENDBRANCH  31  32
ENDBRANCH  29  31
ENDBRANCH  23  24
ENDBRANCH   3  23
TORSDOF 7
ENDMDL
MODEL 9
REMARK VINA RESULT:      -9.8      3.783     10.846
REMARK  Name = 10224181
REMARK  7 active torsions:
REMARK  status: ('A' for Active; 'I' for Inactive)
REMARK    1  A    between atoms: N_3  and  C_23
REMARK    2  A    between atoms: C_12  and  C_14
REMARK    3  A    between atoms: C_15  and  C_16
REMARK    4  A    between atoms: C_16  and  C_17
REMARK    5  A    between atoms: C_23  and  C_24
REMARK    6  A    between atoms: C_29  and  C_31
REMARK    7  A    between atoms: C_31  and  O_32
REMARK                            x       y       z     vdW  Elec       q    Type
REMARK                         _______ _______ _______ _____ _____    ______ ____
ROOT
ATOM      1  O   UNL     1      32.506 -13.243 -19.793  0.00  0.00    -0.267 OA
ATOM      2  O   UNL     1      32.225 -10.166 -23.265  0.00  0.00    -0.246 OA
ATOM      3  N   UNL     1      32.347 -11.680 -21.519  0.00  0.00    -0.244 N 
ATOM      4  N   UNL     1      33.496 -12.078 -23.573  0.00  0.00    -0.279 N 
ATOM      5  C   UNL     1      33.997 -13.310 -23.059  0.00  0.00    +0.069 A 
ATOM      6  C   UNL     1      33.662 -13.713 -21.766  0.00  0.00    +0.073 A 
ATOM      7  C   UNL     1      32.790 -12.871 -20.929  0.00  0.00    +0.266 A 
ATOM      8  C   UNL     1      32.662 -11.234 -22.822  0.00  0.00    +0.334 A 
ATOM      9  C   UNL     1      34.144 -14.924 -21.241  0.00  0.00    +0.014 C 
ATOM     10  C   UNL     1      34.832 -14.150 -23.819  0.00  0.00    +0.018 C 
ATOM     11  C   UNL     1      33.865 -11.679 -24.931  0.00  0.00    +0.135 C 
ATOM     12  C   UNL     1      34.970 -15.740 -22.009  0.00  0.00    +0.042 C 
ATOM     13  C   UNL     1      35.313 -15.353 -23.298  0.00  0.00    +0.010 C 
ENDROOT
BRANCH  12  14
ATOM     14  C   UNL     1      35.460 -16.971 -21.473  0.00  0.00    -0.064 C 
ATOM     15  C   UNL     1      35.874 -18.010 -21.026  0.00  0.00    -0.082 C 
BRANCH  15  16
ATOM     16  C   UNL     1      36.378 -19.276 -20.484  0.00  0.00    +0.103 C 
BRANCH  16  17
ATOM     17  C   UNL     1      35.267 -20.143 -19.948  0.00  0.00    -0.009 C 
ATOM     18  C   UNL     1      33.954 -19.859 -20.293  0.00  0.00    -0.003 C 
ATOM     19  C   UNL     1      35.575 -21.211 -19.119  0.00  0.00    -0.003 C 
ATOM     20  C   UNL     1      32.926 -20.661 -19.798  0.00  0.00    -0.000 C 
ATOM     21  C   UNL     1      34.547 -22.013 -18.624  0.00  0.00    -0.000 C 
ATOM     22  C   UNL     1      33.223 -21.738 -18.963  0.00  0.00    -0.000 C 
ENDBRANCH  16  17
ENDBRANCH  15  16
ENDBRANCH  12  14
BRANCH   3  23
ATOM     23  C   UNL     1      31.480 -10.823 -20.714  0.00  0.00    +0.140 C 
BRANCH  23  24
ATOM     24  C   UNL     1      31.762  -9.363 -20.947  0.00  0.00    +0.001 C 
ATOM     25  C   UNL     1      30.936  -8.635 -21.794  0.00  0.00    -0.002 C 
ATOM     26  C   UNL     1      32.841  -8.765 -20.313  0.00  0.00    -0.002 C 
ATOM     27  C   UNL     1      31.197  -7.282 -22.010  0.00  0.00    +0.006 C 
ATOM     28  C   UNL     1      33.102  -7.412 -20.529  0.00  0.00    +0.006 C 
ATOM     29  C   UNL     1      32.280  -6.670 -21.378  0.00  0.00    +0.075 C 
BRANCH  29  31
ATOM     30  O   UNL     1      32.423  -4.363 -20.762  0.00  0.00    -0.245 OA
ATOM     31  C   UNL     1      32.551  -5.259 -21.602  0.00  0.00    +0.338 C 
BRANCH  31  32
ATOM     32  O   UNL     1      32.975  -5.006 -22.871  0.00  0.00    -0.477 OA
ATOM     33  H   UNL     1      33.850  -4.707 -23.021  0.00  0.00    +0.295 HD
ENDBRANCH  31  32
ENDBRANCH  29  31
ENDBRANCH  23  24
ENDBRANCH   3  23
TORSDOF 7
ENDMDL
