MODEL 1
REMARK VINA RESULT:     -12.0      0.000      0.000
REMARK  Name = 449087
REMARK  3 active torsions:
REMARK  status: ('A' for Active; 'I' for Inactive)
REMARK    1  A    between atoms: C_5  and  C_11
REMARK    2  A    between atoms: C_8  and  C_14
REMARK    3  A    between atoms: C_14  and  C_15
REMARK                            x       y       z     vdW  Elec       q    Type
REMARK                         _______ _______ _______ _____ _____    ______ ____
ROOT
ATOM      1  O   UNL     1      35.331 -16.535 -21.136  0.00  0.00    -0.274 OA
ATOM      2  N   UNL     1      33.947 -14.945 -25.540  0.00  0.00    -0.239 N 
ATOM      3  N   UNL     1      34.508 -16.150 -25.343  0.00  0.00    -0.166 NA
ATOM      4  N   UNL     1      35.295 -17.248 -23.374  0.00  0.00    -0.268 N 
ATOM      5  C   UNL     1      33.804 -14.210 -24.400  0.00  0.00    +0.045 C 
ATOM      6  C   UNL     1      34.302 -14.990 -23.385  0.00  0.00    +0.048 C 
ATOM      7  C   UNL     1      34.715 -16.157 -24.033  0.00  0.00    +0.152 C 
ATOM      8  C   UNL     1      35.557 -17.363 -22.011  0.00  0.00    +0.232 C 
ATOM      9  H   UNL     1      33.668 -14.621 -26.427  0.00  0.00    +0.174 HD
ATOM     10  H   UNL     1      35.544 -18.018 -23.935  0.00  0.00    +0.156 HD
ENDROOT
BRANCH   5  11
ATOM     11  C   UNL     1      33.207 -12.814 -24.285  0.00  0.00    +0.037 C 
ATOM     12  C   UNL     1      34.118 -11.647 -23.995  0.00  0.00    +0.006 C 
ATOM     13  C   UNL     1      33.505 -11.796 -25.357  0.00  0.00    +0.006 C 
ENDBRANCH   5  11
BRANCH   8  14
ATOM     14  C   UNL     1      36.196 -18.713 -21.694  0.00  0.00    +0.112 C 
BRANCH  14  15
ATOM     15  C   UNL     1      35.372 -19.577 -20.799  0.00  0.00    -0.013 C 
ATOM     16  C   UNL     1      35.226 -21.152 -18.951  0.00  0.00    -0.000 C 
ATOM     17  C   UNL     1      35.988 -20.334 -19.802  0.00  0.00    -0.004 C 
ATOM     18  C   UNL     1      33.821 -21.200 -19.112  0.00  0.00    -0.000 C 
ATOM     19  C   UNL     1      33.990 -19.624 -20.957  0.00  0.00    -0.004 C 
ATOM     20  C   UNL     1      33.219 -20.430 -20.120  0.00  0.00    -0.000 C 
ATOM     21  C   UNL     1      35.830 -21.922 -17.943  0.00  0.00    -0.000 C 
ATOM     22  C   UNL     1      33.060 -22.018 -18.260  0.00  0.00    -0.000 C 
ATOM     23  C   UNL     1      35.058 -22.729 -17.106  0.00  0.00    -0.000 C 
ATOM     24  C   UNL     1      33.676 -22.777 -17.264  0.00  0.00    -0.000 C 
ENDBRANCH  14  15
ENDBRANCH   8  14
TORSDOF 3
ENDMDL
MODEL 2
REMARK VINA RESULT:     -11.8      2.037      2.825
REMARK  Name = 449087
REMARK  3 active torsions:
REMARK  status: ('A' for Active; 'I' for Inactive)
REMARK    1  A    between atoms: C_5  and  C_11
REMARK    2  A    between atoms: C_8  and  C_14
REMARK    3  A    between atoms: C_14  and  C_15
REMARK                            x       y       z     vdW  Elec       q    Type
REMARK                         _______ _______ _______ _____ _____    ______ ____
ROOT
ATOM      1  O   UNL     1      35.022 -15.873 -20.667  0.00  0.00    -0.274 OA
ATOM      2  N   UNL     1      33.010 -12.455 -23.514  0.00  0.00    -0.239 N 
ATOM      3  N   UNL     1      33.605 -13.555 -24.005  0.00  0.00    -0.166 NA
ATOM      4  N   UNL     1      34.676 -15.406 -22.943  0.00  0.00    -0.268 N 
ATOM      5  C   UNL     1      33.022 -12.383 -22.152  0.00  0.00    +0.045 C 
ATOM      6  C   UNL     1      33.668 -13.515 -21.721  0.00  0.00    +0.048 C 
ATOM      7  C   UNL     1      33.996 -14.182 -22.904  0.00  0.00    +0.152 C 
ATOM      8  C   UNL     1      35.130 -16.149 -21.857  0.00  0.00    +0.232 C 
ATOM      9  H   UNL     1      32.603 -11.764 -24.085  0.00  0.00    +0.174 HD
ATOM     10  H   UNL     1      34.851 -15.783 -23.836  0.00  0.00    +0.156 HD
ENDROOT
BRANCH   5  11
ATOM     11  C   UNL     1      32.434 -11.272 -21.293  0.00  0.00    +0.037 C 
ATOM     12  C   UNL     1      30.977 -11.335 -20.903  0.00  0.00    +0.006 C 
ATOM     13  C   UNL     1      32.039 -11.573 -19.869  0.00  0.00    +0.006 C 
ENDBRANCH   5  11
BRANCH   8  14
ATOM     14  C   UNL     1      35.821 -17.428 -22.325  0.00  0.00    +0.112 C 
BRANCH  14  15
ATOM     15  C   UNL     1      35.771 -18.542 -21.333  0.00  0.00    -0.013 C 
ATOM     16  C   UNL     1      34.487 -20.188 -20.086  0.00  0.00    -0.000 C 
ATOM     17  C   UNL     1      34.550 -19.139 -21.018  0.00  0.00    -0.004 C 
ATOM     18  C   UNL     1      35.677 -20.639 -19.469  0.00  0.00    -0.000 C 
ATOM     19  C   UNL     1      36.942 -18.985 -20.726  0.00  0.00    -0.004 C 
ATOM     20  C   UNL     1      36.896 -20.026 -19.799  0.00  0.00    -0.000 C 
ATOM     21  C   UNL     1      33.266 -20.800 -19.756  0.00  0.00    -0.000 C 
ATOM     22  C   UNL     1      35.612 -21.689 -18.537  0.00  0.00    -0.000 C 
ATOM     23  C   UNL     1      33.221 -21.842 -18.828  0.00  0.00    -0.000 C 
ATOM     24  C   UNL     1      34.392 -22.285 -18.220  0.00  0.00    -0.000 C 
ENDBRANCH  14  15
ENDBRANCH   8  14
TORSDOF 3
ENDMDL
MODEL 3
REMARK VINA RESULT:     -11.2      2.562      8.316
REMARK  Name = 449087
REMARK  3 active torsions:
REMARK  status: ('A' for Active; 'I' for Inactive)
REMARK    1  A    between atoms: C_5  and  C_11
REMARK    2  A    between atoms: C_8  and  C_14
REMARK    3  A    between atoms: C_14  and  C_15
REMARK                            x       y       z     vdW  Elec       q    Type
REMARK                         _______ _______ _______ _____ _____    ______ ____
ROOT
ATOM      1  O   UNL     1      36.885 -19.826 -20.159  0.00  0.00    -0.274 OA
ATOM      2  N   UNL     1      32.415 -21.530 -19.182  0.00  0.00    -0.239 N 
ATOM      3  N   UNL     1      32.640 -20.521 -20.040  0.00  0.00    -0.166 NA
ATOM      4  N   UNL     1      34.645 -19.442 -20.755  0.00  0.00    -0.268 N 
ATOM      5  C   UNL     1      33.548 -22.030 -18.611  0.00  0.00    +0.045 C 
ATOM      6  C   UNL     1      34.587 -21.299 -19.133  0.00  0.00    +0.048 C 
ATOM      7  C   UNL     1      33.959 -20.397 -19.996  0.00  0.00    +0.152 C 
ATOM      8  C   UNL     1      36.021 -19.225 -20.787  0.00  0.00    +0.232 C 
ATOM      9  H   UNL     1      31.515 -21.876 -18.983  0.00  0.00    +0.174 HD
ATOM     10  H   UNL     1      34.097 -18.861 -21.330  0.00  0.00    +0.156 HD
ENDROOT
BRANCH   5  11
ATOM     11  C   UNL     1      33.635 -23.169 -17.604  0.00  0.00    +0.037 C 
ATOM     12  C   UNL     1      34.180 -22.892 -16.225  0.00  0.00    +0.006 C 
ATOM     13  C   UNL     1      32.715 -23.166 -16.409  0.00  0.00    +0.006 C 
ENDBRANCH   5  11
BRANCH   8  14
ATOM     14  C   UNL     1      36.369 -18.089 -21.747  0.00  0.00    +0.112 C 
BRANCH  14  15
ATOM     15  C   UNL     1      35.571 -16.847 -21.529  0.00  0.00    -0.013 C 
ATOM     16  C   UNL     1      34.369 -14.936 -22.433  0.00  0.00    -0.000 C 
ATOM     17  C   UNL     1      35.120 -16.108 -22.622  0.00  0.00    -0.004 C 
ATOM     18  C   UNL     1      34.069 -14.510 -21.118  0.00  0.00    -0.000 C 
ATOM     19  C   UNL     1      35.277 -16.428 -20.235  0.00  0.00    -0.004 C 
ATOM     20  C   UNL     1      34.531 -15.267 -20.029  0.00  0.00    -0.000 C 
ATOM     21  C   UNL     1      33.908 -14.178 -23.523  0.00  0.00    -0.000 C 
ATOM     22  C   UNL     1      33.317 -13.338 -20.930  0.00  0.00    -0.000 C 
ATOM     23  C   UNL     1      33.162 -13.017 -23.317  0.00  0.00    -0.000 C 
ATOM     24  C   UNL     1      32.868 -12.598 -22.023  0.00  0.00    -0.000 C 
ENDBRANCH  14  15
ENDBRANCH   8  14
TORSDOF 3
ENDMDL
MODEL 4
REMARK VINA RESULT:     -11.1      2.097      2.449
REMARK  Name = 449087
REMARK  3 active torsions:
REMARK  status: ('A' for Active; 'I' for Inactive)
REMARK    1  A    between atoms: C_5  and  C_11
REMARK    2  A    between atoms: C_8  and  C_14
REMARK    3  A    between atoms: C_14  and  C_15
REMARK                            x       y       z     vdW  Elec       q    Type
REMARK                         _______ _______ _______ _____ _____    ______ ____
ROOT
ATOM      1  O   UNL     1      36.065 -18.502 -22.525  0.00  0.00    -0.274 OA
ATOM      2  N   UNL     1      34.459 -14.347 -20.527  0.00  0.00    -0.239 N 
ATOM      3  N   UNL     1      34.841 -15.408 -19.796  0.00  0.00    -0.166 NA
ATOM      4  N   UNL     1      35.666 -17.563 -20.409  0.00  0.00    -0.268 N 
ATOM      5  C   UNL     1      34.560 -14.540 -21.873  0.00  0.00    +0.045 C 
ATOM      6  C   UNL     1      35.044 -15.815 -22.035  0.00  0.00    +0.048 C 
ATOM      7  C   UNL     1      35.191 -16.285 -20.727  0.00  0.00    +0.152 C 
ATOM      8  C   UNL     1      36.060 -18.558 -21.301  0.00  0.00    +0.232 C 
ATOM      9  H   UNL     1      34.134 -13.509 -20.127  0.00  0.00    +0.174 HD
ATOM     10  H   UNL     1      35.729 -17.782 -19.451  0.00  0.00    +0.156 HD
ENDROOT
BRANCH   5  11
ATOM     11  C   UNL     1      34.209 -13.540 -22.966  0.00  0.00    +0.037 C 
ATOM     12  C   UNL     1      33.085 -13.857 -23.921  0.00  0.00    +0.006 C 
ATOM     13  C   UNL     1      32.905 -12.787 -22.884  0.00  0.00    +0.006 C 
ENDBRANCH   5  11
BRANCH   8  14
ATOM     14  C   UNL     1      36.517 -19.807 -20.551  0.00  0.00    +0.112 C 
BRANCH  14  15
ATOM     15  C   UNL     1      35.432 -20.482 -19.781  0.00  0.00    -0.013 C 
ATOM     16  C   UNL     1      34.739 -21.920 -17.945  0.00  0.00    -0.000 C 
ATOM     17  C   UNL     1      35.749 -21.278 -18.680  0.00  0.00    -0.004 C 
ATOM     18  C   UNL     1      33.388 -21.750 -18.330  0.00  0.00    -0.000 C 
ATOM     19  C   UNL     1      34.103 -20.315 -20.159  0.00  0.00    -0.004 C 
ATOM     20  C   UNL     1      33.087 -20.944 -19.440  0.00  0.00    -0.000 C 
ATOM     21  C   UNL     1      35.041 -22.726 -16.835  0.00  0.00    -0.000 C 
ATOM     22  C   UNL     1      32.378 -22.391 -17.594  0.00  0.00    -0.000 C 
ATOM     23  C   UNL     1      34.025 -23.356 -16.116  0.00  0.00    -0.000 C 
ATOM     24  C   UNL     1      32.696 -23.189 -16.494  0.00  0.00    -0.000 C 
ENDBRANCH  14  15
ENDBRANCH   8  14
TORSDOF 3
ENDMDL
MODEL 5
REMARK VINA RESULT:     -11.1      3.962      8.996
REMARK  Name = 449087
REMARK  3 active torsions:
REMARK  status: ('A' for Active; 'I' for Inactive)
REMARK    1  A    between atoms: C_5  and  C_11
REMARK    2  A    between atoms: C_8  and  C_14
REMARK    3  A    between atoms: C_14  and  C_15
REMARK                            x       y       z     vdW  Elec       q    Type
REMARK                         _______ _______ _______ _____ _____    ______ ____
ROOT
ATOM      1  O   UNL     1      33.545 -20.994 -19.547  0.00  0.00    -0.274 OA
ATOM      2  N   UNL     1      33.737 -23.760 -15.528  0.00  0.00    -0.239 N 
ATOM      3  N   UNL     1      34.836 -23.343 -16.180  0.00  0.00    -0.166 NA
ATOM      4  N   UNL     1      35.128 -22.007 -18.136  0.00  0.00    -0.268 N 
ATOM      5  C   UNL     1      32.569 -23.340 -16.093  0.00  0.00    +0.045 C 
ATOM      6  C   UNL     1      32.927 -22.596 -17.190  0.00  0.00    +0.048 C 
ATOM      7  C   UNL     1      34.324 -22.641 -17.181  0.00  0.00    +0.152 C 
ATOM      8  C   UNL     1      34.700 -21.248 -19.223  0.00  0.00    +0.232 C 
ATOM      9  H   UNL     1      33.772 -24.317 -14.718  0.00  0.00    +0.174 HD
ATOM     10  H   UNL     1      36.101 -22.107 -18.027  0.00  0.00    +0.156 HD
ENDROOT
BRANCH   5  11
ATOM     11  C   UNL     1      31.160 -23.639 -15.599  0.00  0.00    +0.037 C 
ATOM     12  C   UNL     1      30.543 -22.746 -14.551  0.00  0.00    +0.006 C 
ATOM     13  C   UNL     1      30.038 -22.699 -15.964  0.00  0.00    +0.006 C 
ENDBRANCH   5  11
BRANCH   8  14
ATOM     14  C   UNL     1      35.892 -20.728 -20.023  0.00  0.00    +0.112 C 
BRANCH  14  15
ATOM     15  C   UNL     1      35.587 -19.522 -20.848  0.00  0.00    -0.013 C 
ATOM     16  C   UNL     1      34.682 -18.540 -22.881  0.00  0.00    -0.000 C 
ATOM     17  C   UNL     1      34.975 -19.665 -22.093  0.00  0.00    -0.004 C 
ATOM     18  C   UNL     1      35.013 -17.252 -22.398  0.00  0.00    -0.000 C 
ATOM     19  C   UNL     1      35.913 -18.255 -20.373  0.00  0.00    -0.004 C 
ATOM     20  C   UNL     1      35.628 -17.126 -21.142  0.00  0.00    -0.000 C 
ATOM     21  C   UNL     1      34.067 -18.666 -24.137  0.00  0.00    -0.000 C 
ATOM     22  C   UNL     1      34.719 -16.127 -23.186  0.00  0.00    -0.000 C 
ATOM     23  C   UNL     1      33.783 -17.537 -24.907  0.00  0.00    -0.000 C 
ATOM     24  C   UNL     1      34.108 -16.270 -24.432  0.00  0.00    -0.000 C 
ENDBRANCH  14  15
ENDBRANCH   8  14
TORSDOF 3
ENDMDL
MODEL 6
REMARK VINA RESULT:     -11.0      2.702      8.673
REMARK  Name = 449087
REMARK  3 active torsions:
REMARK  status: ('A' for Active; 'I' for Inactive)
REMARK    1  A    between atoms: C_5  and  C_11
REMARK    2  A    between atoms: C_8  and  C_14
REMARK    3  A    between atoms: C_14  and  C_15
REMARK                            x       y       z     vdW  Elec       q    Type
REMARK                         _______ _______ _______ _____ _____    ______ ____
ROOT
ATOM      1  O   UNL     1      34.149 -19.745 -21.449  0.00  0.00    -0.274 OA
ATOM      2  N   UNL     1      35.830 -22.058 -17.492  0.00  0.00    -0.239 N 
ATOM      3  N   UNL     1      36.552 -21.147 -18.166  0.00  0.00    -0.166 NA
ATOM      4  N   UNL     1      36.072 -19.837 -20.103  0.00  0.00    -0.268 N 
ATOM      5  C   UNL     1      34.590 -22.276 -18.015  0.00  0.00    +0.045 C 
ATOM      6  C   UNL     1      34.492 -21.448 -19.107  0.00  0.00    +0.048 C 
ATOM      7  C   UNL     1      35.725 -20.791 -19.139  0.00  0.00    +0.152 C 
ATOM      8  C   UNL     1      35.287 -19.390 -21.163  0.00  0.00    +0.232 C 
ATOM      9  H   UNL     1      36.166 -22.526 -16.694  0.00  0.00    +0.174 HD
ATOM     10  H   UNL     1      36.969 -19.439 -20.024  0.00  0.00    +0.156 HD
ENDROOT
BRANCH   5  11
ATOM     11  C   UNL     1      33.534 -23.238 -17.489  0.00  0.00    +0.037 C 
ATOM     12  C   UNL     1      33.289 -23.319 -16.002  0.00  0.00    +0.006 C 
ATOM     13  C   UNL     1      32.263 -22.684 -16.896  0.00  0.00    +0.006 C 
ENDBRANCH   5  11
BRANCH   8  14
ATOM     14  C   UNL     1      36.032 -18.342 -21.985  0.00  0.00    +0.112 C 
BRANCH  14  15
ATOM     15  C   UNL     1      35.406 -16.988 -21.952  0.00  0.00    -0.013 C 
ATOM     16  C   UNL     1      34.342 -15.136 -23.115  0.00  0.00    -0.000 C 
ATOM     17  C   UNL     1      34.933 -16.409 -23.130  0.00  0.00    -0.004 C 
ATOM     18  C   UNL     1      34.226 -14.440 -21.889  0.00  0.00    -0.000 C 
ATOM     19  C   UNL     1      35.292 -16.304 -20.746  0.00  0.00    -0.004 C 
ATOM     20  C   UNL     1      34.706 -15.039 -20.712  0.00  0.00    -0.000 C 
ATOM     21  C   UNL     1      33.861 -14.538 -24.292  0.00  0.00    -0.000 C 
ATOM     22  C   UNL     1      33.633 -13.167 -21.874  0.00  0.00    -0.000 C 
ATOM     23  C   UNL     1      33.276 -13.272 -24.259  0.00  0.00    -0.000 C 
ATOM     24  C   UNL     1      33.162 -12.588 -23.053  0.00  0.00    -0.000 C 
ENDBRANCH  14  15
ENDBRANCH   8  14
TORSDOF 3
ENDMDL
MODEL 7
REMARK VINA RESULT:     -11.0      5.713     10.530
REMARK  Name = 449087
REMARK  3 active torsions:
REMARK  status: ('A' for Active; 'I' for Inactive)
REMARK    1  A    between atoms: C_5  and  C_11
REMARK    2  A    between atoms: C_8  and  C_14
REMARK    3  A    between atoms: C_14  and  C_15
REMARK                            x       y       z     vdW  Elec       q    Type
REMARK                         _______ _______ _______ _____ _____    ______ ____
ROOT
ATOM      1  O   UNL     1      35.457 -22.792 -16.826  0.00  0.00    -0.274 OA
ATOM      2  N   UNL     1      34.427 -24.560 -12.393  0.00  0.00    -0.239 N 
ATOM      3  N   UNL     1      33.485 -24.332 -13.324  0.00  0.00    -0.166 NA
ATOM      4  N   UNL     1      33.609 -23.493 -15.556  0.00  0.00    -0.268 N 
ATOM      5  C   UNL     1      35.691 -24.250 -12.800  0.00  0.00    +0.045 C 
ATOM      6  C   UNL     1      35.570 -23.790 -14.088  0.00  0.00    +0.048 C 
ATOM      7  C   UNL     1      34.197 -23.867 -14.341  0.00  0.00    +0.152 C 
ATOM      8  C   UNL     1      34.257 -22.995 -16.684  0.00  0.00    +0.232 C 
ATOM      9  H   UNL     1      34.223 -24.915 -11.498  0.00  0.00    +0.174 HD
ATOM     10  H   UNL     1      32.632 -23.592 -15.619  0.00  0.00    +0.156 HD
ENDROOT
BRANCH   5  11
ATOM     11  C   UNL     1      36.971 -24.393 -11.987  0.00  0.00    +0.037 C 
ATOM     12  C   UNL     1      37.647 -25.739 -11.909  0.00  0.00    +0.006 C 
ATOM     13  C   UNL     1      38.276 -24.632 -12.704  0.00  0.00    +0.006 C 
ENDBRANCH   5  11
BRANCH   8  14
ATOM     14  C   UNL     1      33.256 -22.710 -17.801  0.00  0.00    +0.112 C 
BRANCH  14  15
ATOM     15  C   UNL     1      33.696 -21.648 -18.752  0.00  0.00    -0.013 C 
ATOM     16  C   UNL     1      35.481 -20.341 -19.763  0.00  0.00    -0.000 C 
ATOM     17  C   UNL     1      35.051 -21.339 -18.873  0.00  0.00    -0.004 C 
ATOM     18  C   UNL     1      34.525 -19.650 -20.543  0.00  0.00    -0.000 C 
ATOM     19  C   UNL     1      32.755 -20.968 -19.519  0.00  0.00    -0.004 C 
ATOM     20  C   UNL     1      33.165 -19.975 -20.409  0.00  0.00    -0.000 C 
ATOM     21  C   UNL     1      36.842 -20.016 -19.897  0.00  0.00    -0.000 C 
ATOM     22  C   UNL     1      34.955 -18.653 -21.434  0.00  0.00    -0.000 C 
ATOM     23  C   UNL     1      37.251 -19.022 -20.787  0.00  0.00    -0.000 C 
ATOM     24  C   UNL     1      36.310 -18.342 -21.554  0.00  0.00    -0.000 C 
ENDBRANCH  14  15
ENDBRANCH   8  14
TORSDOF 3
ENDMDL
MODEL 8
REMARK VINA RESULT:     -10.9      3.722      8.820
REMARK  Name = 449087
REMARK  3 active torsions:
REMARK  status: ('A' for Active; 'I' for Inactive)
REMARK    1  A    between atoms: C_5  and  C_11
REMARK    2  A    between atoms: C_8  and  C_14
REMARK    3  A    between atoms: C_14  and  C_15
REMARK                            x       y       z     vdW  Elec       q    Type
REMARK                         _______ _______ _______ _____ _____    ______ ____
ROOT
ATOM      1  O   UNL     1      33.629 -20.702 -19.844  0.00  0.00    -0.274 OA
ATOM      2  N   UNL     1      34.037 -23.563 -15.909  0.00  0.00    -0.239 N 
ATOM      3  N   UNL     1      35.100 -23.069 -16.565  0.00  0.00    -0.166 NA
ATOM      4  N   UNL     1      35.287 -21.665 -18.486  0.00  0.00    -0.268 N 
ATOM      5  C   UNL     1      32.838 -23.193 -16.445  0.00  0.00    +0.045 C 
ATOM      6  C   UNL     1      33.138 -22.400 -17.525  0.00  0.00    +0.048 C 
ATOM      7  C   UNL     1      34.535 -22.369 -17.538  0.00  0.00    +0.152 C 
ATOM      8  C   UNL     1      34.802 -20.901 -19.545  0.00  0.00    +0.232 C 
ATOM      9  H   UNL     1      34.115 -24.140 -15.116  0.00  0.00    +0.174 HD
ATOM     10  H   UNL     1      36.266 -21.714 -18.394  0.00  0.00    +0.156 HD
ENDROOT
BRANCH   5  11
ATOM     11  C   UNL     1      31.455 -23.582 -15.940  0.00  0.00    +0.037 C 
ATOM     12  C   UNL     1      30.889 -22.879 -14.731  0.00  0.00    +0.006 C 
ATOM     13  C   UNL     1      30.315 -22.607 -16.092  0.00  0.00    +0.006 C 
ENDBRANCH   5  11
BRANCH   8  14
ATOM     14  C   UNL     1      35.950 -20.293 -20.347  0.00  0.00    +0.112 C 
BRANCH  14  15
ATOM     15  C   UNL     1      35.588 -19.038 -21.068  0.00  0.00    -0.013 C 
ATOM     16  C   UNL     1      35.090 -16.658 -21.023  0.00  0.00    -0.000 C 
ATOM     17  C   UNL     1      35.431 -17.847 -20.359  0.00  0.00    -0.004 C 
ATOM     18  C   UNL     1      34.908 -16.676 -22.426  0.00  0.00    -0.000 C 
ATOM     19  C   UNL     1      35.408 -19.057 -22.448  0.00  0.00    -0.004 C 
ATOM     20  C   UNL     1      35.070 -17.885 -23.124  0.00  0.00    -0.000 C 
ATOM     21  C   UNL     1      34.928 -15.450 -20.325  0.00  0.00    -0.000 C 
ATOM     22  C   UNL     1      34.567 -15.486 -23.091  0.00  0.00    -0.000 C 
ATOM     23  C   UNL     1      34.589 -14.277 -21.001  0.00  0.00    -0.000 C 
ATOM     24  C   UNL     1      34.409 -14.295 -22.381  0.00  0.00    -0.000 C 
ENDBRANCH  14  15
ENDBRANCH   8  14
TORSDOF 3
ENDMDL
MODEL 9
REMARK VINA RESULT:     -10.7      2.358      8.044
REMARK  Name = 449087
REMARK  3 active torsions:
REMARK  status: ('A' for Active; 'I' for Inactive)
REMARK    1  A    between atoms: C_5  and  C_11
REMARK    2  A    between atoms: C_8  and  C_14
REMARK    3  A    between atoms: C_14  and  C_15
REMARK                            x       y       z     vdW  Elec       q    Type
REMARK                         _______ _______ _______ _____ _____    ______ ____
ROOT
ATOM      1  O   UNL     1      34.144 -18.285 -23.294  0.00  0.00    -0.274 OA
ATOM      2  N   UNL     1      36.718 -19.842 -19.449  0.00  0.00    -0.239 N 
ATOM      3  N   UNL     1      37.000 -18.702 -20.103  0.00  0.00    -0.166 NA
ATOM      4  N   UNL     1      35.985 -17.641 -21.985  0.00  0.00    -0.268 N 
ATOM      5  C   UNL     1      35.650 -20.520 -19.959  0.00  0.00    +0.045 C 
ATOM      6  C   UNL     1      35.201 -19.772 -21.019  0.00  0.00    +0.048 C 
ATOM      7  C   UNL     1      36.072 -18.679 -21.049  0.00  0.00    +0.152 C 
ATOM      8  C   UNL     1      35.056 -17.515 -23.015  0.00  0.00    +0.232 C 
ATOM      9  H   UNL     1      37.235 -20.158 -18.673  0.00  0.00    +0.174 HD
ATOM     10  H   UNL     1      36.653 -16.922 -21.906  0.00  0.00    +0.156 HD
ENDROOT
BRANCH   5  11
ATOM     11  C   UNL     1      35.078 -21.836 -19.449  0.00  0.00    +0.037 C 
ATOM     12  C   UNL     1      34.933 -22.048 -17.962  0.00  0.00    +0.006 C 
ATOM     13  C   UNL     1      33.712 -21.846 -18.811  0.00  0.00    +0.006 C 
ENDBRANCH   5  11
BRANCH   8  14
ATOM     14  C   UNL     1      35.301 -16.237 -23.813  0.00  0.00    +0.112 C 
BRANCH  14  15
ATOM     15  C   UNL     1      34.452 -15.086 -23.388  0.00  0.00    -0.013 C 
ATOM     16  C   UNL     1      33.398 -13.792 -21.619  0.00  0.00    -0.000 C 
ATOM     17  C   UNL     1      34.195 -14.871 -22.034  0.00  0.00    -0.004 C 
ATOM     18  C   UNL     1      32.856 -12.918 -22.590  0.00  0.00    -0.000 C 
ATOM     19  C   UNL     1      33.919 -14.226 -24.344  0.00  0.00    -0.004 C 
ATOM     20  C   UNL     1      33.125 -13.149 -23.949  0.00  0.00    -0.000 C 
ATOM     21  C   UNL     1      33.128 -13.562 -20.260  0.00  0.00    -0.000 C 
ATOM     22  C   UNL     1      32.058 -11.838 -22.174  0.00  0.00    -0.000 C 
ATOM     23  C   UNL     1      32.333 -12.485 -19.865  0.00  0.00    -0.000 C 
ATOM     24  C   UNL     1      31.800 -11.625 -20.820  0.00  0.00    -0.000 C 
ENDBRANCH  14  15
ENDBRANCH   8  14
TORSDOF 3
ENDMDL
