MODEL 1
REMARK VINA RESULT:     -11.7      0.000      0.000
REMARK  Name = 46937156
REMARK  6 active torsions:
REMARK  status: ('A' for Active; 'I' for Inactive)
REMARK    1  A    between atoms: C_5  and  O_22
REMARK    2  A    between atoms: C_7  and  O_24
REMARK    3  A    between atoms: C_8  and  O_26
REMARK    4  A    between atoms: C_9  and  C_12
REMARK    5  A    between atoms: C_10  and  C_28
REMARK    6  A    between atoms: C_28  and  O_29
REMARK                            x       y       z     vdW  Elec       q    Type
REMARK                         _______ _______ _______ _____ _____    ______ ____
ROOT
ATOM      1  O   UNL     1      36.806 -24.645 -14.998  0.00  0.00    -0.328 OA
ATOM      2  O   UNL     1      36.507 -22.336 -14.513  0.00  0.00    -0.260 OA
ATOM      3  N   UNL     1      36.696 -21.555 -15.739  0.00  0.00    -0.184 NA
ATOM      4  C   UNL     1      35.861 -23.575 -14.848  0.00  0.00    +0.234 C 
ATOM      5  C   UNL     1      34.828 -23.952 -13.778  0.00  0.00    +0.193 C 
ATOM      6  C   UNL     1      35.227 -23.316 -16.204  0.00  0.00    +0.083 C 
ATOM      7  C   UNL     1      35.508 -24.300 -12.455  0.00  0.00    +0.171 C 
ATOM      8  C   UNL     1      36.605 -25.345 -12.669  0.00  0.00    +0.169 C 
ATOM      9  C   UNL     1      36.262 -22.415 -16.847  0.00  0.00    +0.107 C 
ATOM     10  C   UNL     1      37.544 -24.929 -13.805  0.00  0.00    +0.176 C 
ATOM     11  H   UNL     1      37.678 -21.304 -15.850  0.00  0.00    +0.155 HD
ENDROOT
BRANCH   9  12
ATOM     12  C   UNL     1      35.746 -21.640 -18.035  0.00  0.00    -0.006 C 
ATOM     13  C   UNL     1      36.597 -20.783 -18.733  0.00  0.00    -0.003 C 
ATOM     14  C   UNL     1      34.418 -21.779 -18.432  0.00  0.00    -0.003 C 
ATOM     15  C   UNL     1      36.131 -20.054 -19.840  0.00  0.00    -0.000 C 
ATOM     16  C   UNL     1      33.939 -21.063 -19.528  0.00  0.00    -0.000 C 
ATOM     17  C   UNL     1      34.782 -20.197 -20.243  0.00  0.00    -0.000 C 
ATOM     18  C   UNL     1      36.974 -19.188 -20.553  0.00  0.00    -0.000 C 
ATOM     19  C   UNL     1      34.316 -19.467 -21.349  0.00  0.00    -0.000 C 
ATOM     20  C   UNL     1      36.494 -18.471 -21.650  0.00  0.00    -0.000 C 
ATOM     21  C   UNL     1      35.168 -18.611 -22.047  0.00  0.00    -0.000 C 
ENDBRANCH   9  12
BRANCH   5  22
ATOM     22  O   UNL     1      33.921 -22.873 -13.573  0.00  0.00    -0.378 OA
ATOM     23  H   UNL     1      34.359 -22.174 -13.062  0.00  0.00    +0.211 HD
ENDBRANCH   5  22
BRANCH   7  24
ATOM     24  O   UNL     1      34.522 -24.833 -11.570  0.00  0.00    -0.379 OA
ATOM     25  H   UNL     1      34.040 -24.104 -11.145  0.00  0.00    +0.211 HD
ENDBRANCH   7  24
BRANCH   8  26
ATOM     26  O   UNL     1      37.329 -25.480 -11.450  0.00  0.00    -0.379 OA
ATOM     27  H   UNL     1      37.938 -26.232 -11.517  0.00  0.00    +0.211 HD
ENDBRANCH   8  26
BRANCH  10  28
ATOM     28  C   UNL     1      38.545 -26.027 -14.153  0.00  0.00    +0.169 C 
BRANCH  28  29
ATOM     29  O   UNL     1      37.949 -27.282 -13.883  0.00  0.00    -0.379 OA
ATOM     30  H   UNL     1      38.544 -27.810 -13.327  0.00  0.00    +0.211 HD
ENDBRANCH  28  29
ENDBRANCH  10  28
TORSDOF 6
ENDMDL
MODEL 2
REMARK VINA RESULT:     -11.1      1.435      2.764
REMARK  Name = 46937156
REMARK  6 active torsions:
REMARK  status: ('A' for Active; 'I' for Inactive)
REMARK    1  A    between atoms: C_5  and  O_22
REMARK    2  A    between atoms: C_7  and  O_24
REMARK    3  A    between atoms: C_8  and  O_26
REMARK    4  A    between atoms: C_9  and  C_12
REMARK    5  A    between atoms: C_10  and  C_28
REMARK    6  A    between atoms: C_28  and  O_29
REMARK                            x       y       z     vdW  Elec       q    Type
REMARK                         _______ _______ _______ _____ _____    ______ ____
ROOT
ATOM      1  O   UNL     1      36.227 -23.746 -13.080  0.00  0.00    -0.328 OA
ATOM      2  O   UNL     1      35.740 -25.213 -14.888  0.00  0.00    -0.260 OA
ATOM      3  N   UNL     1      34.851 -24.536 -15.837  0.00  0.00    -0.184 NA
ATOM      4  C   UNL     1      36.663 -24.252 -14.351  0.00  0.00    +0.234 C 
ATOM      5  C   UNL     1      38.059 -24.870 -14.202  0.00  0.00    +0.193 C 
ATOM      6  C   UNL     1      36.637 -23.106 -15.347  0.00  0.00    +0.083 C 
ATOM      7  C   UNL     1      38.070 -25.953 -13.124  0.00  0.00    +0.171 C 
ATOM      8  C   UNL     1      37.472 -25.423 -11.819  0.00  0.00    +0.169 C 
ATOM      9  C   UNL     1      35.179 -23.107 -15.760  0.00  0.00    +0.107 C 
ATOM     10  C   UNL     1      36.118 -24.753 -12.069  0.00  0.00    +0.176 C 
ATOM     11  H   UNL     1      33.876 -24.688 -15.577  0.00  0.00    +0.155 HD
ENDROOT
BRANCH   9  12
ATOM     12  C   UNL     1      34.908 -22.364 -17.047  0.00  0.00    -0.006 C 
ATOM     13  C   UNL     1      35.932 -21.652 -17.670  0.00  0.00    -0.003 C 
ATOM     14  C   UNL     1      33.634 -22.390 -17.608  0.00  0.00    -0.003 C 
ATOM     15  C   UNL     1      35.695 -20.956 -18.867  0.00  0.00    -0.000 C 
ATOM     16  C   UNL     1      33.381 -21.703 -18.796  0.00  0.00    -0.000 C 
ATOM     17  C   UNL     1      34.400 -20.982 -19.438  0.00  0.00    -0.000 C 
ATOM     18  C   UNL     1      36.714 -20.234 -19.508  0.00  0.00    -0.000 C 
ATOM     19  C   UNL     1      34.164 -20.284 -20.634  0.00  0.00    -0.000 C 
ATOM     20  C   UNL     1      36.461 -19.547 -20.696  0.00  0.00    -0.000 C 
ATOM     21  C   UNL     1      35.189 -19.572 -21.258  0.00  0.00    -0.000 C 
ENDBRANCH   9  12
BRANCH   5  22
ATOM     22  O   UNL     1      38.479 -25.435 -15.441  0.00  0.00    -0.378 OA
ATOM     23  H   UNL     1      39.388 -25.157 -15.632  0.00  0.00    +0.211 HD
ENDBRANCH   5  22
BRANCH   7  24
ATOM     24  O   UNL     1      39.424 -26.343 -12.892  0.00  0.00    -0.379 OA
ATOM     25  H   UNL     1      39.441 -27.139 -12.336  0.00  0.00    +0.211 HD
ENDBRANCH   7  24
BRANCH   8  26
ATOM     26  O   UNL     1      37.326 -26.520 -10.923  0.00  0.00    -0.379 OA
ATOM     27  H   UNL     1      36.581 -27.073 -11.207  0.00  0.00    +0.211 HD
ENDBRANCH   8  26
BRANCH  10  28
ATOM     28  C   UNL     1      35.577 -24.068 -10.817  0.00  0.00    +0.169 C 
BRANCH  28  29
ATOM     29  O   UNL     1      35.326 -25.056  -9.835  0.00  0.00    -0.379 OA
ATOM     30  H   UNL     1      35.436 -24.670  -8.952  0.00  0.00    +0.211 HD
ENDBRANCH  28  29
ENDBRANCH  10  28
TORSDOF 6
ENDMDL
MODEL 3
REMARK VINA RESULT:     -10.0      3.016      4.666
REMARK  Name = 46937156
REMARK  6 active torsions:
REMARK  status: ('A' for Active; 'I' for Inactive)
REMARK    1  A    between atoms: C_5  and  O_22
REMARK    2  A    between atoms: C_7  and  O_24
REMARK    3  A    between atoms: C_8  and  O_26
REMARK    4  A    between atoms: C_9  and  C_12
REMARK    5  A    between atoms: C_10  and  C_28
REMARK    6  A    between atoms: C_28  and  O_29
REMARK                            x       y       z     vdW  Elec       q    Type
REMARK                         _______ _______ _______ _____ _____    ______ ____
ROOT
ATOM      1  O   UNL     1      31.148 -23.157 -15.982  0.00  0.00    -0.328 OA
ATOM      2  O   UNL     1      32.959 -24.469 -16.791  0.00  0.00    -0.260 OA
ATOM      3  N   UNL     1      33.494 -23.858 -18.011  0.00  0.00    -0.184 NA
ATOM      4  C   UNL     1      32.555 -23.426 -15.889  0.00  0.00    +0.234 C 
ATOM      5  C   UNL     1      32.909 -23.795 -14.443  0.00  0.00    +0.193 C 
ATOM      6  C   UNL     1      33.301 -22.196 -16.376  0.00  0.00    +0.083 C 
ATOM      7  C   UNL     1      32.070 -24.975 -13.954  0.00  0.00    +0.171 C 
ATOM      8  C   UNL     1      30.582 -24.715 -14.192  0.00  0.00    +0.169 C 
ATOM      9  C   UNL     1      33.280 -22.412 -17.876  0.00  0.00    +0.107 C 
ATOM     10  C   UNL     1      30.325 -24.276 -15.637  0.00  0.00    +0.176 C 
ATOM     11  H   UNL     1      32.999 -24.213 -18.830  0.00  0.00    +0.155 HD
ENDROOT
BRANCH   9  12
ATOM     12  C   UNL     1      34.298 -21.588 -18.627  0.00  0.00    -0.006 C 
ATOM     13  C   UNL     1      33.883 -20.710 -19.628  0.00  0.00    -0.003 C 
ATOM     14  C   UNL     1      35.651 -21.706 -18.321  0.00  0.00    -0.003 C 
ATOM     15  C   UNL     1      34.818 -19.937 -20.336  0.00  0.00    -0.000 C 
ATOM     16  C   UNL     1      36.593 -20.947 -19.014  0.00  0.00    -0.000 C 
ATOM     17  C   UNL     1      36.193 -20.057 -20.025  0.00  0.00    -0.000 C 
ATOM     18  C   UNL     1      34.417 -19.049 -21.347  0.00  0.00    -0.000 C 
ATOM     19  C   UNL     1      37.128 -19.285 -20.734  0.00  0.00    -0.000 C 
ATOM     20  C   UNL     1      35.360 -18.289 -22.041  0.00  0.00    -0.000 C 
ATOM     21  C   UNL     1      36.712 -18.406 -21.735  0.00  0.00    -0.000 C 
ENDBRANCH   9  12
BRANCH   5  22
ATOM     22  O   UNL     1      34.291 -24.128 -14.348  0.00  0.00    -0.378 OA
ATOM     23  H   UNL     1      34.786 -23.653 -15.034  0.00  0.00    +0.211 HD
ENDBRANCH   5  22
BRANCH   7  24
ATOM     24  O   UNL     1      32.298 -25.138 -12.553  0.00  0.00    -0.379 OA
ATOM     25  H   UNL     1      32.321 -24.267 -12.126  0.00  0.00    +0.211 HD
ENDBRANCH   7  24
BRANCH   8  26
ATOM     26  O   UNL     1      29.873 -25.917 -13.905  0.00  0.00    -0.379 OA
ATOM     27  H   UNL     1      29.307 -26.147 -14.659  0.00  0.00    +0.211 HD
ENDBRANCH   8  26
BRANCH  10  28
ATOM     28  C   UNL     1      28.877 -23.849 -15.859  0.00  0.00    +0.169 C 
BRANCH  28  29
ATOM     29  O   UNL     1      28.871 -22.650 -16.611  0.00  0.00    -0.379 OA
ATOM     30  H   UNL     1      27.962 -22.438 -16.875  0.00  0.00    +0.211 HD
ENDBRANCH  28  29
ENDBRANCH  10  28
TORSDOF 6
ENDMDL
MODEL 4
REMARK VINA RESULT:      -9.9      1.338      2.647
REMARK  Name = 46937156
REMARK  6 active torsions:
REMARK  status: ('A' for Active; 'I' for Inactive)
REMARK    1  A    between atoms: C_5  and  O_22
REMARK    2  A    between atoms: C_7  and  O_24
REMARK    3  A    between atoms: C_8  and  O_26
REMARK    4  A    between atoms: C_9  and  C_12
REMARK    5  A    between atoms: C_10  and  C_28
REMARK    6  A    between atoms: C_28  and  O_29
REMARK                            x       y       z     vdW  Elec       q    Type
REMARK                         _______ _______ _______ _____ _____    ______ ____
ROOT
ATOM      1  O   UNL     1      35.532 -23.287 -13.433  0.00  0.00    -0.328 OA
ATOM      2  O   UNL     1      35.909 -24.655 -15.342  0.00  0.00    -0.260 OA
ATOM      3  N   UNL     1      35.087 -24.171 -16.455  0.00  0.00    -0.184 NA
ATOM      4  C   UNL     1      36.365 -23.527 -14.578  0.00  0.00    +0.234 C 
ATOM      5  C   UNL     1      37.814 -23.734 -14.121  0.00  0.00    +0.193 C 
ATOM      6  C   UNL     1      36.215 -22.346 -15.522  0.00  0.00    +0.083 C 
ATOM      7  C   UNL     1      37.912 -24.866 -13.098  0.00  0.00    +0.171 C 
ATOM      8  C   UNL     1      36.915 -24.652 -11.958  0.00  0.00    +0.169 C 
ATOM      9  C   UNL     1      34.950 -22.722 -16.267  0.00  0.00    +0.107 C 
ATOM     10  C   UNL     1      35.510 -24.373 -12.502  0.00  0.00    +0.176 C 
ATOM     11  H   UNL     1      34.170 -24.618 -16.437  0.00  0.00    +0.155 HD
ENDROOT
BRANCH   9  12
ATOM     12  C   UNL     1      34.756 -21.970 -17.562  0.00  0.00    -0.006 C 
ATOM     13  C   UNL     1      35.821 -21.268 -18.127  0.00  0.00    -0.003 C 
ATOM     14  C   UNL     1      33.514 -21.976 -18.190  0.00  0.00    -0.003 C 
ATOM     15  C   UNL     1      35.656 -20.562 -19.330  0.00  0.00    -0.000 C 
ATOM     16  C   UNL     1      33.332 -21.280 -19.385  0.00  0.00    -0.000 C 
ATOM     17  C   UNL     1      34.393 -20.569 -19.968  0.00  0.00    -0.000 C 
ATOM     18  C   UNL     1      36.717 -19.851 -19.913  0.00  0.00    -0.000 C 
ATOM     19  C   UNL     1      34.228 -19.862 -21.171  0.00  0.00    -0.000 C 
ATOM     20  C   UNL     1      36.535 -19.155 -21.109  0.00  0.00    -0.000 C 
ATOM     21  C   UNL     1      35.294 -19.161 -21.737  0.00  0.00    -0.000 C 
ENDBRANCH   9  12
BRANCH   5  22
ATOM     22  O   UNL     1      38.641 -24.037 -15.240  0.00  0.00    -0.378 OA
ATOM     23  H   UNL     1      38.497 -23.378 -15.937  0.00  0.00    +0.211 HD
ENDBRANCH   5  22
BRANCH   7  24
ATOM     24  O   UNL     1      39.237 -24.875 -12.564  0.00  0.00    -0.379 OA
ATOM     25  H   UNL     1      39.879 -24.837 -13.292  0.00  0.00    +0.211 HD
ENDBRANCH   7  24
BRANCH   8  26
ATOM     26  O   UNL     1      36.911 -25.825 -11.150  0.00  0.00    -0.379 OA
ATOM     27  H   UNL     1      37.674 -25.808 -10.551  0.00  0.00    +0.211 HD
ENDBRANCH   8  26
BRANCH  10  28
ATOM     28  C   UNL     1      34.532 -23.991 -11.396  0.00  0.00    +0.169 C 
BRANCH  28  29
ATOM     29  O   UNL     1      33.474 -23.244 -11.968  0.00  0.00    -0.379 OA
ATOM     30  H   UNL     1      33.588 -23.207 -12.931  0.00  0.00    +0.211 HD
ENDBRANCH  28  29
ENDBRANCH  10  28
TORSDOF 6
ENDMDL
MODEL 5
REMARK VINA RESULT:      -9.8      5.210      9.047
REMARK  Name = 46937156
REMARK  6 active torsions:
REMARK  status: ('A' for Active; 'I' for Inactive)
REMARK    1  A    between atoms: C_5  and  O_22
REMARK    2  A    between atoms: C_7  and  O_24
REMARK    3  A    between atoms: C_8  and  O_26
REMARK    4  A    between atoms: C_9  and  C_12
REMARK    5  A    between atoms: C_10  and  C_28
REMARK    6  A    between atoms: C_28  and  O_29
REMARK                            x       y       z     vdW  Elec       q    Type
REMARK                         _______ _______ _______ _____ _____    ______ ____
ROOT
ATOM      1  O   UNL     1      34.950 -19.781 -22.591  0.00  0.00    -0.328 OA
ATOM      2  O   UNL     1      33.547 -18.945 -20.862  0.00  0.00    -0.260 OA
ATOM      3  N   UNL     1      33.246 -20.025 -19.917  0.00  0.00    -0.184 NA
ATOM      4  C   UNL     1      34.897 -19.100 -21.329  0.00  0.00    +0.234 C 
ATOM      5  C   UNL     1      35.585 -17.735 -21.456  0.00  0.00    +0.193 C 
ATOM      6  C   UNL     1      35.556 -19.990 -20.289  0.00  0.00    +0.083 C 
ATOM      7  C   UNL     1      34.959 -16.906 -22.576  0.00  0.00    +0.171 C 
ATOM      8  C   UNL     1      34.905 -17.708 -23.877  0.00  0.00    +0.169 C 
ATOM      9  C   UNL     1      34.413 -20.916 -19.924  0.00  0.00    +0.107 C 
ATOM     10  C   UNL     1      34.277 -19.086 -23.646  0.00  0.00    +0.176 C 
ATOM     11  H   UNL     1      32.413 -20.532 -20.215  0.00  0.00    +0.155 HD
ENDROOT
BRANCH   9  12
ATOM     12  C   UNL     1      34.610 -21.648 -18.619  0.00  0.00    -0.006 C 
ATOM     13  C   UNL     1      35.850 -21.612 -17.980  0.00  0.00    -0.003 C 
ATOM     14  C   UNL     1      33.555 -22.360 -18.054  0.00  0.00    -0.003 C 
ATOM     15  C   UNL     1      36.050 -22.289 -16.765  0.00  0.00    -0.000 C 
ATOM     16  C   UNL     1      33.737 -23.038 -16.849  0.00  0.00    -0.000 C 
ATOM     17  C   UNL     1      34.977 -23.012 -16.192  0.00  0.00    -0.000 C 
ATOM     18  C   UNL     1      37.290 -22.263 -16.109  0.00  0.00    -0.000 C 
ATOM     19  C   UNL     1      35.178 -23.689 -14.978  0.00  0.00    -0.000 C 
ATOM     20  C   UNL     1      37.472 -22.942 -14.903  0.00  0.00    -0.000 C 
ATOM     21  C   UNL     1      36.418 -23.653 -14.338  0.00  0.00    -0.000 C 
ENDBRANCH   9  12
BRANCH   5  22
ATOM     22  O   UNL     1      35.484 -17.021 -20.227  0.00  0.00    -0.378 OA
ATOM     23  H   UNL     1      36.227 -17.260 -19.652  0.00  0.00    +0.211 HD
ENDBRANCH   5  22
BRANCH   7  24
ATOM     24  O   UNL     1      35.764 -15.743 -22.778  0.00  0.00    -0.379 OA
ATOM     25  H   UNL     1      36.390 -15.906 -23.502  0.00  0.00    +0.211 HD
ENDBRANCH   7  24
BRANCH   8  26
ATOM     26  O   UNL     1      34.139 -16.966 -24.822  0.00  0.00    -0.379 OA
ATOM     27  H   UNL     1      34.674 -16.235 -25.169  0.00  0.00    +0.211 HD
ENDBRANCH   8  26
BRANCH  10  28
ATOM     28  C   UNL     1      34.361 -19.971 -24.886  0.00  0.00    +0.169 C 
BRANCH  28  29
ATOM     29  O   UNL     1      35.268 -21.026 -24.626  0.00  0.00    -0.379 OA
ATOM     30  H   UNL     1      34.775 -21.818 -24.359  0.00  0.00    +0.211 HD
ENDBRANCH  28  29
ENDBRANCH  10  28
TORSDOF 6
ENDMDL
MODEL 6
REMARK VINA RESULT:      -9.3      2.260      3.751
REMARK  Name = 46937156
REMARK  6 active torsions:
REMARK  status: ('A' for Active; 'I' for Inactive)
REMARK    1  A    between atoms: C_5  and  O_22
REMARK    2  A    between atoms: C_7  and  O_24
REMARK    3  A    between atoms: C_8  and  O_26
REMARK    4  A    between atoms: C_9  and  C_12
REMARK    5  A    between atoms: C_10  and  C_28
REMARK    6  A    between atoms: C_28  and  O_29
REMARK                            x       y       z     vdW  Elec       q    Type
REMARK                         _______ _______ _______ _____ _____    ______ ____
ROOT
ATOM      1  O   UNL     1      32.277 -22.953 -15.433  0.00  0.00    -0.328 OA
ATOM      2  O   UNL     1      33.580 -24.127 -17.039  0.00  0.00    -0.260 OA
ATOM      3  N   UNL     1      33.455 -23.467 -18.342  0.00  0.00    -0.184 NA
ATOM      4  C   UNL     1      33.580 -23.125 -16.010  0.00  0.00    +0.234 C 
ATOM      5  C   UNL     1      34.583 -23.484 -14.906  0.00  0.00    +0.193 C 
ATOM      6  C   UNL     1      33.945 -21.840 -16.734  0.00  0.00    +0.083 C 
ATOM      7  C   UNL     1      34.133 -24.725 -14.136  0.00  0.00    +0.171 C 
ATOM      8  C   UNL     1      32.691 -24.566 -13.651  0.00  0.00    +0.169 C 
ATOM      9  C   UNL     1      33.247 -22.041 -18.063  0.00  0.00    +0.107 C 
ATOM     10  C   UNL     1      31.772 -24.131 -14.796  0.00  0.00    +0.176 C 
ATOM     11  H   UNL     1      32.659 -23.846 -18.855  0.00  0.00    +0.155 HD
ENDROOT
BRANCH   9  12
ATOM     12  C   UNL     1      33.754 -21.140 -19.163  0.00  0.00    -0.006 C 
ATOM     13  C   UNL     1      35.101 -20.781 -19.206  0.00  0.00    -0.003 C 
ATOM     14  C   UNL     1      32.875 -20.665 -20.134  0.00  0.00    -0.003 C 
ATOM     15  C   UNL     1      35.588 -19.942 -20.222  0.00  0.00    -0.000 C 
ATOM     16  C   UNL     1      33.341 -19.831 -21.149  0.00  0.00    -0.000 C 
ATOM     17  C   UNL     1      34.694 -19.460 -21.208  0.00  0.00    -0.000 C 
ATOM     18  C   UNL     1      36.940 -19.571 -20.280  0.00  0.00    -0.000 C 
ATOM     19  C   UNL     1      35.181 -18.621 -22.224  0.00  0.00    -0.000 C 
ATOM     20  C   UNL     1      37.407 -18.737 -21.296  0.00  0.00    -0.000 C 
ATOM     21  C   UNL     1      36.529 -18.263 -22.266  0.00  0.00    -0.000 C 
ENDBRANCH   9  12
BRANCH   5  22
ATOM     22  O   UNL     1      35.869 -23.720 -15.472  0.00  0.00    -0.378 OA
ATOM     23  H   UNL     1      36.540 -23.240 -14.963  0.00  0.00    +0.211 HD
ENDBRANCH   5  22
BRANCH   7  24
ATOM     24  O   UNL     1      34.991 -24.887 -13.005  0.00  0.00    -0.379 OA
ATOM     25  H   UNL     1      34.548 -25.438 -12.340  0.00  0.00    +0.211 HD
ENDBRANCH   7  24
BRANCH   8  26
ATOM     26  O   UNL     1      32.265 -25.818 -13.120  0.00  0.00    -0.379 OA
ATOM     27  H   UNL     1      32.694 -26.539 -13.606  0.00  0.00    +0.211 HD
ENDBRANCH   8  26
BRANCH  10  28
ATOM     28  C   UNL     1      30.363 -23.803 -14.308  0.00  0.00    +0.169 C 
BRANCH  28  29
ATOM     29  O   UNL     1      29.781 -24.983 -13.787  0.00  0.00    -0.379 OA
ATOM     30  H   UNL     1      29.314 -25.453 -14.495  0.00  0.00    +0.211 HD
ENDBRANCH  28  29
ENDBRANCH  10  28
TORSDOF 6
ENDMDL
MODEL 7
REMARK VINA RESULT:      -9.2     10.052     13.521
REMARK  Name = 46937156
REMARK  6 active torsions:
REMARK  status: ('A' for Active; 'I' for Inactive)
REMARK    1  A    between atoms: C_5  and  O_22
REMARK    2  A    between atoms: C_7  and  O_24
REMARK    3  A    between atoms: C_8  and  O_26
REMARK    4  A    between atoms: C_9  and  C_12
REMARK    5  A    between atoms: C_10  and  C_28
REMARK    6  A    between atoms: C_28  and  O_29
REMARK                            x       y       z     vdW  Elec       q    Type
REMARK                         _______ _______ _______ _____ _____    ______ ____
ROOT
ATOM      1  O   UNL     1      33.206 -14.140 -23.549  0.00  0.00    -0.328 OA
ATOM      2  O   UNL     1      34.924 -12.684 -22.785  0.00  0.00    -0.260 OA
ATOM      3  N   UNL     1      34.508 -11.293 -22.990  0.00  0.00    -0.184 NA
ATOM      4  C   UNL     1      33.774 -13.463 -22.418  0.00  0.00    +0.234 C 
ATOM      5  C   UNL     1      34.140 -14.490 -21.339  0.00  0.00    +0.193 C 
ATOM      6  C   UNL     1      32.764 -12.439 -21.930  0.00  0.00    +0.083 C 
ATOM      7  C   UNL     1      35.080 -15.560 -21.893  0.00  0.00    +0.171 C 
ATOM      8  C   UNL     1      34.510 -16.168 -23.176  0.00  0.00    +0.169 C 
ATOM      9  C   UNL     1      33.045 -11.278 -22.863  0.00  0.00    +0.107 C 
ATOM     10  C   UNL     1      34.098 -15.075 -24.166  0.00  0.00    +0.176 C 
ATOM     11  H   UNL     1      34.784 -10.975 -23.918  0.00  0.00    +0.155 HD
ENDROOT
BRANCH   9  12
ATOM     12  C   UNL     1      32.504  -9.956 -22.375  0.00  0.00    -0.006 C 
ATOM     13  C   UNL     1      32.330  -8.900 -23.270  0.00  0.00    -0.003 C 
ATOM     14  C   UNL     1      32.181  -9.791 -21.031  0.00  0.00    -0.003 C 
ATOM     15  C   UNL     1      31.828  -7.664 -22.831  0.00  0.00    -0.000 C 
ATOM     16  C   UNL     1      31.683  -8.569 -20.578  0.00  0.00    -0.000 C 
ATOM     17  C   UNL     1      31.500  -7.496 -21.465  0.00  0.00    -0.000 C 
ATOM     18  C   UNL     1      31.647  -6.591 -23.718  0.00  0.00    -0.000 C 
ATOM     19  C   UNL     1      31.000  -6.259 -21.026  0.00  0.00    -0.000 C 
ATOM     20  C   UNL     1      31.148  -5.369 -23.265  0.00  0.00    -0.000 C 
ATOM     21  C   UNL     1      30.825  -5.204 -21.922  0.00  0.00    -0.000 C 
ENDBRANCH   9  12
BRANCH   5  22
ATOM     22  O   UNL     1      34.764 -13.839 -20.236  0.00  0.00    -0.378 OA
ATOM     23  H   UNL     1      34.181 -13.140 -19.901  0.00  0.00    +0.211 HD
ENDBRANCH   5  22
BRANCH   7  24
ATOM     24  O   UNL     1      35.219 -16.587 -20.911  0.00  0.00    -0.379 OA
ATOM     25  H   UNL     1      34.903 -17.429 -21.277  0.00  0.00    +0.211 HD
ENDBRANCH   7  24
BRANCH   8  26
ATOM     26  O   UNL     1      35.510 -17.005 -23.749  0.00  0.00    -0.379 OA
ATOM     27  H   UNL     1      36.117 -16.467 -24.281  0.00  0.00    +0.211 HD
ENDBRANCH   8  26
BRANCH  10  28
ATOM     28  C   UNL     1      33.374 -15.644 -25.382  0.00  0.00    +0.169 C 
BRANCH  28  29
ATOM     29  O   UNL     1      33.163 -17.029 -25.173  0.00  0.00    -0.379 OA
ATOM     30  H   UNL     1      32.839 -17.433 -25.994  0.00  0.00    +0.211 HD
ENDBRANCH  28  29
ENDBRANCH  10  28
TORSDOF 6
ENDMDL
MODEL 8
REMARK VINA RESULT:      -9.1     10.326     13.799
REMARK  Name = 46937156
REMARK  6 active torsions:
REMARK  status: ('A' for Active; 'I' for Inactive)
REMARK    1  A    between atoms: C_5  and  O_22
REMARK    2  A    between atoms: C_7  and  O_24
REMARK    3  A    between atoms: C_8  and  O_26
REMARK    4  A    between atoms: C_9  and  C_12
REMARK    5  A    between atoms: C_10  and  C_28
REMARK    6  A    between atoms: C_28  and  O_29
REMARK                            x       y       z     vdW  Elec       q    Type
REMARK                         _______ _______ _______ _____ _____    ______ ____
ROOT
ATOM      1  O   UNL     1      34.376 -13.742 -22.296  0.00  0.00    -0.328 OA
ATOM      2  O   UNL     1      32.038 -13.461 -22.628  0.00  0.00    -0.260 OA
ATOM      3  N   UNL     1      31.568 -12.325 -21.831  0.00  0.00    -0.184 NA
ATOM      4  C   UNL     1      33.354 -13.167 -23.124  0.00  0.00    +0.234 C 
ATOM      5  C   UNL     1      33.516 -13.676 -24.562  0.00  0.00    +0.193 C 
ATOM      6  C   UNL     1      33.466 -11.656 -23.025  0.00  0.00    +0.083 C 
ATOM      7  C   UNL     1      33.496 -15.204 -24.611  0.00  0.00    +0.171 C 
ATOM      8  C   UNL     1      34.501 -15.789 -23.617  0.00  0.00    +0.169 C 
ATOM      9  C   UNL     1      32.693 -11.385 -21.750  0.00  0.00    +0.107 C 
ATOM     10  C   UNL     1      34.323 -15.171 -22.227  0.00  0.00    +0.176 C 
ATOM     11  H   UNL     1      31.299 -12.635 -20.897  0.00  0.00    +0.155 HD
ENDROOT
BRANCH   9  12
ATOM     12  C   UNL     1      32.257  -9.948 -21.592  0.00  0.00    -0.006 C 
ATOM     13  C   UNL     1      32.020  -9.163 -22.721  0.00  0.00    -0.003 C 
ATOM     14  C   UNL     1      32.096  -9.406 -20.320  0.00  0.00    -0.003 C 
ATOM     15  C   UNL     1      31.615  -7.824 -22.590  0.00  0.00    -0.000 C 
ATOM     16  C   UNL     1      31.695  -8.079 -20.172  0.00  0.00    -0.000 C 
ATOM     17  C   UNL     1      31.451  -7.274 -21.296  0.00  0.00    -0.000 C 
ATOM     18  C   UNL     1      31.372  -7.020 -23.714  0.00  0.00    -0.000 C 
ATOM     19  C   UNL     1      31.047  -5.935 -21.166  0.00  0.00    -0.000 C 
ATOM     20  C   UNL     1      30.971  -5.692 -23.566  0.00  0.00    -0.000 C 
ATOM     21  C   UNL     1      30.809  -5.150 -22.295  0.00  0.00    -0.000 C 
ENDBRANCH   9  12
BRANCH   5  22
ATOM     22  O   UNL     1      32.469 -13.165 -25.382  0.00  0.00    -0.378 OA
ATOM     23  H   UNL     1      32.611 -12.217 -25.534  0.00  0.00    +0.211 HD
ENDBRANCH   5  22
BRANCH   7  24
ATOM     24  O   UNL     1      33.851 -15.615 -25.932  0.00  0.00    -0.379 OA
ATOM     25  H   UNL     1      34.769 -15.932 -25.936  0.00  0.00    +0.211 HD
ENDBRANCH   7  24
BRANCH   8  26
ATOM     26  O   UNL     1      34.298 -17.198 -23.563  0.00  0.00    -0.379 OA
ATOM     27  H   UNL     1      34.933 -17.593 -22.945  0.00  0.00    +0.211 HD
ENDBRANCH   8  26
BRANCH  10  28
ATOM     28  C   UNL     1      35.417 -15.610 -21.259  0.00  0.00    +0.169 C 
BRANCH  28  29
ATOM     29  O   UNL     1      35.146 -16.936 -20.844  0.00  0.00    -0.379 OA
ATOM     30  H   UNL     1      35.480 -17.068 -19.943  0.00  0.00    +0.211 HD
ENDBRANCH  28  29
ENDBRANCH  10  28
TORSDOF 6
ENDMDL
MODEL 9
REMARK VINA RESULT:      -8.9      7.718     11.801
REMARK  Name = 46937156
REMARK  6 active torsions:
REMARK  status: ('A' for Active; 'I' for Inactive)
REMARK    1  A    between atoms: C_5  and  O_22
REMARK    2  A    between atoms: C_7  and  O_24
REMARK    3  A    between atoms: C_8  and  O_26
REMARK    4  A    between atoms: C_9  and  C_12
REMARK    5  A    between atoms: C_10  and  C_28
REMARK    6  A    between atoms: C_28  and  O_29
REMARK                            x       y       z     vdW  Elec       q    Type
REMARK                         _______ _______ _______ _____ _____    ______ ____
ROOT
ATOM      1  O   UNL     1      33.505 -14.346 -22.848  0.00  0.00    -0.328 OA
ATOM      2  O   UNL     1      35.705 -15.144 -23.272  0.00  0.00    -0.260 OA
ATOM      3  N   UNL     1      36.133 -16.000 -22.162  0.00  0.00    -0.184 NA
ATOM      4  C   UNL     1      34.301 -15.347 -23.500  0.00  0.00    +0.234 C 
ATOM      5  C   UNL     1      33.992 -15.346 -25.002  0.00  0.00    +0.193 C 
ATOM      6  C   UNL     1      34.001 -16.684 -22.845  0.00  0.00    +0.083 C 
ATOM      7  C   UNL     1      34.212 -13.960 -25.609  0.00  0.00    +0.171 C 
ATOM      8  C   UNL     1      33.459 -12.895 -24.809  0.00  0.00    +0.169 C 
ATOM      9  C   UNL     1      34.916 -16.633 -21.638  0.00  0.00    +0.107 C 
ATOM     10  C   UNL     1      33.761 -13.016 -23.312  0.00  0.00    +0.176 C 
ATOM     11  H   UNL     1      36.580 -15.440 -21.436  0.00  0.00    +0.155 HD
ENDROOT
BRANCH   9  12
ATOM     12  C   UNL     1      35.172 -17.980 -21.006  0.00  0.00    -0.006 C 
ATOM     13  C   UNL     1      34.099 -18.777 -20.604  0.00  0.00    -0.003 C 
ATOM     14  C   UNL     1      36.478 -18.426 -20.823  0.00  0.00    -0.003 C 
ATOM     15  C   UNL     1      34.320 -20.032 -20.014  0.00  0.00    -0.000 C 
ATOM     16  C   UNL     1      36.715 -19.670 -20.238  0.00  0.00    -0.000 C 
ATOM     17  C   UNL     1      35.648 -20.485 -19.828  0.00  0.00    -0.000 C 
ATOM     18  C   UNL     1      33.253 -20.846 -19.603  0.00  0.00    -0.000 C 
ATOM     19  C   UNL     1      35.869 -21.740 -19.237  0.00  0.00    -0.000 C 
ATOM     20  C   UNL     1      33.491 -22.090 -19.018  0.00  0.00    -0.000 C 
ATOM     21  C   UNL     1      34.796 -22.537 -18.836  0.00  0.00    -0.000 C 
ENDBRANCH   9  12
BRANCH   5  22
ATOM     22  O   UNL     1      34.821 -16.290 -25.673  0.00  0.00    -0.378 OA
ATOM     23  H   UNL     1      35.040 -17.016 -25.067  0.00  0.00    +0.211 HD
ENDBRANCH   5  22
BRANCH   7  24
ATOM     24  O   UNL     1      33.718 -13.973 -26.949  0.00  0.00    -0.379 OA
ATOM     25  H   UNL     1      34.294 -13.430 -27.511  0.00  0.00    +0.211 HD
ENDBRANCH   7  24
BRANCH   8  26
ATOM     26  O   UNL     1      33.857 -11.616 -25.294  0.00  0.00    -0.379 OA
ATOM     27  H   UNL     1      34.388 -11.165 -24.619  0.00  0.00    +0.211 HD
ENDBRANCH   8  26
BRANCH  10  28
ATOM     28  C   UNL     1      32.898 -12.078 -22.474  0.00  0.00    +0.169 C 
BRANCH  28  29
ATOM     29  O   UNL     1      33.284 -10.744 -22.749  0.00  0.00    -0.379 OA
ATOM     30  H   UNL     1      32.676 -10.360 -23.401  0.00  0.00    +0.211 HD
ENDBRANCH  28  29
ENDBRANCH  10  28
TORSDOF 6
ENDMDL
