MODEL 1
REMARK VINA RESULT:     -13.0      0.000      0.000
REMARK  Name = 5288641
REMARK  1 active torsions:
REMARK  status: ('A' for Active; 'I' for Inactive)
REMARK    1  A    between atoms: C_14  and  S_23
REMARK                            x       y       z     vdW  Elec       q    Type
REMARK                         _______ _______ _______ _____ _____    ______ ____
ROOT
ATOM      1  O   UNL     1      35.287 -24.238 -14.108  0.00  0.00    -0.270 OA
ATOM      2  O   UNL     1      31.839 -22.269 -17.570  0.00  0.00    -0.285 OA
ATOM      3  N   UNL     1      35.183 -22.694 -16.643  0.00  0.00    -0.310 N 
ATOM      4  N   UNL     1      33.097 -24.769 -13.394  0.00  0.00    -0.280 N 
ATOM      5  C   UNL     1      33.293 -23.573 -15.336  0.00  0.00    +0.071 C 
ATOM      6  C   UNL     1      31.873 -23.791 -15.078  0.00  0.00    +0.020 C 
ATOM      7  C   UNL     1      33.862 -22.926 -16.354  0.00  0.00    +0.092 C 
ATOM      8  C   UNL     1      31.812 -24.522 -13.887  0.00  0.00    +0.051 C 
ATOM      9  C   UNL     1      34.076 -24.216 -14.229  0.00  0.00    +0.251 C 
ATOM     10  C   UNL     1      34.034 -21.693 -18.363  0.00  0.00    +0.054 C 
ATOM     11  C   UNL     1      35.298 -21.969 -17.822  0.00  0.00    +0.051 C 
ATOM     12  C   UNL     1      33.045 -22.292 -17.449  0.00  0.00    +0.210 C 
ATOM     13  C   UNL     1      30.718 -23.433 -15.746  0.00  0.00    +0.020 C 
ATOM     14  C   UNL     1      29.494 -23.824 -15.192  0.00  0.00    +0.112 C 
ATOM     15  C   UNL     1      30.615 -24.918 -13.324  0.00  0.00    +0.016 C 
ATOM     16  C   UNL     1      29.443 -24.559 -13.993  0.00  0.00    +0.020 C 
ATOM     17  C   UNL     1      33.850 -20.986 -19.532  0.00  0.00    +0.004 C 
ATOM     18  C   UNL     1      36.435 -21.526 -18.465  0.00  0.00    +0.015 C 
ATOM     19  C   UNL     1      35.000 -20.538 -20.182  0.00  0.00    +0.000 C 
ATOM     20  C   UNL     1      36.280 -20.805 -19.655  0.00  0.00    +0.001 C 
ATOM     21  H   UNL     1      35.941 -22.996 -16.093  0.00  0.00    +0.152 HD
ATOM     22  H   UNL     1      33.290 -25.267 -12.566  0.00  0.00    +0.155 HD
ENDROOT
BRANCH  14  23
ATOM     23  S   UNL     1      28.005 -23.393 -16.000  0.00  0.00    +0.042 S 
ATOM     24  O   UNL     1      28.352 -22.035 -16.841  0.00  0.00    -0.065 OA
ATOM     25  O   UNL     1      27.707 -24.433 -16.974  0.00  0.00    -0.065 OA
ATOM     26  O   UNL     1      27.045 -23.051 -14.963  0.00  0.00    -0.065 OA
ENDBRANCH  14  23
TORSDOF 1
ENDMDL
MODEL 2
REMARK VINA RESULT:     -11.9      1.178      1.696
REMARK  Name = 5288641
REMARK  1 active torsions:
REMARK  status: ('A' for Active; 'I' for Inactive)
REMARK    1  A    between atoms: C_14  and  S_23
REMARK                            x       y       z     vdW  Elec       q    Type
REMARK                         _______ _______ _______ _____ _____    ______ ____
ROOT
ATOM      1  O   UNL     1      36.483 -23.479 -15.436  0.00  0.00    -0.270 OA
ATOM      2  O   UNL     1      32.010 -22.022 -17.805  0.00  0.00    -0.285 OA
ATOM      3  N   UNL     1      35.505 -21.958 -17.791  0.00  0.00    -0.310 N 
ATOM      4  N   UNL     1      34.654 -24.325 -14.203  0.00  0.00    -0.280 N 
ATOM      5  C   UNL     1      34.165 -23.108 -16.078  0.00  0.00    +0.071 C 
ATOM      6  C   UNL     1      32.907 -23.531 -15.471  0.00  0.00    +0.020 C 
ATOM      7  C   UNL     1      34.351 -22.381 -17.181  0.00  0.00    +0.092 C 
ATOM      8  C   UNL     1      33.263 -24.266 -14.336  0.00  0.00    +0.051 C 
ATOM      9  C   UNL     1      35.292 -23.633 -15.238  0.00  0.00    +0.251 C 
ATOM     10  C   UNL     1      33.818 -21.129 -19.113  0.00  0.00    +0.054 C 
ATOM     11  C   UNL     1      35.205 -21.220 -18.930  0.00  0.00    +0.051 C 
ATOM     12  C   UNL     1      33.196 -21.869 -18.001  0.00  0.00    +0.210 C 
ATOM     13  C   UNL     1      31.579 -23.343 -15.802  0.00  0.00    +0.020 C 
ATOM     14  C   UNL     1      30.610 -23.910 -14.968  0.00  0.00    +0.112 C 
ATOM     15  C   UNL     1      32.322 -24.835 -13.500  0.00  0.00    +0.016 C 
ATOM     16  C   UNL     1      30.978 -24.649 -13.828  0.00  0.00    +0.020 C 
ATOM     17  C   UNL     1      33.237 -20.453 -20.165  0.00  0.00    +0.004 C 
ATOM     18  C   UNL     1      36.061 -20.614 -19.825  0.00  0.00    +0.015 C 
ATOM     19  C   UNL     1      34.103 -19.840 -21.071  0.00  0.00    +0.000 C 
ATOM     20  C   UNL     1      35.500 -19.920 -20.904  0.00  0.00    +0.001 C 
ATOM     21  H   UNL     1      36.415 -22.148 -17.470  0.00  0.00    +0.152 HD
ATOM     22  H   UNL     1      35.124 -24.792 -13.474  0.00  0.00    +0.155 HD
ENDROOT
BRANCH  14  23
ATOM     23  S   UNL     1      28.916 -23.698 -15.345  0.00  0.00    +0.042 S 
ATOM     24  O   UNL     1      28.123 -24.718 -14.344  0.00  0.00    -0.065 OA
ATOM     25  O   UNL     1      28.538 -22.346 -14.963  0.00  0.00    -0.065 OA
ATOM     26  O   UNL     1      28.726 -24.164 -16.710  0.00  0.00    -0.065 OA
ENDBRANCH  14  23
TORSDOF 1
ENDMDL
MODEL 3
REMARK VINA RESULT:     -11.5      2.894      5.387
REMARK  Name = 5288641
REMARK  1 active torsions:
REMARK  status: ('A' for Active; 'I' for Inactive)
REMARK    1  A    between atoms: C_14  and  S_23
REMARK                            x       y       z     vdW  Elec       q    Type
REMARK                         _______ _______ _______ _____ _____    ______ ____
ROOT
ATOM      1  O   UNL     1      30.680 -22.741 -16.588  0.00  0.00    -0.270 OA
ATOM      2  O   UNL     1      35.836 -22.153 -17.492  0.00  0.00    -0.285 OA
ATOM      3  N   UNL     1      32.561 -21.505 -18.527  0.00  0.00    -0.310 N 
ATOM      4  N   UNL     1      31.887 -23.826 -14.870  0.00  0.00    -0.280 N 
ATOM      5  C   UNL     1      33.113 -22.788 -16.501  0.00  0.00    +0.071 C 
ATOM      6  C   UNL     1      34.041 -23.390 -15.549  0.00  0.00    +0.020 C 
ATOM      7  C   UNL     1      33.390 -22.089 -17.603  0.00  0.00    +0.092 C 
ATOM      8  C   UNL     1      33.243 -24.006 -14.580  0.00  0.00    +0.051 C 
ATOM      9  C   UNL     1      31.714 -23.083 -16.043  0.00  0.00    +0.251 C 
ATOM     10  C   UNL     1      34.680 -21.025 -19.273  0.00  0.00    +0.054 C 
ATOM     11  C   UNL     1      33.307 -20.876 -19.515  0.00  0.00    +0.051 C 
ATOM     12  C   UNL     1      34.806 -21.812 -18.033  0.00  0.00    +0.210 C 
ATOM     13  C   UNL     1      35.419 -23.439 -15.464  0.00  0.00    +0.020 C 
ATOM     14  C   UNL     1      35.984 -24.123 -14.382  0.00  0.00    +0.112 C 
ATOM     15  C   UNL     1      33.781 -24.686 -13.505  0.00  0.00    +0.016 C 
ATOM     16  C   UNL     1      35.173 -24.740 -13.412  0.00  0.00    +0.020 C 
ATOM     17  C   UNL     1      35.654 -20.501 -20.095  0.00  0.00    +0.004 C 
ATOM     18  C   UNL     1      32.874 -20.177 -20.621  0.00  0.00    +0.015 C 
ATOM     19  C   UNL     1      35.216 -19.793 -21.215  0.00  0.00    +0.000 C 
ATOM     20  C   UNL     1      33.840 -19.632 -21.476  0.00  0.00    +0.001 C 
ATOM     21  H   UNL     1      31.577 -21.529 -18.496  0.00  0.00    +0.152 HD
ATOM     22  H   UNL     1      31.149 -24.177 -14.321  0.00  0.00    +0.155 HD
ENDROOT
BRANCH  14  23
ATOM     23  S   UNL     1      37.724 -24.213 -14.233  0.00  0.00    +0.042 S 
ATOM     24  O   UNL     1      38.050 -23.703 -12.715  0.00  0.00    -0.065 OA
ATOM     25  O   UNL     1      38.106 -25.615 -14.303  0.00  0.00    -0.065 OA
ATOM     26  O   UNL     1      38.278 -23.244 -15.165  0.00  0.00    -0.065 OA
ENDBRANCH  14  23
TORSDOF 1
ENDMDL
MODEL 4
REMARK VINA RESULT:     -10.9      3.576      6.948
REMARK  Name = 5288641
REMARK  1 active torsions:
REMARK  status: ('A' for Active; 'I' for Inactive)
REMARK    1  A    between atoms: C_14  and  S_23
REMARK                            x       y       z     vdW  Elec       q    Type
REMARK                         _______ _______ _______ _____ _____    ______ ____
ROOT
ATOM      1  O   UNL     1      34.367 -22.019 -17.818  0.00  0.00    -0.270 OA
ATOM      2  O   UNL     1      33.014 -24.414 -13.325  0.00  0.00    -0.285 OA
ATOM      3  N   UNL     1      31.977 -22.985 -16.342  0.00  0.00    -0.310 N 
ATOM      4  N   UNL     1      36.323 -22.471 -16.572  0.00  0.00    -0.280 N 
ATOM      5  C   UNL     1      34.333 -23.121 -15.647  0.00  0.00    +0.071 C 
ATOM      6  C   UNL     1      35.404 -23.488 -14.725  0.00  0.00    +0.020 C 
ATOM      7  C   UNL     1      33.020 -23.309 -15.511  0.00  0.00    +0.092 C 
ATOM      8  C   UNL     1      36.590 -23.070 -15.337  0.00  0.00    +0.051 C 
ATOM      9  C   UNL     1      34.951 -22.458 -16.844  0.00  0.00    +0.251 C 
ATOM     10  C   UNL     1      30.980 -23.991 -14.533  0.00  0.00    +0.054 C 
ATOM     11  C   UNL     1      30.771 -23.381 -15.778  0.00  0.00    +0.051 C 
ATOM     12  C   UNL     1      32.434 -23.977 -14.296  0.00  0.00    +0.210 C 
ATOM     13  C   UNL     1      35.427 -24.110 -13.492  0.00  0.00    +0.020 C 
ATOM     14  C   UNL     1      36.670 -24.306 -12.881  0.00  0.00    +0.112 C 
ATOM     15  C   UNL     1      37.827 -23.254 -14.751  0.00  0.00    +0.016 C 
ATOM     16  C   UNL     1      37.858 -23.882 -13.504  0.00  0.00    +0.020 C 
ATOM     17  C   UNL     1      29.956 -24.481 -13.750  0.00  0.00    +0.004 C 
ATOM     18  C   UNL     1      29.491 -23.245 -16.274  0.00  0.00    +0.015 C 
ATOM     19  C   UNL     1      28.662 -24.344 -14.252  0.00  0.00    +0.000 C 
ATOM     20  C   UNL     1      28.431 -23.733 -15.502  0.00  0.00    +0.001 C 
ATOM     21  H   UNL     1      32.069 -22.535 -17.212  0.00  0.00    +0.152 HD
ATOM     22  H   UNL     1      37.013 -22.104 -17.173  0.00  0.00    +0.155 HD
ENDROOT
BRANCH  14  23
ATOM     23  S   UNL     1      36.750 -25.088 -11.319  0.00  0.00    +0.042 S 
ATOM     24  O   UNL     1      35.233 -24.996 -10.717  0.00  0.00    -0.065 OA
ATOM     25  O   UNL     1      37.037 -26.497 -11.538  0.00  0.00    -0.065 OA
ATOM     26  O   UNL     1      37.618 -24.273 -10.484  0.00  0.00    -0.065 OA
ENDBRANCH  14  23
TORSDOF 1
ENDMDL
MODEL 5
REMARK VINA RESULT:     -10.3      3.296      7.142
REMARK  Name = 5288641
REMARK  1 active torsions:
REMARK  status: ('A' for Active; 'I' for Inactive)
REMARK    1  A    between atoms: C_14  and  S_23
REMARK                            x       y       z     vdW  Elec       q    Type
REMARK                         _______ _______ _______ _____ _____    ______ ____
ROOT
ATOM      1  O   UNL     1      32.861 -21.738 -18.987  0.00  0.00    -0.270 OA
ATOM      2  O   UNL     1      33.267 -23.984 -14.239  0.00  0.00    -0.285 OA
ATOM      3  N   UNL     1      31.200 -23.034 -16.893  0.00  0.00    -0.310 N 
ATOM      4  N   UNL     1      35.124 -21.694 -18.311  0.00  0.00    -0.280 N 
ATOM      5  C   UNL     1      33.629 -22.647 -16.863  0.00  0.00    +0.071 C 
ATOM      6  C   UNL     1      34.956 -22.720 -16.259  0.00  0.00    +0.020 C 
ATOM      7  C   UNL     1      32.467 -23.078 -16.370  0.00  0.00    +0.092 C 
ATOM      8  C   UNL     1      35.825 -22.128 -17.181  0.00  0.00    +0.051 C 
ATOM      9  C   UNL     1      33.758 -21.974 -18.199  0.00  0.00    +0.251 C 
ATOM     10  C   UNL     1      30.946 -24.068 -14.857  0.00  0.00    +0.054 C 
ATOM     11  C   UNL     1      30.295 -23.613 -16.012  0.00  0.00    +0.051 C 
ATOM     12  C   UNL     1      32.375 -23.749 -15.025  0.00  0.00    +0.210 C 
ATOM     13  C   UNL     1      35.432 -23.225 -15.065  0.00  0.00    +0.020 C 
ATOM     14  C   UNL     1      36.804 -23.122 -14.810  0.00  0.00    +0.112 C 
ATOM     15  C   UNL     1      37.182 -22.017 -16.950  0.00  0.00    +0.016 C 
ATOM     16  C   UNL     1      37.670 -22.524 -15.744  0.00  0.00    +0.020 C 
ATOM     17  C   UNL     1      30.290 -24.685 -13.813  0.00  0.00    +0.004 C 
ATOM     18  C   UNL     1      28.932 -23.773 -16.144  0.00  0.00    +0.015 C 
ATOM     19  C   UNL     1      28.911 -24.847 -13.946  0.00  0.00    +0.000 C 
ATOM     20  C   UNL     1      28.238 -24.396 -15.100  0.00  0.00    +0.001 C 
ATOM     21  H   UNL     1      30.964 -22.646 -17.766  0.00  0.00    +0.152 HD
ATOM     22  H   UNL     1      35.539 -21.248 -19.085  0.00  0.00    +0.155 HD
ENDROOT
BRANCH  14  23
ATOM     23  S   UNL     1      37.452 -23.745 -13.311  0.00  0.00    +0.042 S 
ATOM     24  O   UNL     1      38.869 -24.451 -13.717  0.00  0.00    -0.065 OA
ATOM     25  O   UNL     1      37.771 -22.611 -12.457  0.00  0.00    -0.065 OA
ATOM     26  O   UNL     1      36.542 -24.784 -12.857  0.00  0.00    -0.065 OA
ENDBRANCH  14  23
TORSDOF 1
ENDMDL
MODEL 6
REMARK VINA RESULT:     -10.1      3.123      5.754
REMARK  Name = 5288641
REMARK  1 active torsions:
REMARK  status: ('A' for Active; 'I' for Inactive)
REMARK    1  A    between atoms: C_14  and  S_23
REMARK                            x       y       z     vdW  Elec       q    Type
REMARK                         _______ _______ _______ _____ _____    ______ ____
ROOT
ATOM      1  O   UNL     1      31.477 -23.805 -15.412  0.00  0.00    -0.270 OA
ATOM      2  O   UNL     1      36.574 -22.484 -15.564  0.00  0.00    -0.285 OA
ATOM      3  N   UNL     1      33.492 -22.571 -17.212  0.00  0.00    -0.310 N 
ATOM      4  N   UNL     1      32.483 -24.395 -13.356  0.00  0.00    -0.280 N 
ATOM      5  C   UNL     1      33.832 -23.420 -14.927  0.00  0.00    +0.071 C 
ATOM      6  C   UNL     1      34.641 -23.703 -13.746  0.00  0.00    +0.020 C 
ATOM      7  C   UNL     1      34.208 -22.858 -16.077  0.00  0.00    +0.092 C 
ATOM      8  C   UNL     1      33.772 -24.294 -12.824  0.00  0.00    +0.051 C 
ATOM      9  C   UNL     1      32.428 -23.878 -14.656  0.00  0.00    +0.251 C 
ATOM     10  C   UNL     1      35.623 -21.853 -17.680  0.00  0.00    +0.054 C 
ATOM     11  C   UNL     1      34.314 -21.979 -18.163  0.00  0.00    +0.051 C 
ATOM     12  C   UNL     1      35.626 -22.410 -16.316  0.00  0.00    +0.210 C 
ATOM     13  C   UNL     1      35.971 -23.502 -13.433  0.00  0.00    +0.020 C 
ATOM     14  C   UNL     1      36.415 -23.908 -12.170  0.00  0.00    +0.112 C 
ATOM     15  C   UNL     1      34.189 -24.702 -11.572  0.00  0.00    +0.016 C 
ATOM     16  C   UNL     1      35.533 -24.501 -11.249  0.00  0.00    +0.020 C 
ATOM     17  C   UNL     1      36.650 -21.299 -18.415  0.00  0.00    +0.004 C 
ATOM     18  C   UNL     1      34.000 -21.540 -19.432  0.00  0.00    +0.015 C 
ATOM     19  C   UNL     1      36.333 -20.854 -19.699  0.00  0.00    +0.000 C 
ATOM     20  C   UNL     1      35.022 -20.973 -20.202  0.00  0.00    +0.001 C 
ATOM     21  H   UNL     1      32.534 -22.759 -17.335  0.00  0.00    +0.152 HD
ATOM     22  H   UNL     1      31.712 -24.780 -12.879  0.00  0.00    +0.155 HD
ENDROOT
BRANCH  14  23
ATOM     23  S   UNL     1      38.091 -23.675 -11.729  0.00  0.00    +0.042 S 
ATOM     24  O   UNL     1      38.947 -24.134 -13.042  0.00  0.00    -0.065 OA
ATOM     25  O   UNL     1      38.313 -22.247 -11.553  0.00  0.00    -0.065 OA
ATOM     26  O   UNL     1      38.377 -24.609 -10.652  0.00  0.00    -0.065 OA
ENDBRANCH  14  23
TORSDOF 1
ENDMDL
