MODEL 1
REMARK VINA RESULT:     -12.2      0.000      0.000
REMARK  Name = 60854
REMARK  3 active torsions:
REMARK  status: ('A' for Active; 'I' for Inactive)
REMARK    1  A    between atoms: N_2  and  C_17
REMARK    2  A    between atoms: C_17  and  C_18
REMARK    3  A    between atoms: C_18  and  C_22
REMARK                            x       y       z     vdW  Elec       q    Type
REMARK                         _______ _______ _______ _____ _____    ______ ____
ROOT
ATOM      1  S   UNL     1      32.698  -9.141 -23.248  0.00  0.00    +0.014 S 
ATOM      2  N   UNL     1      34.509 -15.481 -23.436  0.00  0.00    +0.389 N 
ATOM      3  N   UNL     1      33.519 -12.839 -22.990  0.00  0.00    -0.297 N 
ATOM      4  N   UNL     1      33.272 -10.591 -23.806  0.00  0.00    -0.194 NA
ATOM      5  C   UNL     1      34.436 -14.935 -22.075  0.00  0.00    -0.055 C 
ATOM      6  C   UNL     1      33.401 -14.957 -24.244  0.00  0.00    -0.055 C 
ATOM      7  C   UNL     1      34.529 -13.406 -22.091  0.00  0.00    +0.069 C 
ATOM      8  C   UNL     1      33.460 -13.430 -24.332  0.00  0.00    +0.069 C 
ATOM      9  C   UNL     1      33.131 -11.502 -22.842  0.00  0.00    +0.140 A 
ATOM     10  C   UNL     1      32.549 -11.061 -21.604  0.00  0.00    +0.040 A 
ATOM     11  C   UNL     1      32.242  -9.701 -21.687  0.00  0.00    +0.050 A 
ATOM     12  C   UNL     1      32.261 -11.744 -20.402  0.00  0.00    +0.003 C 
ATOM     13  C   UNL     1      31.660  -8.999 -20.620  0.00  0.00    +0.008 C 
ATOM     14  C   UNL     1      31.682 -11.053 -19.333  0.00  0.00    +0.000 C 
ATOM     15  C   UNL     1      31.386  -9.699 -19.442  0.00  0.00    +0.001 C 
ATOM     16  H   UNL     1      35.391 -15.193 -23.860  0.00  0.00    -0.080 HD
ENDROOT
BRANCH   2  17
ATOM     17  C   UNL     1      34.474 -16.943 -23.404  0.00  0.00    -0.072 C 
BRANCH  17  18
ATOM     18  C   UNL     1      35.789 -17.510 -22.868  0.00  0.00    +0.004 C 
BRANCH  18  22
ATOM     19 CL   UNL     1      38.252 -18.604 -21.385  0.00  0.00    -0.083 Cl
ATOM     20  O   UNL     1      32.487 -22.131 -18.297  0.00  0.00    -0.274 OA
ATOM     21  N   UNL     1      34.604 -21.315 -18.912  0.00  0.00    -0.284 N 
ATOM     22  C   UNL     1      35.550 -18.537 -21.790  0.00  0.00    -0.014 C 
ATOM     23  C   UNL     1      34.014 -19.858 -20.555  0.00  0.00    +0.000 C 
ATOM     24  C   UNL     1      34.233 -18.917 -21.543  0.00  0.00    -0.006 C 
ATOM     25  C   UNL     1      35.081 -20.398 -19.841  0.00  0.00    +0.048 C 
ATOM     26  C   UNL     1      36.622 -19.083 -21.070  0.00  0.00    +0.055 C 
ATOM     27  C   UNL     1      32.733 -20.456 -20.069  0.00  0.00    +0.113 C 
ATOM     28  C   UNL     1      36.391 -20.033 -20.073  0.00  0.00    +0.025 C 
ATOM     29  C   UNL     1      33.210 -21.418 -18.975  0.00  0.00    +0.231 C 
ATOM     30  H   UNL     1      35.172 -21.826 -18.292  0.00  0.00    +0.155 HD
ENDBRANCH  18  22
ENDBRANCH  17  18
ENDBRANCH   2  17
TORSDOF 3
ENDMDL
MODEL 2
REMARK VINA RESULT:     -11.9      1.415      2.159
REMARK  Name = 60854
REMARK  3 active torsions:
REMARK  status: ('A' for Active; 'I' for Inactive)
REMARK    1  A    between atoms: N_2  and  C_17
REMARK    2  A    between atoms: C_17  and  C_18
REMARK    3  A    between atoms: C_18  and  C_22
REMARK                            x       y       z     vdW  Elec       q    Type
REMARK                         _______ _______ _______ _____ _____    ______ ____
ROOT
ATOM      1  S   UNL     1      30.695 -10.380 -20.627  0.00  0.00    +0.014 S 
ATOM      2  N   UNL     1      34.550 -15.507 -22.167  0.00  0.00    +0.389 N 
ATOM      3  N   UNL     1      33.170 -13.047 -21.712  0.00  0.00    -0.297 N 
ATOM      4  N   UNL     1      31.356 -11.899 -20.629  0.00  0.00    -0.194 NA
ATOM      5  C   UNL     1      34.505 -14.476 -23.211  0.00  0.00    -0.055 C 
ATOM      6  C   UNL     1      34.577 -14.875 -20.843  0.00  0.00    -0.055 C 
ATOM      7  C   UNL     1      33.257 -13.601 -23.067  0.00  0.00    +0.069 C 
ATOM      8  C   UNL     1      33.330 -14.015 -20.619  0.00  0.00    +0.069 C 
ATOM      9  C   UNL     1      32.388 -11.911 -21.475  0.00  0.00    +0.140 A 
ATOM     10  C   UNL     1      32.688 -10.684 -22.161  0.00  0.00    +0.040 A 
ATOM     11  C   UNL     1      31.783  -9.694 -21.770  0.00  0.00    +0.050 A 
ATOM     12  C   UNL     1      33.685 -10.349 -23.103  0.00  0.00    +0.003 C 
ATOM     13  C   UNL     1      31.836  -8.388 -22.280  0.00  0.00    +0.008 C 
ATOM     14  C   UNL     1      33.746  -9.050 -23.618  0.00  0.00    +0.000 C 
ATOM     15  C   UNL     1      32.833  -8.084 -23.211  0.00  0.00    +0.001 C 
ATOM     16  H   UNL     1      33.713 -16.085 -22.240  0.00  0.00    -0.080 HD
ENDROOT
BRANCH   2  17
ATOM     17  C   UNL     1      35.718 -16.369 -22.348  0.00  0.00    -0.072 C 
BRANCH  17  18
ATOM     18  C   UNL     1      35.305 -17.749 -22.859  0.00  0.00    +0.004 C 
BRANCH  18  22
ATOM     19 CL   UNL     1      37.912 -18.599 -21.463  0.00  0.00    -0.083 Cl
ATOM     20  O   UNL     1      32.583 -22.410 -17.957  0.00  0.00    -0.274 OA
ATOM     21  N   UNL     1      34.602 -21.468 -18.710  0.00  0.00    -0.284 N 
ATOM     22  C   UNL     1      35.196 -18.747 -21.732  0.00  0.00    -0.014 C 
ATOM     23  C   UNL     1      33.825 -20.125 -20.374  0.00  0.00    +0.000 C 
ATOM     24  C   UNL     1      33.925 -19.212 -21.405  0.00  0.00    -0.006 C 
ATOM     25  C   UNL     1      34.962 -20.556 -19.695  0.00  0.00    +0.048 C 
ATOM     26  C   UNL     1      36.339 -19.183 -21.048  0.00  0.00    +0.055 C 
ATOM     27  C   UNL     1      32.618 -20.796 -19.801  0.00  0.00    +0.113 C 
ATOM     28  C   UNL     1      36.229 -20.106 -20.007  0.00  0.00    +0.025 C 
ATOM     29  C   UNL     1      33.218 -21.674 -18.697  0.00  0.00    +0.231 C 
ATOM     30  H   UNL     1      35.236 -21.910 -18.101  0.00  0.00    +0.155 HD
ENDBRANCH  18  22
ENDBRANCH  17  18
ENDBRANCH   2  17
TORSDOF 3
ENDMDL
MODEL 3
REMARK VINA RESULT:     -11.6      1.270      1.673
REMARK  Name = 60854
REMARK  3 active torsions:
REMARK  status: ('A' for Active; 'I' for Inactive)
REMARK    1  A    between atoms: N_2  and  C_17
REMARK    2  A    between atoms: C_17  and  C_18
REMARK    3  A    between atoms: C_18  and  C_22
REMARK                            x       y       z     vdW  Elec       q    Type
REMARK                         _______ _______ _______ _____ _____    ______ ____
ROOT
ATOM      1  S   UNL     1      33.490 -10.492 -23.808  0.00  0.00    +0.014 S 
ATOM      2  N   UNL     1      35.473 -16.717 -22.901  0.00  0.00    +0.389 N 
ATOM      3  N   UNL     1      34.327 -14.102 -22.982  0.00  0.00    -0.297 N 
ATOM      4  N   UNL     1      34.228 -11.953 -24.057  0.00  0.00    -0.194 NA
ATOM      5  C   UNL     1      35.044 -16.055 -21.662  0.00  0.00    -0.055 C 
ATOM      6  C   UNL     1      34.590 -16.328 -24.006  0.00  0.00    -0.055 C 
ATOM      7  C   UNL     1      35.094 -14.531 -21.808  0.00  0.00    +0.069 C 
ATOM      8  C   UNL     1      34.625 -14.815 -24.231  0.00  0.00    +0.069 C 
ATOM      9  C   UNL     1      33.875 -12.780 -23.071  0.00  0.00    +0.140 A 
ATOM     10  C   UNL     1      32.988 -12.261 -22.067  0.00  0.00    +0.040 A 
ATOM     11  C   UNL     1      32.673 -10.932 -22.359  0.00  0.00    +0.050 A 
ATOM     12  C   UNL     1      32.426 -12.846 -20.911  0.00  0.00    +0.003 C 
ATOM     13  C   UNL     1      31.821 -10.168 -21.547  0.00  0.00    +0.008 C 
ATOM     14  C   UNL     1      31.577 -12.093 -20.094  0.00  0.00    +0.000 C 
ATOM     15  C   UNL     1      31.279 -10.772 -20.409  0.00  0.00    +0.001 C 
ATOM     16  H   UNL     1      36.425 -16.422 -23.119  0.00  0.00    -0.080 HD
ENDROOT
BRANCH   2  17
ATOM     17  C   UNL     1      35.473 -18.170 -22.731  0.00  0.00    -0.072 C 
BRANCH  17  18
ATOM     18  C   UNL     1      34.263 -18.625 -21.915  0.00  0.00    +0.004 C 
BRANCH  18  22
ATOM     19 CL   UNL     1      37.248 -18.771 -21.184  0.00  0.00    -0.083 Cl
ATOM     20  O   UNL     1      33.962 -23.614 -16.607  0.00  0.00    -0.274 OA
ATOM     21  N   UNL     1      35.461 -22.243 -17.791  0.00  0.00    -0.284 N 
ATOM     22  C   UNL     1      34.663 -19.576 -20.814  0.00  0.00    -0.014 C 
ATOM     23  C   UNL     1      34.019 -21.191 -19.201  0.00  0.00    +0.000 C 
ATOM     24  C   UNL     1      33.653 -20.320 -20.208  0.00  0.00    -0.006 C 
ATOM     25  C   UNL     1      35.352 -21.310 -18.815  0.00  0.00    +0.048 C 
ATOM     26  C   UNL     1      36.004 -19.698 -20.425  0.00  0.00    +0.055 C 
ATOM     27  C   UNL     1      33.177 -22.110 -18.375  0.00  0.00    +0.113 C 
ATOM     28  C   UNL     1      36.365 -20.581 -19.405  0.00  0.00    +0.025 C 
ATOM     29  C   UNL     1      34.210 -22.776 -17.460  0.00  0.00    +0.231 C 
ATOM     30  H   UNL     1      36.307 -22.497 -17.355  0.00  0.00    +0.155 HD
ENDBRANCH  18  22
ENDBRANCH  17  18
ENDBRANCH   2  17
TORSDOF 3
ENDMDL
MODEL 4
REMARK VINA RESULT:     -11.4      3.746      5.854
REMARK  Name = 60854
REMARK  3 active torsions:
REMARK  status: ('A' for Active; 'I' for Inactive)
REMARK    1  A    between atoms: N_2  and  C_17
REMARK    2  A    between atoms: C_17  and  C_18
REMARK    3  A    between atoms: C_18  and  C_22
REMARK                            x       y       z     vdW  Elec       q    Type
REMARK                         _______ _______ _______ _____ _____    ______ ____
ROOT
ATOM      1  S   UNL     1      33.649 -15.842 -25.413  0.00  0.00    +0.014 S 
ATOM      2  N   UNL     1      36.153 -19.783 -20.754  0.00  0.00    +0.389 N 
ATOM      3  N   UNL     1      35.041 -17.780 -22.459  0.00  0.00    -0.297 N 
ATOM      4  N   UNL     1      34.163 -17.203 -24.623  0.00  0.00    -0.194 NA
ATOM      5  C   UNL     1      36.543 -18.376 -20.600  0.00  0.00    -0.055 C 
ATOM      6  C   UNL     1      34.752 -19.868 -21.184  0.00  0.00    -0.055 C 
ATOM      7  C   UNL     1      36.396 -17.617 -21.921  0.00  0.00    +0.069 C 
ATOM      8  C   UNL     1      34.546 -19.160 -22.525  0.00  0.00    +0.069 C 
ATOM      9  C   UNL     1      34.550 -16.860 -23.393  0.00  0.00    +0.140 A 
ATOM     10  C   UNL     1      34.446 -15.470 -23.038  0.00  0.00    +0.040 A 
ATOM     11  C   UNL     1      33.934 -14.746 -24.117  0.00  0.00    +0.050 A 
ATOM     12  C   UNL     1      34.759 -14.775 -21.850  0.00  0.00    +0.003 C 
ATOM     13  C   UNL     1      33.724 -13.360 -24.056  0.00  0.00    +0.008 C 
ATOM     14  C   UNL     1      34.553 -13.393 -21.778  0.00  0.00    +0.000 C 
ATOM     15  C   UNL     1      34.042 -12.697 -22.868  0.00  0.00    +0.001 C 
ATOM     16  H   UNL     1      36.743 -20.212 -21.466  0.00  0.00    -0.080 HD
ENDROOT
BRANCH   2  17
ATOM     17  C   UNL     1      36.349 -20.510 -19.500  0.00  0.00    -0.072 C 
BRANCH  17  18
ATOM     18  C   UNL     1      35.094 -21.295 -19.120  0.00  0.00    +0.004 C 
BRANCH  18  22
ATOM     19 CL   UNL     1      32.556 -22.461 -17.830  0.00  0.00    -0.083 Cl
ATOM     20  O   UNL     1      37.966 -23.888 -12.941  0.00  0.00    -0.274 OA
ATOM     21  N   UNL     1      35.937 -23.693 -14.113  0.00  0.00    -0.284 N 
ATOM     22  C   UNL     1      35.241 -21.957 -17.772  0.00  0.00    -0.014 C 
ATOM     23  C   UNL     1      36.650 -22.598 -15.974  0.00  0.00    +0.000 C 
ATOM     24  C   UNL     1      36.515 -21.992 -17.208  0.00  0.00    -0.006 C 
ATOM     25  C   UNL     1      35.545 -23.148 -15.330  0.00  0.00    +0.048 C 
ATOM     26  C   UNL     1      34.131 -22.511 -17.121  0.00  0.00    +0.055 C 
ATOM     27  C   UNL     1      37.868 -22.788 -15.129  0.00  0.00    +0.113 C 
ATOM     28  C   UNL     1      34.277 -23.122 -15.874  0.00  0.00    +0.025 C 
ATOM     29  C   UNL     1      37.311 -23.525 -13.906  0.00  0.00    +0.231 C 
ATOM     30  H   UNL     1      35.329 -24.138 -13.479  0.00  0.00    +0.155 HD
ENDBRANCH  18  22
ENDBRANCH  17  18
ENDBRANCH   2  17
TORSDOF 3
ENDMDL
MODEL 5
REMARK VINA RESULT:     -11.3      2.088      2.699
REMARK  Name = 60854
REMARK  3 active torsions:
REMARK  status: ('A' for Active; 'I' for Inactive)
REMARK    1  A    between atoms: N_2  and  C_17
REMARK    2  A    between atoms: C_17  and  C_18
REMARK    3  A    between atoms: C_18  and  C_22
REMARK                            x       y       z     vdW  Elec       q    Type
REMARK                         _______ _______ _______ _____ _____    ______ ____
ROOT
ATOM      1  S   UNL     1      33.539  -7.769 -22.758  0.00  0.00    +0.014 S 
ATOM      2  N   UNL     1      33.823 -14.145 -24.427  0.00  0.00    +0.389 N 
ATOM      3  N   UNL     1      33.402 -11.506 -23.417  0.00  0.00    -0.297 N 
ATOM      4  N   UNL     1      33.866  -9.154 -23.605  0.00  0.00    -0.194 NA
ATOM      5  C   UNL     1      33.588 -13.926 -22.994  0.00  0.00    -0.055 C 
ATOM      6  C   UNL     1      33.067 -13.161 -25.212  0.00  0.00    -0.055 C 
ATOM      7  C   UNL     1      34.035 -12.524 -22.572  0.00  0.00    +0.069 C 
ATOM      8  C   UNL     1      33.497 -11.734 -24.864  0.00  0.00    +0.069 C 
ATOM      9  C   UNL     1      33.313 -10.185 -22.963  0.00  0.00    +0.140 A 
ATOM     10  C   UNL     1      32.598  -9.894 -21.751  0.00  0.00    +0.040 A 
ATOM     11  C   UNL     1      32.641  -8.521 -21.497  0.00  0.00    +0.050 A 
ATOM     12  C   UNL     1      31.908 -10.724 -20.841  0.00  0.00    +0.003 C 
ATOM     13  C   UNL     1      32.023  -7.947 -20.375  0.00  0.00    +0.008 C 
ATOM     14  C   UNL     1      31.289 -10.163 -19.719  0.00  0.00    +0.000 C 
ATOM     15  C   UNL     1      31.347  -8.792 -19.492  0.00  0.00    +0.001 C 
ATOM     16  H   UNL     1      34.817 -14.027 -24.620  0.00  0.00    -0.080 HD
ENDROOT
BRANCH   2  17
ATOM     17  C   UNL     1      33.442 -15.505 -24.807  0.00  0.00    -0.072 C 
BRANCH  17  18
ATOM     18  C   UNL     1      34.675 -16.398 -24.950  0.00  0.00    +0.004 C 
BRANCH  18  22
ATOM     19 CL   UNL     1      32.591 -18.657 -25.103  0.00  0.00    -0.083 Cl
ATOM     20  O   UNL     1      36.618 -20.231 -19.060  0.00  0.00    -0.274 OA
ATOM     21  N   UNL     1      35.072 -20.195 -20.832  0.00  0.00    -0.284 N 
ATOM     22  C   UNL     1      34.718 -17.457 -23.877  0.00  0.00    -0.014 C 
ATOM     23  C   UNL     1      35.738 -18.307 -21.911  0.00  0.00    +0.000 C 
ATOM     24  C   UNL     1      35.698 -17.337 -22.894  0.00  0.00    -0.006 C 
ATOM     25  C   UNL     1      34.827 -19.360 -21.916  0.00  0.00    +0.048 C 
ATOM     26  C   UNL     1      33.802 -18.518 -23.879  0.00  0.00    +0.055 C 
ATOM     27  C   UNL     1      36.659 -18.448 -20.741  0.00  0.00    +0.113 C 
ATOM     28  C   UNL     1      33.851 -19.494 -22.882  0.00  0.00    +0.025 C 
ATOM     29  C   UNL     1      36.151 -19.730 -20.071  0.00  0.00    +0.231 C 
ATOM     30  H   UNL     1      34.555 -21.007 -20.626  0.00  0.00    +0.155 HD
ENDBRANCH  18  22
ENDBRANCH  17  18
ENDBRANCH   2  17
TORSDOF 3
ENDMDL
MODEL 6
REMARK VINA RESULT:     -11.3      2.090      2.804
REMARK  Name = 60854
REMARK  3 active torsions:
REMARK  status: ('A' for Active; 'I' for Inactive)
REMARK    1  A    between atoms: N_2  and  C_17
REMARK    2  A    between atoms: C_17  and  C_18
REMARK    3  A    between atoms: C_18  and  C_22
REMARK                            x       y       z     vdW  Elec       q    Type
REMARK                         _______ _______ _______ _____ _____    ______ ____
ROOT
ATOM      1  S   UNL     1      33.475 -11.038 -23.856  0.00  0.00    +0.014 S 
ATOM      2  N   UNL     1      35.751 -17.076 -22.490  0.00  0.00    +0.389 N 
ATOM      3  N   UNL     1      34.481 -14.533 -22.765  0.00  0.00    -0.297 N 
ATOM      4  N   UNL     1      34.282 -12.477 -23.996  0.00  0.00    -0.194 NA
ATOM      5  C   UNL     1      35.287 -16.346 -21.304  0.00  0.00    -0.055 C 
ATOM      6  C   UNL     1      34.853 -16.814 -23.621  0.00  0.00    -0.055 C 
ATOM      7  C   UNL     1      35.263 -14.837 -21.562  0.00  0.00    +0.069 C 
ATOM      8  C   UNL     1      34.817 -15.321 -23.957  0.00  0.00    +0.069 C 
ATOM      9  C   UNL     1      33.967 -13.245 -22.951  0.00  0.00    +0.140 A 
ATOM     10  C   UNL     1      33.052 -12.695 -21.988  0.00  0.00    +0.040 A 
ATOM     11  C   UNL     1      32.674 -11.409 -22.378  0.00  0.00    +0.050 A 
ATOM     12  C   UNL     1      32.516 -13.220 -20.792  0.00  0.00    +0.003 C 
ATOM     13  C   UNL     1      31.784 -10.628 -21.624  0.00  0.00    +0.008 C 
ATOM     14  C   UNL     1      31.628 -12.450 -20.032  0.00  0.00    +0.000 C 
ATOM     15  C   UNL     1      31.269 -11.172 -20.445  0.00  0.00    +0.001 C 
ATOM     16  H   UNL     1      36.688 -16.753 -22.730  0.00  0.00    -0.080 HD
ENDROOT
BRANCH   2  17
ATOM     17  C   UNL     1      35.820 -18.511 -22.212  0.00  0.00    -0.072 C 
BRANCH  17  18
ATOM     18  C   UNL     1      34.428 -19.085 -21.951  0.00  0.00    +0.004 C 
BRANCH  18  22
ATOM     19 CL   UNL     1      31.691 -20.086 -20.964  0.00  0.00    -0.083 Cl
ATOM     20  O   UNL     1      36.571 -22.904 -16.121  0.00  0.00    -0.274 OA
ATOM     21  N   UNL     1      34.658 -22.277 -17.336  0.00  0.00    -0.284 N 
ATOM     22  C   UNL     1      34.408 -19.950 -20.715  0.00  0.00    -0.014 C 
ATOM     23  C   UNL     1      35.613 -21.024 -18.976  0.00  0.00    +0.000 C 
ATOM     24  C   UNL     1      35.631 -20.233 -20.108  0.00  0.00    -0.006 C 
ATOM     25  C   UNL     1      34.412 -21.514 -18.472  0.00  0.00    +0.048 C 
ATOM     26  C   UNL     1      33.200 -20.444 -20.204  0.00  0.00    +0.055 C 
ATOM     27  C   UNL     1      36.744 -21.493 -18.118  0.00  0.00    +0.113 C 
ATOM     28  C   UNL     1      33.193 -21.244 -19.059  0.00  0.00    +0.025 C 
ATOM     29  C   UNL     1      36.026 -22.322 -17.046  0.00  0.00    +0.231 C 
ATOM     30  H   UNL     1      33.962 -22.727 -16.805  0.00  0.00    +0.155 HD
ENDBRANCH  18  22
ENDBRANCH  17  18
ENDBRANCH   2  17
TORSDOF 3
ENDMDL
MODEL 7
REMARK VINA RESULT:     -11.3      5.085     10.473
REMARK  Name = 60854
REMARK  3 active torsions:
REMARK  status: ('A' for Active; 'I' for Inactive)
REMARK    1  A    between atoms: N_2  and  C_17
REMARK    2  A    between atoms: C_17  and  C_18
REMARK    3  A    between atoms: C_18  and  C_22
REMARK                            x       y       z     vdW  Elec       q    Type
REMARK                         _______ _______ _______ _____ _____    ______ ____
ROOT
ATOM      1  S   UNL     1      35.489 -24.594 -13.911  0.00  0.00    +0.014 S 
ATOM      2  N   UNL     1      34.731 -21.386 -19.625  0.00  0.00    +0.389 N 
ATOM      3  N   UNL     1      34.680 -22.601 -17.040  0.00  0.00    -0.297 N 
ATOM      4  N   UNL     1      35.827 -23.912 -15.382  0.00  0.00    -0.194 NA
ATOM      5  C   UNL     1      33.468 -21.879 -19.060  0.00  0.00    -0.055 C 
ATOM      6  C   UNL     1      35.595 -20.881 -18.550  0.00  0.00    -0.055 C 
ATOM      7  C   UNL     1      33.718 -23.016 -18.066  0.00  0.00    +0.069 C 
ATOM      8  C   UNL     1      35.916 -21.986 -17.541  0.00  0.00    +0.069 C 
ATOM      9  C   UNL     1      34.733 -23.285 -15.821  0.00  0.00    +0.140 A 
ATOM     10  C   UNL     1      33.569 -23.333 -14.978  0.00  0.00    +0.040 A 
ATOM     11  C   UNL     1      33.855 -24.064 -13.823  0.00  0.00    +0.050 A 
ATOM     12  C   UNL     1      32.274 -22.793 -15.129  0.00  0.00    +0.003 C 
ATOM     13  C   UNL     1      32.900 -24.276 -12.816  0.00  0.00    +0.008 C 
ATOM     14  C   UNL     1      31.315 -22.998 -14.132  0.00  0.00    +0.000 C 
ATOM     15  C   UNL     1      31.626 -23.730 -12.991  0.00  0.00    +0.001 C 
ATOM     16  H   UNL     1      35.205 -22.157 -20.095  0.00  0.00    -0.080 HD
ENDROOT
BRANCH   2  17
ATOM     17  C   UNL     1      34.475 -20.337 -20.612  0.00  0.00    -0.072 C 
BRANCH  17  18
ATOM     18  C   UNL     1      35.658 -19.373 -20.704  0.00  0.00    +0.004 C 
BRANCH  18  22
ATOM     19 CL   UNL     1      35.105 -19.760 -23.706  0.00  0.00    -0.083 Cl
ATOM     20  O   UNL     1      34.248 -12.467 -22.572  0.00  0.00    -0.274 OA
ATOM     21  N   UNL     1      34.392 -14.642 -23.454  0.00  0.00    -0.284 N 
ATOM     22  C   UNL     1      35.310 -18.146 -21.511  0.00  0.00    -0.014 C 
ATOM     23  C   UNL     1      34.947 -15.803 -21.578  0.00  0.00    +0.000 C 
ATOM     24  C   UNL     1      35.265 -16.926 -20.840  0.00  0.00    -0.006 C 
ATOM     25  C   UNL     1      34.684 -15.901 -22.942  0.00  0.00    +0.048 C 
ATOM     26  C   UNL     1      35.046 -18.242 -22.884  0.00  0.00    +0.055 C 
ATOM     27  C   UNL     1      34.822 -14.376 -21.147  0.00  0.00    +0.113 C 
ATOM     28  C   UNL     1      34.725 -17.101 -23.622  0.00  0.00    +0.025 C 
ATOM     29  C   UNL     1      34.450 -13.666 -22.453  0.00  0.00    +0.231 C 
ATOM     30  H   UNL     1      34.174 -14.461 -24.396  0.00  0.00    +0.155 HD
ENDBRANCH  18  22
ENDBRANCH  17  18
ENDBRANCH   2  17
TORSDOF 3
ENDMDL
MODEL 8
REMARK VINA RESULT:     -11.0      3.493      5.616
REMARK  Name = 60854
REMARK  3 active torsions:
REMARK  status: ('A' for Active; 'I' for Inactive)
REMARK    1  A    between atoms: N_2  and  C_17
REMARK    2  A    between atoms: C_17  and  C_18
REMARK    3  A    between atoms: C_18  and  C_22
REMARK                            x       y       z     vdW  Elec       q    Type
REMARK                         _______ _______ _______ _____ _____    ______ ____
ROOT
ATOM      1  S   UNL     1      33.674 -16.298 -25.393  0.00  0.00    +0.014 S 
ATOM      2  N   UNL     1      35.959 -19.947 -20.396  0.00  0.00    +0.389 N 
ATOM      3  N   UNL     1      34.949 -18.045 -22.273  0.00  0.00    -0.297 N 
ATOM      4  N   UNL     1      34.124 -17.610 -24.489  0.00  0.00    -0.194 NA
ATOM      5  C   UNL     1      36.401 -18.548 -20.347  0.00  0.00    -0.055 C 
ATOM      6  C   UNL     1      34.562 -20.014 -20.841  0.00  0.00    -0.055 C 
ATOM      7  C   UNL     1      36.301 -17.891 -21.727  0.00  0.00    +0.069 C 
ATOM      8  C   UNL     1      34.401 -19.407 -22.238  0.00  0.00    +0.069 C 
ATOM      9  C   UNL     1      34.507 -17.185 -23.284  0.00  0.00    +0.140 A 
ATOM     10  C   UNL     1      34.452 -15.769 -23.042  0.00  0.00    +0.040 A 
ATOM     11  C   UNL     1      33.984 -15.114 -24.183  0.00  0.00    +0.050 A 
ATOM     12  C   UNL     1      34.776 -14.993 -21.907  0.00  0.00    +0.003 C 
ATOM     13  C   UNL     1      33.826 -13.720 -24.236  0.00  0.00    +0.008 C 
ATOM     14  C   UNL     1      34.623 -13.604 -21.949  0.00  0.00    +0.000 C 
ATOM     15  C   UNL     1      34.154 -12.977 -23.099  0.00  0.00    +0.001 C 
ATOM     16  H   UNL     1      36.542 -20.454 -21.062  0.00  0.00    -0.080 HD
ENDROOT
BRANCH   2  17
ATOM     17  C   UNL     1      36.110 -20.579 -19.085  0.00  0.00    -0.072 C 
BRANCH  17  18
ATOM     18  C   UNL     1      35.564 -22.006 -19.100  0.00  0.00    +0.004 C 
BRANCH  18  22
ATOM     19 CL   UNL     1      37.308 -22.257 -16.577  0.00  0.00    -0.083 Cl
ATOM     20  O   UNL     1      30.396 -23.628 -14.219  0.00  0.00    -0.274 OA
ATOM     21  N   UNL     1      32.711 -23.278 -14.432  0.00  0.00    -0.284 N 
ATOM     22  C   UNL     1      34.868 -22.346 -17.805  0.00  0.00    -0.014 C 
ATOM     23  C   UNL     1      32.849 -22.834 -16.659  0.00  0.00    +0.000 C 
ATOM     24  C   UNL     1      33.487 -22.523 -17.844  0.00  0.00    -0.006 C 
ATOM     25  C   UNL     1      33.574 -22.963 -15.477  0.00  0.00    +0.048 C 
ATOM     26  C   UNL     1      35.595 -22.478 -16.614  0.00  0.00    +0.055 C 
ATOM     27  C   UNL     1      31.400 -23.079 -16.386  0.00  0.00    +0.113 C 
ATOM     28  C   UNL     1      34.942 -22.792 -15.420  0.00  0.00    +0.025 C 
ATOM     29  C   UNL     1      31.389 -23.369 -14.881  0.00  0.00    +0.231 C 
ATOM     30  H   UNL     1      32.994 -23.419 -13.500  0.00  0.00    +0.155 HD
ENDBRANCH  18  22
ENDBRANCH  17  18
ENDBRANCH   2  17
TORSDOF 3
ENDMDL
MODEL 9
REMARK VINA RESULT:     -10.8      4.018      8.820
REMARK  Name = 60854
REMARK  3 active torsions:
REMARK  status: ('A' for Active; 'I' for Inactive)
REMARK    1  A    between atoms: N_2  and  C_17
REMARK    2  A    between atoms: C_17  and  C_18
REMARK    3  A    between atoms: C_18  and  C_22
REMARK                            x       y       z     vdW  Elec       q    Type
REMARK                         _______ _______ _______ _____ _____    ______ ____
ROOT
ATOM      1  S   UNL     1      37.161 -20.156 -19.505  0.00  0.00    +0.014 S 
ATOM      2  N   UNL     1      34.454 -15.975 -23.830  0.00  0.00    +0.389 N 
ATOM      3  N   UNL     1      35.220 -17.890 -21.854  0.00  0.00    -0.297 N 
ATOM      4  N   UNL     1      36.989 -18.913 -20.586  0.00  0.00    -0.194 NA
ATOM      5  C   UNL     1      33.693 -17.221 -23.668  0.00  0.00    -0.055 C 
ATOM      6  C   UNL     1      34.971 -15.533 -22.530  0.00  0.00    -0.055 C 
ATOM      7  C   UNL     1      34.576 -18.333 -23.094  0.00  0.00    +0.069 C 
ATOM      8  C   UNL     1      35.896 -16.588 -21.920  0.00  0.00    +0.069 C 
ATOM      9  C   UNL     1      35.707 -18.839 -20.947  0.00  0.00    +0.140 A 
ATOM     10  C   UNL     1      34.805 -19.792 -20.360  0.00  0.00    +0.040 A 
ATOM     11  C   UNL     1      35.507 -20.632 -19.494  0.00  0.00    +0.050 A 
ATOM     12  C   UNL     1      33.416 -19.995 -20.515  0.00  0.00    +0.003 C 
ATOM     13  C   UNL     1      34.879 -21.663 -18.778  0.00  0.00    +0.008 C 
ATOM     14  C   UNL     1      32.781 -21.020 -19.807  0.00  0.00    +0.000 C 
ATOM     15  C   UNL     1      33.505 -21.842 -18.950  0.00  0.00    +0.001 C 
ATOM     16  H   UNL     1      35.240 -16.149 -24.456  0.00  0.00    -0.080 HD
ENDROOT
BRANCH   2  17
ATOM     17  C   UNL     1      33.615 -14.937 -24.429  0.00  0.00    -0.072 C 
BRANCH  17  18
ATOM     18  C   UNL     1      34.389 -13.627 -24.578  0.00  0.00    +0.004 C 
BRANCH  18  22
ATOM     19 CL   UNL     1      34.928 -10.725 -25.444  0.00  0.00    -0.083 Cl
ATOM     20  O   UNL     1      30.696 -10.108 -19.369  0.00  0.00    -0.274 OA
ATOM     21  N   UNL     1      32.015  -9.749 -21.281  0.00  0.00    -0.284 N 
ATOM     22  C   UNL     1      33.783 -12.528 -23.740  0.00  0.00    -0.014 C 
ATOM     23  C   UNL     1      32.468 -11.899 -21.868  0.00  0.00    +0.000 C 
ATOM     24  C   UNL     1      33.023 -12.905 -22.635  0.00  0.00    -0.006 C 
ATOM     25  C   UNL     1      32.670 -10.562 -22.200  0.00  0.00    +0.048 C 
ATOM     26  C   UNL     1      33.984 -11.181 -24.071  0.00  0.00    +0.055 C 
ATOM     27  C   UNL     1      31.619 -11.988 -20.641  0.00  0.00    +0.113 C 
ATOM     28  C   UNL     1      33.419 -10.171 -23.290  0.00  0.00    +0.025 C 
ATOM     29  C   UNL     1      31.358 -10.514 -20.311  0.00  0.00    +0.231 C 
ATOM     30  H   UNL     1      32.014  -8.765 -21.309  0.00  0.00    +0.155 HD
ENDBRANCH  18  22
ENDBRANCH  17  18
ENDBRANCH   2  17
TORSDOF 3
ENDMDL
