MODEL 1
REMARK VINA RESULT:     -12.2      0.000      0.000
REMARK  Name = 24880024
REMARK  5 active torsions:
REMARK  status: ('A' for Active; 'I' for Inactive)
REMARK    1  A    between atoms: N_5  and  C_12
REMARK    2  A    between atoms: C_6  and  C_22
REMARK    3  A    between atoms: C_13  and  C_21
REMARK    4  A    between atoms: C_22  and  C_23
REMARK    5  A    between atoms: C_23  and  N_25
REMARK                            x       y       z     vdW  Elec       q    Type
REMARK                         _______ _______ _______ _____ _____    ______ ____
ROOT
ATOM      1  S   UNL     1      36.611 -20.250 -19.544  0.00  0.00    -0.056 S 
ATOM      2  O   UNL     1      35.278 -23.145 -16.132  0.00  0.00    -0.252 OA
ATOM      3  N   UNL     1      34.602 -21.571 -18.594  0.00  0.00    -0.223 NA
ATOM      4  N   UNL     1      36.690 -21.770 -17.409  0.00  0.00    -0.248 N 
ATOM      5  N   UNL     1      37.521 -22.874 -15.528  0.00  0.00    -0.268 N 
ATOM      6  C   UNL     1      35.111 -20.133 -20.367  0.00  0.00    +0.031 C 
ATOM      7  C   UNL     1      34.166 -20.898 -19.718  0.00  0.00    +0.103 C 
ATOM      8  C   UNL     1      35.875 -21.304 -18.406  0.00  0.00    +0.166 C 
ATOM      9  C   UNL     1      36.386 -22.655 -16.324  0.00  0.00    +0.310 C 
ATOM     10  H   UNL     1      37.622 -21.451 -17.443  0.00  0.00    +0.158 HD
ATOM     11  H   UNL     1      38.343 -22.410 -15.809  0.00  0.00    +0.156 HD
ENDROOT
BRANCH   5  12
ATOM     12  C   UNL     1      37.630 -23.682 -14.371  0.00  0.00    +0.052 C 
ATOM     13  C   UNL     1      36.932 -24.220 -12.122  0.00  0.00    +0.073 C 
ATOM     14  C   UNL     1      36.825 -23.424 -13.262  0.00  0.00    +0.019 C 
ATOM     15  C   UNL     1      38.542 -24.736 -14.341  0.00  0.00    +0.015 C 
ATOM     16  C   UNL     1      37.845 -25.275 -12.092  0.00  0.00    +0.004 C 
ATOM     17  C   UNL     1      38.650 -25.533 -13.201  0.00  0.00    +0.001 C 
BRANCH  13  21
ATOM     18  F   UNL     1      34.929 -23.261 -11.233  0.00  0.00    -0.166 F 
ATOM     19  F   UNL     1      35.653 -25.075 -10.290  0.00  0.00    -0.166 F 
ATOM     20  F   UNL     1      36.709 -23.198  -9.987  0.00  0.00    -0.166 F 
ATOM     21  C   UNL     1      36.072 -23.945 -10.935  0.00  0.00    +0.419 C 
ENDBRANCH  13  21
ENDBRANCH   5  12
BRANCH   6  22
ATOM     22  C   UNL     1      34.981 -19.282 -21.607  0.00  0.00    +0.056 C 
BRANCH  22  23
ATOM     23  C   UNL     1      36.108 -18.260 -21.754  0.00  0.00    +0.093 C 
BRANCH  23  25
ATOM     24  S   UNL     1      34.497 -13.929 -22.166  0.00  0.00    -0.101 S 
ATOM     25  N   UNL     1      35.583 -16.941 -21.941  0.00  0.00    -0.320 N 
ATOM     26  N   UNL     1      34.602 -17.475 -24.043  0.00  0.00    -0.233 NA
ATOM     27  N   UNL     1      33.369 -15.851 -25.346  0.00  0.00    -0.247 NA
ATOM     28  C   UNL     1      34.841 -16.566 -23.077  0.00  0.00    +0.118 C 
ATOM     29  C   UNL     1      34.349 -15.274 -23.221  0.00  0.00    +0.145 C 
ATOM     30  C   UNL     1      33.619 -14.947 -24.363  0.00  0.00    +0.073 C 
ATOM     31  C   UNL     1      33.191 -13.586 -24.349  0.00  0.00    +0.022 C 
ATOM     32  C   UNL     1      33.600 -12.922 -23.215  0.00  0.00    +0.033 C 
ATOM     33  C   UNL     1      33.887 -17.067 -25.108  0.00  0.00    +0.251 C 
ATOM     34  H   UNL     1      35.750 -16.266 -21.245  0.00  0.00    +0.148 HD
ENDBRANCH  23  25
ENDBRANCH  22  23
ENDBRANCH   6  22
TORSDOF 5
ENDMDL
MODEL 2
REMARK VINA RESULT:     -11.8      2.036      2.737
REMARK  Name = 24880024
REMARK  5 active torsions:
REMARK  status: ('A' for Active; 'I' for Inactive)
REMARK    1  A    between atoms: N_5  and  C_12
REMARK    2  A    between atoms: C_6  and  C_22
REMARK    3  A    between atoms: C_13  and  C_21
REMARK    4  A    between atoms: C_22  and  C_23
REMARK    5  A    between atoms: C_23  and  N_25
REMARK                            x       y       z     vdW  Elec       q    Type
REMARK                         _______ _______ _______ _____ _____    ______ ____
ROOT
ATOM      1  S   UNL     1      34.286 -21.025 -19.876  0.00  0.00    -0.056 S 
ATOM      2  O   UNL     1      36.929 -21.955 -16.141  0.00  0.00    -0.252 OA
ATOM      3  N   UNL     1      36.574 -20.552 -18.768  0.00  0.00    -0.223 NA
ATOM      4  N   UNL     1      35.074 -22.017 -17.581  0.00  0.00    -0.248 N 
ATOM      5  N   UNL     1      35.047 -23.229 -15.586  0.00  0.00    -0.268 N 
ATOM      6  C   UNL     1      35.374 -19.983 -20.695  0.00  0.00    +0.031 C 
ATOM      7  C   UNL     1      36.532 -19.853 -19.958  0.00  0.00    +0.103 C 
ATOM      8  C   UNL     1      35.443 -21.207 -18.621  0.00  0.00    +0.166 C 
ATOM      9  C   UNL     1      35.801 -22.365 -16.397  0.00  0.00    +0.310 C 
ATOM     10  H   UNL     1      34.178 -22.419 -17.657  0.00  0.00    +0.158 HD
ATOM     11  H   UNL     1      34.155 -23.471 -15.924  0.00  0.00    +0.156 HD
ENDROOT
BRANCH   5  12
ATOM     12  C   UNL     1      35.412 -23.794 -14.341  0.00  0.00    +0.052 C 
ATOM     13  C   UNL     1      37.008 -24.977 -12.967  0.00  0.00    +0.073 C 
ATOM     14  C   UNL     1      36.649 -24.421 -14.194  0.00  0.00    +0.019 C 
ATOM     15  C   UNL     1      34.535 -23.721 -13.259  0.00  0.00    +0.015 C 
ATOM     16  C   UNL     1      36.131 -24.905 -11.885  0.00  0.00    +0.004 C 
ATOM     17  C   UNL     1      34.894 -24.277 -12.031  0.00  0.00    +0.001 C 
BRANCH  13  21
ATOM     18  F   UNL     1      38.645 -26.487 -13.840  0.00  0.00    -0.166 F 
ATOM     19  F   UNL     1      39.380 -24.777 -12.726  0.00  0.00    -0.166 F 
ATOM     20  F   UNL     1      38.400 -26.414 -11.681  0.00  0.00    -0.166 F 
ATOM     21  C   UNL     1      38.331 -25.649 -12.810  0.00  0.00    +0.419 C 
ENDBRANCH  13  21
ENDBRANCH   5  12
BRANCH   6  22
ATOM     22  C   UNL     1      34.996 -19.367 -22.020  0.00  0.00    +0.056 C 
BRANCH  22  23
ATOM     23  C   UNL     1      35.984 -18.298 -22.488  0.00  0.00    +0.093 C 
BRANCH  23  25
ATOM     24  S   UNL     1      33.856 -15.183 -25.188  0.00  0.00    -0.101 S 
ATOM     25  N   UNL     1      35.323 -17.296 -23.267  0.00  0.00    -0.320 N 
ATOM     26  N   UNL     1      35.111 -15.801 -21.426  0.00  0.00    -0.233 NA
ATOM     27  N   UNL     1      34.059 -13.632 -21.633  0.00  0.00    -0.247 NA
ATOM     28  C   UNL     1      34.896 -16.067 -22.730  0.00  0.00    +0.118 C 
ATOM     29  C   UNL     1      34.257 -15.119 -23.520  0.00  0.00    +0.145 C 
ATOM     30  C   UNL     1      33.851 -13.915 -22.946  0.00  0.00    +0.073 C 
ATOM     31  C   UNL     1      33.213 -13.060 -23.895  0.00  0.00    +0.022 C 
ATOM     32  C   UNL     1      33.151 -13.627 -25.148  0.00  0.00    +0.033 C 
ATOM     33  C   UNL     1      34.684 -14.612 -20.961  0.00  0.00    +0.251 C 
ATOM     34  H   UNL     1      35.157 -17.474 -24.220  0.00  0.00    +0.148 HD
ENDBRANCH  23  25
ENDBRANCH  22  23
ENDBRANCH   6  22
TORSDOF 5
ENDMDL
MODEL 3
REMARK VINA RESULT:     -11.7      4.964      7.922
REMARK  Name = 24880024
REMARK  5 active torsions:
REMARK  status: ('A' for Active; 'I' for Inactive)
REMARK    1  A    between atoms: N_5  and  C_12
REMARK    2  A    between atoms: C_6  and  C_22
REMARK    3  A    between atoms: C_13  and  C_21
REMARK    4  A    between atoms: C_22  and  C_23
REMARK    5  A    between atoms: C_23  and  N_25
REMARK                            x       y       z     vdW  Elec       q    Type
REMARK                         _______ _______ _______ _____ _____    ______ ____
ROOT
ATOM      1  S   UNL     1      33.879 -14.910 -24.633  0.00  0.00    -0.056 S 
ATOM      2  O   UNL     1      35.340 -16.529 -20.504  0.00  0.00    -0.252 OA
ATOM      3  N   UNL     1      34.626 -14.205 -22.260  0.00  0.00    -0.223 NA
ATOM      4  N   UNL     1      34.606 -16.567 -22.735  0.00  0.00    -0.248 N 
ATOM      5  N   UNL     1      35.086 -18.565 -21.627  0.00  0.00    -0.268 N 
ATOM      6  C   UNL     1      33.900 -13.236 -24.262  0.00  0.00    +0.031 C 
ATOM      7  C   UNL     1      34.324 -13.055 -22.962  0.00  0.00    +0.103 C 
ATOM      8  C   UNL     1      34.428 -15.244 -23.041  0.00  0.00    +0.166 C 
ATOM      9  C   UNL     1      35.045 -17.166 -21.510  0.00  0.00    +0.310 C 
ATOM     10  H   UNL     1      34.402 -17.199 -23.463  0.00  0.00    +0.158 HD
ATOM     11  H   UNL     1      34.818 -18.933 -22.500  0.00  0.00    +0.156 HD
ENDROOT
BRANCH   5  12
ATOM     12  C   UNL     1      35.463 -19.510 -20.644  0.00  0.00    +0.052 C 
ATOM     13  C   UNL     1      34.877 -21.284 -19.113  0.00  0.00    +0.073 C 
ATOM     14  C   UNL     1      34.505 -20.352 -20.081  0.00  0.00    +0.019 C 
ATOM     15  C   UNL     1      36.795 -19.601 -20.240  0.00  0.00    +0.015 C 
ATOM     16  C   UNL     1      36.209 -21.374 -18.708  0.00  0.00    +0.004 C 
ATOM     17  C   UNL     1      37.168 -20.533 -19.272  0.00  0.00    +0.001 C 
BRANCH  13  21
ATOM     18  F   UNL     1      33.765 -23.402 -19.120  0.00  0.00    -0.166 F 
ATOM     19  F   UNL     1      34.079 -22.463 -17.191  0.00  0.00    -0.166 F 
ATOM     20  F   UNL     1      32.595 -21.657 -18.561  0.00  0.00    -0.166 F 
ATOM     21  C   UNL     1      33.852 -22.185 -18.509  0.00  0.00    +0.419 C 
ENDBRANCH  13  21
ENDBRANCH   5  12
BRANCH   6  22
ATOM     22  C   UNL     1      33.493 -12.216 -25.298  0.00  0.00    +0.056 C 
BRANCH  22  23
ATOM     23  C   UNL     1      33.558 -10.779 -24.782  0.00  0.00    +0.093 C 
BRANCH  23  25
ATOM     24  S   UNL     1      31.398 -10.608 -20.679  0.00  0.00    -0.101 S 
ATOM     25  N   UNL     1      32.917 -10.663 -23.507  0.00  0.00    -0.320 N 
ATOM     26  N   UNL     1      33.772  -8.476 -23.115  0.00  0.00    -0.233 NA
ATOM     27  N   UNL     1      33.276  -7.234 -21.099  0.00  0.00    -0.247 NA
ATOM     28  C   UNL     1      33.031  -9.520 -22.693  0.00  0.00    +0.118 C 
ATOM     29  C   UNL     1      32.392  -9.447 -21.461  0.00  0.00    +0.145 C 
ATOM     30  C   UNL     1      32.533  -8.296 -20.688  0.00  0.00    +0.073 C 
ATOM     31  C   UNL     1      31.815  -8.388 -19.458  0.00  0.00    +0.022 C 
ATOM     32  C   UNL     1      31.157  -9.590 -19.328  0.00  0.00    +0.033 C 
ATOM     33  C   UNL     1      33.849  -7.407 -22.301  0.00  0.00    +0.251 C 
ATOM     34  H   UNL     1      32.373 -11.417 -23.184  0.00  0.00    +0.148 HD
ENDBRANCH  23  25
ENDBRANCH  22  23
ENDBRANCH   6  22
TORSDOF 5
ENDMDL
MODEL 4
REMARK VINA RESULT:     -11.7      5.924     11.810
REMARK  Name = 24880024
REMARK  5 active torsions:
REMARK  status: ('A' for Active; 'I' for Inactive)
REMARK    1  A    between atoms: N_5  and  C_12
REMARK    2  A    between atoms: C_6  and  C_22
REMARK    3  A    between atoms: C_13  and  C_21
REMARK    4  A    between atoms: C_22  and  C_23
REMARK    5  A    between atoms: C_23  and  N_25
REMARK                            x       y       z     vdW  Elec       q    Type
REMARK                         _______ _______ _______ _____ _____    ______ ____
ROOT
ATOM      1  S   UNL     1      33.623 -23.504 -15.834  0.00  0.00    -0.056 S 
ATOM      2  O   UNL     1      32.870 -20.644 -19.448  0.00  0.00    -0.252 OA
ATOM      3  N   UNL     1      31.781 -22.338 -17.224  0.00  0.00    -0.223 NA
ATOM      4  N   UNL     1      34.062 -21.926 -17.881  0.00  0.00    -0.248 N 
ATOM      5  N   UNL     1      35.207 -20.702 -19.506  0.00  0.00    -0.268 N 
ATOM      6  C   UNL     1      31.989 -23.774 -15.389  0.00  0.00    +0.031 C 
ATOM      7  C   UNL     1      31.157 -23.077 -16.239  0.00  0.00    +0.103 C 
ATOM      8  C   UNL     1      33.082 -22.488 -17.107  0.00  0.00    +0.166 C 
ATOM      9  C   UNL     1      33.941 -21.042 -19.002  0.00  0.00    +0.310 C 
ATOM     10  H   UNL     1      34.985 -22.163 -17.630  0.00  0.00    +0.158 HD
ATOM     11  H   UNL     1      35.978 -21.100 -19.042  0.00  0.00    +0.156 HD
ENDROOT
BRANCH   5  12
ATOM     12  C   UNL     1      35.510 -19.857 -20.600  0.00  0.00    +0.052 C 
ATOM     13  C   UNL     1      35.013 -19.051 -22.822  0.00  0.00    +0.073 C 
ATOM     14  C   UNL     1      34.715 -19.884 -21.745  0.00  0.00    +0.019 C 
ATOM     15  C   UNL     1      36.605 -18.995 -20.532  0.00  0.00    +0.015 C 
ATOM     16  C   UNL     1      36.108 -18.189 -22.755  0.00  0.00    +0.004 C 
ATOM     17  C   UNL     1      36.904 -18.161 -21.609  0.00  0.00    +0.001 C 
BRANCH  13  21
ATOM     18  F   UNL     1      32.826 -19.166 -23.785  0.00  0.00    -0.166 F 
ATOM     19  F   UNL     1      34.301 -17.972 -24.835  0.00  0.00    -0.166 F 
ATOM     20  F   UNL     1      34.446 -20.141 -24.858  0.00  0.00    -0.166 F 
ATOM     21  C   UNL     1      34.163 -19.080 -24.048  0.00  0.00    +0.419 C 
ENDBRANCH  13  21
ENDBRANCH   5  12
BRANCH   6  22
ATOM     22  C   UNL     1      31.650 -24.667 -14.220  0.00  0.00    +0.056 C 
BRANCH  22  23
ATOM     23  C   UNL     1      32.587 -24.476 -13.028  0.00  0.00    +0.093 C 
BRANCH  23  25
ATOM     24  S   UNL     1      36.848 -25.795 -14.305  0.00  0.00    -0.101 S 
ATOM     25  N   UNL     1      33.925 -24.862 -13.361  0.00  0.00    -0.320 N 
ATOM     26  N   UNL     1      34.807 -24.139 -11.272  0.00  0.00    -0.233 NA
ATOM     27  N   UNL     1      37.155 -24.333 -10.720  0.00  0.00    -0.247 NA
ATOM     28  C   UNL     1      35.013 -24.689 -12.485  0.00  0.00    +0.118 C 
ATOM     29  C   UNL     1      36.297 -25.077 -12.847  0.00  0.00    +0.145 C 
ATOM     30  C   UNL     1      37.345 -24.887 -11.947  0.00  0.00    +0.073 C 
ATOM     31  C   UNL     1      38.591 -25.338 -12.476  0.00  0.00    +0.022 C 
ATOM     32  C   UNL     1      38.462 -25.852 -13.746  0.00  0.00    +0.033 C 
ATOM     33  C   UNL     1      35.879 -23.996 -10.471  0.00  0.00    +0.251 C 
ATOM     34  H   UNL     1      34.092 -25.264 -14.243  0.00  0.00    +0.148 HD
ENDBRANCH  23  25
ENDBRANCH  22  23
ENDBRANCH   6  22
TORSDOF 5
ENDMDL
MODEL 5
REMARK VINA RESULT:     -11.6      1.827      2.333
REMARK  Name = 24880024
REMARK  5 active torsions:
REMARK  status: ('A' for Active; 'I' for Inactive)
REMARK    1  A    between atoms: N_5  and  C_12
REMARK    2  A    between atoms: C_6  and  C_22
REMARK    3  A    between atoms: C_13  and  C_21
REMARK    4  A    between atoms: C_22  and  C_23
REMARK    5  A    between atoms: C_23  and  N_25
REMARK                            x       y       z     vdW  Elec       q    Type
REMARK                         _______ _______ _______ _____ _____    ______ ____
ROOT
ATOM      1  S   UNL     1      34.213 -20.972 -19.853  0.00  0.00    -0.056 S 
ATOM      2  O   UNL     1      36.942 -22.019 -16.212  0.00  0.00    -0.252 OA
ATOM      3  N   UNL     1      36.559 -20.606 -18.830  0.00  0.00    -0.223 NA
ATOM      4  N   UNL     1      35.035 -21.996 -17.585  0.00  0.00    -0.248 N 
ATOM      5  N   UNL     1      35.023 -23.201 -15.586  0.00  0.00    -0.268 N 
ATOM      6  C   UNL     1      35.319 -19.984 -20.715  0.00  0.00    +0.031 C 
ATOM      7  C   UNL     1      36.508 -19.907 -20.020  0.00  0.00    +0.103 C 
ATOM      8  C   UNL     1      35.404 -21.206 -18.640  0.00  0.00    +0.166 C 
ATOM      9  C   UNL     1      35.788 -22.376 -16.426  0.00  0.00    +0.310 C 
ATOM     10  H   UNL     1      34.119 -22.355 -17.627  0.00  0.00    +0.158 HD
ATOM     11  H   UNL     1      34.109 -23.401 -15.891  0.00  0.00    +0.156 HD
ENDROOT
BRANCH   5  12
ATOM     12  C   UNL     1      35.406 -23.780 -14.352  0.00  0.00    +0.052 C 
ATOM     13  C   UNL     1      37.017 -24.987 -13.018  0.00  0.00    +0.073 C 
ATOM     14  C   UNL     1      36.640 -24.417 -14.233  0.00  0.00    +0.019 C 
ATOM     15  C   UNL     1      34.548 -23.713 -13.255  0.00  0.00    +0.015 C 
ATOM     16  C   UNL     1      36.159 -24.920 -11.920  0.00  0.00    +0.004 C 
ATOM     17  C   UNL     1      34.924 -24.282 -12.039  0.00  0.00    +0.001 C 
BRANCH  13  21
ATOM     18  F   UNL     1      39.402 -24.817 -12.946  0.00  0.00    -0.166 F 
ATOM     19  F   UNL     1      38.489 -26.351 -11.715  0.00  0.00    -0.166 F 
ATOM     20  F   UNL     1      38.551 -26.588 -13.876  0.00  0.00    -0.166 F 
ATOM     21  C   UNL     1      38.338 -25.669 -12.890  0.00  0.00    +0.419 C 
ENDBRANCH  13  21
ENDBRANCH   5  12
BRANCH   6  22
ATOM     22  C   UNL     1      34.923 -19.353 -22.028  0.00  0.00    +0.056 C 
BRANCH  22  23
ATOM     23  C   UNL     1      35.885 -18.255 -22.479  0.00  0.00    +0.093 C 
BRANCH  23  25
ATOM     24  S   UNL     1      34.265 -14.080 -21.265  0.00  0.00    -0.101 S 
ATOM     25  N   UNL     1      35.364 -16.958 -22.169  0.00  0.00    -0.320 N 
ATOM     26  N   UNL     1      34.605 -16.574 -24.392  0.00  0.00    -0.233 NA
ATOM     27  N   UNL     1      33.486 -14.529 -25.044  0.00  0.00    -0.247 NA
ATOM     28  C   UNL     1      34.734 -16.138 -23.123  0.00  0.00    +0.118 C 
ATOM     29  C   UNL     1      34.241 -14.884 -22.782  0.00  0.00    +0.145 C 
ATOM     30  C   UNL     1      33.625 -14.104 -23.760  0.00  0.00    +0.073 C 
ATOM     31  C   UNL     1      33.179 -12.852 -23.240  0.00  0.00    +0.022 C 
ATOM     32  C   UNL     1      33.463 -12.712 -21.902  0.00  0.00    +0.033 C 
ATOM     33  C   UNL     1      33.995 -15.752 -25.266  0.00  0.00    +0.251 C 
ATOM     34  H   UNL     1      35.451 -16.625 -21.247  0.00  0.00    +0.148 HD
ENDBRANCH  23  25
ENDBRANCH  22  23
ENDBRANCH   6  22
TORSDOF 5
ENDMDL
MODEL 6
REMARK VINA RESULT:     -11.5      5.397     11.909
REMARK  Name = 24880024
REMARK  5 active torsions:
REMARK  status: ('A' for Active; 'I' for Inactive)
REMARK    1  A    between atoms: N_5  and  C_12
REMARK    2  A    between atoms: C_6  and  C_22
REMARK    3  A    between atoms: C_13  and  C_21
REMARK    4  A    between atoms: C_22  and  C_23
REMARK    5  A    between atoms: C_23  and  N_25
REMARK                            x       y       z     vdW  Elec       q    Type
REMARK                         _______ _______ _______ _____ _____    ______ ____
ROOT
ATOM      1  S   UNL     1      33.638 -23.202 -16.475  0.00  0.00    -0.056 S 
ATOM      2  O   UNL     1      32.242 -20.251 -19.813  0.00  0.00    -0.252 OA
ATOM      3  N   UNL     1      31.571 -22.029 -17.493  0.00  0.00    -0.223 NA
ATOM      4  N   UNL     1      33.701 -21.556 -18.514  0.00  0.00    -0.248 N 
ATOM      5  N   UNL     1      34.536 -20.264 -20.270  0.00  0.00    -0.268 N 
ATOM      6  C   UNL     1      32.108 -23.515 -15.767  0.00  0.00    +0.031 C 
ATOM      7  C   UNL     1      31.134 -22.809 -16.441  0.00  0.00    +0.103 C 
ATOM      8  C   UNL     1      32.875 -22.159 -17.604  0.00  0.00    +0.166 C 
ATOM      9  C   UNL     1      33.379 -20.641 -19.569  0.00  0.00    +0.310 C 
ATOM     10  H   UNL     1      34.656 -21.783 -18.431  0.00  0.00    +0.158 HD
ATOM     11  H   UNL     1      35.380 -20.661 -19.956  0.00  0.00    +0.156 HD
ENDROOT
BRANCH   5  12
ATOM     12  C   UNL     1      34.637 -19.381 -21.371  0.00  0.00    +0.052 C 
ATOM     13  C   UNL     1      34.834 -17.137 -22.243  0.00  0.00    +0.073 C 
ATOM     14  C   UNL     1      34.734 -18.006 -21.158  0.00  0.00    +0.019 C 
ATOM     15  C   UNL     1      34.641 -19.887 -22.671  0.00  0.00    +0.015 C 
ATOM     16  C   UNL     1      34.838 -17.642 -23.543  0.00  0.00    +0.004 C 
ATOM     17  C   UNL     1      34.742 -19.017 -23.758  0.00  0.00    +0.001 C 
BRANCH  13  21
ATOM     18  F   UNL     1      35.788 -15.037 -22.877  0.00  0.00    -0.166 F 
ATOM     19  F   UNL     1      33.746 -15.009 -22.147  0.00  0.00    -0.166 F 
ATOM     20  F   UNL     1      35.388 -15.359 -20.765  0.00  0.00    -0.166 F 
ATOM     21  C   UNL     1      34.937 -15.666 -22.016  0.00  0.00    +0.419 C 
ENDBRANCH  13  21
ENDBRANCH   5  12
BRANCH   6  22
ATOM     22  C   UNL     1      31.985 -24.449 -14.587  0.00  0.00    +0.056 C 
BRANCH  22  23
ATOM     23  C   UNL     1      32.914 -24.080 -13.431  0.00  0.00    +0.093 C 
BRANCH  23  25
ATOM     24  S   UNL     1      37.137 -25.756 -14.369  0.00  0.00    -0.101 S 
ATOM     25  N   UNL     1      34.236 -24.580 -13.657  0.00  0.00    -0.320 N 
ATOM     26  N   UNL     1      34.981 -24.007 -11.470  0.00  0.00    -0.233 NA
ATOM     27  N   UNL     1      37.239 -24.439 -10.716  0.00  0.00    -0.247 NA
ATOM     28  C   UNL     1      35.248 -24.537 -12.680  0.00  0.00    +0.118 C 
ATOM     29  C   UNL     1      36.520 -25.034 -12.939  0.00  0.00    +0.145 C 
ATOM     30  C   UNL     1      37.492 -24.971 -11.941  0.00  0.00    +0.073 C 
ATOM     31  C   UNL     1      38.736 -25.522 -12.373  0.00  0.00    +0.022 C 
ATOM     32  C   UNL     1      38.680 -25.983 -13.669  0.00  0.00    +0.033 C 
ATOM     33  C   UNL     1      35.982 -23.990 -10.571  0.00  0.00    +0.251 C 
ATOM     34  H   UNL     1      34.447 -24.969 -14.535  0.00  0.00    +0.148 HD
ENDBRANCH  23  25
ENDBRANCH  22  23
ENDBRANCH   6  22
TORSDOF 5
ENDMDL
MODEL 7
REMARK VINA RESULT:     -11.4      5.283      8.536
REMARK  Name = 24880024
REMARK  5 active torsions:
REMARK  status: ('A' for Active; 'I' for Inactive)
REMARK    1  A    between atoms: N_5  and  C_12
REMARK    2  A    between atoms: C_6  and  C_22
REMARK    3  A    between atoms: C_13  and  C_21
REMARK    4  A    between atoms: C_22  and  C_23
REMARK    5  A    between atoms: C_23  and  N_25
REMARK                            x       y       z     vdW  Elec       q    Type
REMARK                         _______ _______ _______ _____ _____    ______ ____
ROOT
ATOM      1  S   UNL     1      34.156 -13.875 -23.809  0.00  0.00    -0.056 S 
ATOM      2  O   UNL     1      34.992 -16.287 -19.900  0.00  0.00    -0.252 OA
ATOM      3  N   UNL     1      34.294 -13.693 -21.234  0.00  0.00    -0.223 NA
ATOM      4  N   UNL     1      34.734 -15.858 -22.195  0.00  0.00    -0.248 N 
ATOM      5  N   UNL     1      35.285 -18.004 -21.461  0.00  0.00    -0.268 N 
ATOM      6  C   UNL     1      33.843 -12.348 -23.095  0.00  0.00    +0.031 C 
ATOM      7  C   UNL     1      33.965 -12.445 -21.724  0.00  0.00    +0.103 C 
ATOM      8  C   UNL     1      34.420 -14.526 -22.243  0.00  0.00    +0.166 C 
ATOM      9  C   UNL     1      35.006 -16.688 -21.059  0.00  0.00    +0.310 C 
ATOM     10  H   UNL     1      34.780 -16.312 -23.068  0.00  0.00    +0.158 HD
ATOM     11  H   UNL     1      35.258 -18.176 -22.429  0.00  0.00    +0.156 HD
ENDROOT
BRANCH   5  12
ATOM     12  C   UNL     1      35.599 -19.116 -20.643  0.00  0.00    +0.052 C 
ATOM     13  C   UNL     1      34.898 -21.068 -19.406  0.00  0.00    +0.073 C 
ATOM     14  C   UNL     1      34.588 -19.973 -20.211  0.00  0.00    +0.019 C 
ATOM     15  C   UNL     1      36.922 -19.354 -20.269  0.00  0.00    +0.015 C 
ATOM     16  C   UNL     1      36.220 -21.307 -19.032  0.00  0.00    +0.004 C 
ATOM     17  C   UNL     1      37.233 -20.450 -19.464  0.00  0.00    +0.001 C 
BRANCH  13  21
ATOM     18  F   UNL     1      33.978 -23.276 -19.358  0.00  0.00    -0.166 F 
ATOM     19  F   UNL     1      33.708 -22.060 -17.583  0.00  0.00    -0.166 F 
ATOM     20  F   UNL     1      32.583 -21.609 -19.388  0.00  0.00    -0.166 F 
ATOM     21  C   UNL     1      33.816 -21.986 -18.943  0.00  0.00    +0.419 C 
ENDBRANCH  13  21
ENDBRANCH   5  12
BRANCH   6  22
ATOM     22  C   UNL     1      33.500 -11.155 -23.953  0.00  0.00    +0.056 C 
BRANCH  22  23
ATOM     23  C   UNL     1      34.336  -9.919 -23.625  0.00  0.00    +0.093 C 
BRANCH  23  25
ATOM     24  S   UNL     1      31.746  -6.074 -23.792  0.00  0.00    -0.101 S 
ATOM     25  N   UNL     1      33.524  -8.740 -23.609  0.00  0.00    -0.320 N 
ATOM     26  N   UNL     1      33.028  -8.938 -21.290  0.00  0.00    -0.233 NA
ATOM     27  N   UNL     1      31.621  -7.350 -20.126  0.00  0.00    -0.247 NA
ATOM     28  C   UNL     1      32.883  -8.266 -22.449  0.00  0.00    +0.118 C 
ATOM     29  C   UNL     1      32.103  -7.117 -22.477  0.00  0.00    +0.145 C 
ATOM     30  C   UNL     1      31.486  -6.684 -21.304  0.00  0.00    +0.073 C 
ATOM     31  C   UNL     1      30.726  -5.494 -21.509  0.00  0.00    +0.022 C 
ATOM     32  C   UNL     1      30.782  -5.058 -22.813  0.00  0.00    +0.033 C 
ATOM     33  C   UNL     1      32.395  -8.444 -20.210  0.00  0.00    +0.251 C 
ATOM     34  H   UNL     1      33.408  -8.239 -24.448  0.00  0.00    +0.148 HD
ENDBRANCH  23  25
ENDBRANCH  22  23
ENDBRANCH   6  22
TORSDOF 5
ENDMDL
MODEL 8
REMARK VINA RESULT:     -11.2      6.267     12.700
REMARK  Name = 24880024
REMARK  5 active torsions:
REMARK  status: ('A' for Active; 'I' for Inactive)
REMARK    1  A    between atoms: N_5  and  C_12
REMARK    2  A    between atoms: C_6  and  C_22
REMARK    3  A    between atoms: C_13  and  C_21
REMARK    4  A    between atoms: C_22  and  C_23
REMARK    5  A    between atoms: C_23  and  N_25
REMARK                            x       y       z     vdW  Elec       q    Type
REMARK                         _______ _______ _______ _____ _____    ______ ____
ROOT
ATOM      1  S   UNL     1      34.587 -19.762 -21.170  0.00  0.00    -0.056 S 
ATOM      2  O   UNL     1      35.868 -15.492 -22.559  0.00  0.00    -0.252 OA
ATOM      3  N   UNL     1      36.458 -17.985 -20.999  0.00  0.00    -0.223 NA
ATOM      4  N   UNL     1      34.542 -17.420 -22.346  0.00  0.00    -0.248 N 
ATOM      5  N   UNL     1      33.801 -15.627 -23.645  0.00  0.00    -0.268 N 
ATOM      6  C   UNL     1      35.966 -20.137 -20.222  0.00  0.00    +0.031 C 
ATOM      7  C   UNL     1      36.848 -19.076 -20.248  0.00  0.00    +0.103 C 
ATOM      8  C   UNL     1      35.282 -18.235 -21.532  0.00  0.00    +0.166 C 
ATOM      9  C   UNL     1      34.840 -16.104 -22.830  0.00  0.00    +0.310 C 
ATOM     10  H   UNL     1      33.680 -17.792 -22.644  0.00  0.00    +0.158 HD
ATOM     11  H   UNL     1      33.037 -16.235 -23.772  0.00  0.00    +0.156 HD
ENDROOT
BRANCH   5  12
ATOM     12  C   UNL     1      33.718 -14.380 -24.309  0.00  0.00    +0.052 C 
ATOM     13  C   UNL     1      33.596 -11.969 -24.225  0.00  0.00    +0.073 C 
ATOM     14  C   UNL     1      33.677 -13.198 -23.571  0.00  0.00    +0.019 C 
ATOM     15  C   UNL     1      33.679 -14.334 -25.702  0.00  0.00    +0.015 C 
ATOM     16  C   UNL     1      33.557 -11.922 -25.618  0.00  0.00    +0.004 C 
ATOM     17  C   UNL     1      33.598 -13.105 -26.358  0.00  0.00    +0.001 C 
BRANCH  13  21
ATOM     18  F   UNL     1      33.094 -10.870 -22.161  0.00  0.00    -0.166 F 
ATOM     19  F   UNL     1      34.770 -10.101 -23.302  0.00  0.00    -0.166 F 
ATOM     20  F   UNL     1      32.738  -9.764 -23.998  0.00  0.00    -0.166 F 
ATOM     21  C   UNL     1      33.552 -10.704 -23.436  0.00  0.00    +0.419 C 
ENDBRANCH  13  21
ENDBRANCH   5  12
BRANCH   6  22
ATOM     22  C   UNL     1      36.073 -21.466 -19.514  0.00  0.00    +0.056 C 
BRANCH  22  23
ATOM     23  C   UNL     1      34.770 -21.890 -18.836  0.00  0.00    +0.093 C 
BRANCH  23  25
ATOM     24  S   UNL     1      35.795 -23.518 -14.614  0.00  0.00    -0.101 S 
ATOM     25  N   UNL     1      35.020 -22.401 -17.522  0.00  0.00    -0.320 N 
ATOM     26  N   UNL     1      32.709 -22.729 -17.056  0.00  0.00    -0.233 NA
ATOM     27  N   UNL     1      31.927 -23.621 -14.947  0.00  0.00    -0.247 NA
ATOM     28  C   UNL     1      33.992 -22.812 -16.653  0.00  0.00    +0.118 C 
ATOM     29  C   UNL     1      34.276 -23.303 -15.384  0.00  0.00    +0.145 C 
ATOM     30  C   UNL     1      33.227 -23.698 -14.555  0.00  0.00    +0.073 C 
ATOM     31  C   UNL     1      33.694 -24.174 -13.294  0.00  0.00    +0.022 C 
ATOM     32  C   UNL     1      35.066 -24.130 -13.195  0.00  0.00    +0.033 C 
ATOM     33  C   UNL     1      31.764 -23.135 -16.187  0.00  0.00    +0.251 C 
ATOM     34  H   UNL     1      35.951 -22.467 -17.213  0.00  0.00    +0.148 HD
ENDBRANCH  23  25
ENDBRANCH  22  23
ENDBRANCH   6  22
TORSDOF 5
ENDMDL
MODEL 9
REMARK VINA RESULT:     -11.1      6.098     12.824
REMARK  Name = 24880024
REMARK  5 active torsions:
REMARK  status: ('A' for Active; 'I' for Inactive)
REMARK    1  A    between atoms: N_5  and  C_12
REMARK    2  A    between atoms: C_6  and  C_22
REMARK    3  A    between atoms: C_13  and  C_21
REMARK    4  A    between atoms: C_22  and  C_23
REMARK    5  A    between atoms: C_23  and  N_25
REMARK                            x       y       z     vdW  Elec       q    Type
REMARK                         _______ _______ _______ _____ _____    ______ ____
ROOT
ATOM      1  S   UNL     1      34.485 -19.780 -21.056  0.00  0.00    -0.056 S 
ATOM      2  O   UNL     1      35.915 -15.609 -22.590  0.00  0.00    -0.252 OA
ATOM      3  N   UNL     1      36.460 -18.112 -21.030  0.00  0.00    -0.223 NA
ATOM      4  N   UNL     1      34.498 -17.454 -22.264  0.00  0.00    -0.248 N 
ATOM      5  N   UNL     1      33.780 -15.638 -23.543  0.00  0.00    -0.268 N 
ATOM      6  C   UNL     1      35.898 -20.222 -20.189  0.00  0.00    +0.031 C 
ATOM      7  C   UNL     1      36.834 -19.214 -20.287  0.00  0.00    +0.103 C 
ATOM      8  C   UNL     1      35.241 -18.300 -21.484  0.00  0.00    +0.166 C 
ATOM      9  C   UNL     1      34.839 -16.164 -22.786  0.00  0.00    +0.310 C 
ATOM     10  H   UNL     1      33.599 -17.779 -22.501  0.00  0.00    +0.158 HD
ATOM     11  H   UNL     1      32.976 -16.202 -23.612  0.00  0.00    +0.156 HD
ENDROOT
BRANCH   5  12
ATOM     12  C   UNL     1      33.726 -14.397 -24.220  0.00  0.00    +0.052 C 
ATOM     13  C   UNL     1      33.613 -11.984 -24.161  0.00  0.00    +0.073 C 
ATOM     14  C   UNL     1      33.665 -13.207 -23.494  0.00  0.00    +0.019 C 
ATOM     15  C   UNL     1      33.734 -14.362 -25.614  0.00  0.00    +0.015 C 
ATOM     16  C   UNL     1      33.621 -11.950 -25.556  0.00  0.00    +0.004 C 
ATOM     17  C   UNL     1      33.682 -13.139 -26.282  0.00  0.00    +0.001 C 
BRANCH  13  21
ATOM     18  F   UNL     1      34.750 -10.076 -23.274  0.00  0.00    -0.166 F 
ATOM     19  F   UNL     1      32.703  -9.784 -23.927  0.00  0.00    -0.166 F 
ATOM     20  F   UNL     1      33.112 -10.899 -22.106  0.00  0.00    -0.166 F 
ATOM     21  C   UNL     1      33.548 -10.712 -23.385  0.00  0.00    +0.419 C 
ENDBRANCH  13  21
ENDBRANCH   5  12
BRANCH   6  22
ATOM     22  C   UNL     1      35.973 -21.546 -19.468  0.00  0.00    +0.056 C 
BRANCH  22  23
ATOM     23  C   UNL     1      36.479 -21.418 -18.032  0.00  0.00    +0.093 C 
BRANCH  23  25
ATOM     24  S   UNL     1      33.324 -23.279 -15.184  0.00  0.00    -0.101 S 
ATOM     25  N   UNL     1      35.556 -22.008 -17.109  0.00  0.00    -0.320 N 
ATOM     26  N   UNL     1      37.261 -22.586 -15.552  0.00  0.00    -0.233 NA
ATOM     27  N   UNL     1      36.781 -23.715 -13.467  0.00  0.00    -0.247 NA
ATOM     28  C   UNL     1      35.956 -22.582 -15.888  0.00  0.00    +0.118 C 
ATOM     29  C   UNL     1      35.027 -23.144 -15.020  0.00  0.00    +0.145 C 
ATOM     30  C   UNL     1      35.468 -23.702 -13.821  0.00  0.00    +0.073 C 
ATOM     31  C   UNL     1      34.389 -24.233 -13.052  0.00  0.00    +0.022 C 
ATOM     32  C   UNL     1      33.174 -24.069 -13.676  0.00  0.00    +0.033 C 
ATOM     33  C   UNL     1      37.591 -23.147 -14.374  0.00  0.00    +0.251 C 
ATOM     34  H   UNL     1      34.600 -22.013 -17.341  0.00  0.00    +0.148 HD
ENDBRANCH  23  25
ENDBRANCH  22  23
ENDBRANCH   6  22
TORSDOF 5
ENDMDL
