MODEL 1
REMARK VINA RESULT:     -13.2      0.000      0.000
REMARK  Name = 115237
REMARK  5 active torsions:
REMARK  status: ('A' for Active; 'I' for Inactive)
REMARK    1  A    between atoms: N_1  and  C_18
REMARK    2  A    between atoms: C_2  and  C_11
REMARK    3  A    between atoms: C_18  and  C_19
REMARK    4  A    between atoms: C_19  and  C_23
REMARK    5  A    between atoms: C_25  and  O_32
REMARK                            x       y       z     vdW  Elec       q    Type
REMARK                         _______ _______ _______ _____ _____    ______ ____
ROOT
ATOM      1  N   UNL     1      35.670 -19.414 -20.166  0.00  0.00    +0.387 N 
ATOM      2  C   UNL     1      35.158 -18.272 -22.818  0.00  0.00    +0.039 C 
ATOM      3  C   UNL     1      34.100 -19.080 -22.050  0.00  0.00    -0.017 C 
ATOM      4  C   UNL     1      36.159 -17.650 -21.830  0.00  0.00    -0.017 C 
ATOM      5  C   UNL     1      34.752 -20.085 -21.098  0.00  0.00    -0.077 C 
ATOM      6  C   UNL     1      36.737 -18.707 -20.887  0.00  0.00    -0.077 C 
ATOM      7  H   UNL     1      35.134 -18.723 -19.640  0.00  0.00    -0.080 HD
ENDROOT
BRANCH   2  11
ATOM      8  F   UNL     1      33.428 -11.903 -24.110  0.00  0.00    -0.204 F 
ATOM      9  O   UNL     1      33.601 -16.493 -25.538  0.00  0.00    -0.354 OA
ATOM     10  N   UNL     1      34.083 -17.649 -24.936  0.00  0.00    -0.081 NA
ATOM     11  C   UNL     1      34.548 -17.252 -23.753  0.00  0.00    +0.100 A 
ATOM     12  C   UNL     1      34.398 -15.874 -23.538  0.00  0.00    +0.054 A 
ATOM     13  C   UNL     1      33.791 -15.435 -24.702  0.00  0.00    +0.179 A 
ATOM     14  C   UNL     1      34.690 -14.944 -22.529  0.00  0.00    +0.007 C 
ATOM     15  C   UNL     1      33.441 -14.112 -24.952  0.00  0.00    +0.070 C 
ATOM     16  C   UNL     1      34.350 -13.602 -22.748  0.00  0.00    +0.030 C 
ATOM     17  C   UNL     1      33.737 -13.196 -23.938  0.00  0.00    +0.143 C 
ENDBRANCH   2  11
BRANCH   1  18
ATOM     18  C   UNL     1      36.240 -20.380 -19.227  0.00  0.00    -0.076 C 
BRANCH  18  19
ATOM     19  C   UNL     1      35.507 -21.709 -19.342  0.00  0.00    -0.007 C 
BRANCH  19  23
ATOM     20  O   UNL     1      32.801 -22.127 -18.840  0.00  0.00    -0.274 OA
ATOM     21  N   UNL     1      33.103 -22.900 -16.663  0.00  0.00    -0.235 N 
ATOM     22  N   UNL     1      35.269 -22.855 -15.711  0.00  0.00    -0.397 NA
ATOM     23  C   UNL     1      35.012 -22.165 -17.999  0.00  0.00    +0.123 C 
ATOM     24  C   UNL     1      31.661 -23.100 -16.505  0.00  0.00    +0.100 C 
ATOM     25  C   UNL     1      33.477 -23.642 -14.299  0.00  0.00    +0.177 C 
ATOM     26  C   UNL     1      31.277 -24.021 -15.362  0.00  0.00    +0.025 C 
ATOM     27  C   UNL     1      31.976 -23.549 -14.106  0.00  0.00    +0.040 C 
ATOM     28  C   UNL     1      33.995 -23.080 -15.619  0.00  0.00    +0.192 C 
ATOM     29  C   UNL     1      33.538 -22.395 -17.892  0.00  0.00    +0.237 C 
ATOM     30  C   UNL     1      35.765 -22.398 -16.907  0.00  0.00    +0.097 C 
ATOM     31  C   UNL     1      37.252 -22.162 -16.871  0.00  0.00    +0.062 C 
BRANCH  25  32
ATOM     32  O   UNL     1      34.119 -22.951 -13.237  0.00  0.00    -0.376 OA
ATOM     33  H   UNL     1      33.876 -23.358 -12.392  0.00  0.00    +0.211 HD
ENDBRANCH  25  32
ENDBRANCH  19  23
ENDBRANCH  18  19
ENDBRANCH   1  18
TORSDOF 5
ENDMDL
MODEL 2
REMARK VINA RESULT:     -13.2      4.699     10.635
REMARK  Name = 115237
REMARK  5 active torsions:
REMARK  status: ('A' for Active; 'I' for Inactive)
REMARK    1  A    between atoms: N_1  and  C_18
REMARK    2  A    between atoms: C_2  and  C_11
REMARK    3  A    between atoms: C_18  and  C_19
REMARK    4  A    between atoms: C_19  and  C_23
REMARK    5  A    between atoms: C_25  and  O_32
REMARK                            x       y       z     vdW  Elec       q    Type
REMARK                         _______ _______ _______ _____ _____    ______ ____
ROOT
ATOM      1  N   UNL     1      34.363 -15.171 -22.631  0.00  0.00    +0.387 N 
ATOM      2  C   UNL     1      35.942 -17.313 -21.399  0.00  0.00    +0.039 C 
ATOM      3  C   UNL     1      35.154 -16.287 -20.569  0.00  0.00    -0.017 C 
ATOM      4  C   UNL     1      35.311 -17.451 -22.795  0.00  0.00    -0.017 C 
ATOM      5  C   UNL     1      35.000 -14.964 -21.323  0.00  0.00    -0.077 C 
ATOM      6  C   UNL     1      35.151 -16.086 -23.468  0.00  0.00    -0.077 C 
ATOM      7  H   UNL     1      33.450 -15.598 -22.473  0.00  0.00    -0.080 HD
ENDROOT
BRANCH   2  11
ATOM      8  F   UNL     1      33.133 -22.780 -18.669  0.00  0.00    -0.204 F 
ATOM      9  O   UNL     1      37.109 -20.308 -19.771  0.00  0.00    -0.354 OA
ATOM     10  N   UNL     1      37.315 -19.087 -20.402  0.00  0.00    -0.081 NA
ATOM     11  C   UNL     1      36.094 -18.642 -20.693  0.00  0.00    +0.100 A 
ATOM     12  C   UNL     1      35.078 -19.516 -20.283  0.00  0.00    +0.054 A 
ATOM     13  C   UNL     1      35.774 -20.562 -19.702  0.00  0.00    +0.179 A 
ATOM     14  C   UNL     1      33.676 -19.569 -20.323  0.00  0.00    +0.007 C 
ATOM     15  C   UNL     1      35.175 -21.687 -19.142  0.00  0.00    +0.070 C 
ATOM     16  C   UNL     1      33.040 -20.688 -19.768  0.00  0.00    +0.030 C 
ATOM     17  C   UNL     1      33.778 -21.726 -19.189  0.00  0.00    +0.143 C 
ENDBRANCH   2  11
BRANCH   1  18
ATOM     18  C   UNL     1      34.170 -13.891 -23.314  0.00  0.00    -0.076 C 
BRANCH  18  19
ATOM     19  C   UNL     1      32.720 -13.447 -23.183  0.00  0.00    -0.007 C 
BRANCH  19  23
ATOM     20  O   UNL     1      33.351 -10.929 -24.186  0.00  0.00    -0.274 OA
ATOM     21  N   UNL     1      32.751  -9.772 -22.255  0.00  0.00    -0.235 N 
ATOM     22  N   UNL     1      32.117 -10.990 -20.328  0.00  0.00    -0.397 NA
ATOM     23  C   UNL     1      32.613 -12.210 -22.340  0.00  0.00    +0.123 C 
ATOM     24  C   UNL     1      33.097  -8.493 -22.880  0.00  0.00    +0.100 C 
ATOM     25  C   UNL     1      32.173  -8.586 -20.124  0.00  0.00    +0.177 C 
ATOM     26  C   UNL     1      32.498  -7.279 -22.197  0.00  0.00    +0.025 C 
ATOM     27  C   UNL     1      32.816  -7.349 -20.719  0.00  0.00    +0.040 C 
ATOM     28  C   UNL     1      32.373  -9.868 -20.926  0.00  0.00    +0.192 C 
ATOM     29  C   UNL     1      32.937 -10.922 -23.027  0.00  0.00    +0.237 C 
ATOM     30  C   UNL     1      32.240 -12.154 -21.046  0.00  0.00    +0.097 C 
ATOM     31  C   UNL     1      31.932 -13.381 -20.229  0.00  0.00    +0.062 C 
BRANCH  25  32
ATOM     32  O   UNL     1      32.696  -8.790 -18.819  0.00  0.00    -0.376 OA
ATOM     33  H   UNL     1      33.380  -8.128 -18.637  0.00  0.00    +0.211 HD
ENDBRANCH  25  32
ENDBRANCH  19  23
ENDBRANCH  18  19
ENDBRANCH   1  18
TORSDOF 5
ENDMDL
MODEL 3
REMARK VINA RESULT:     -13.0      3.458     10.459
REMARK  Name = 115237
REMARK  5 active torsions:
REMARK  status: ('A' for Active; 'I' for Inactive)
REMARK    1  A    between atoms: N_1  and  C_18
REMARK    2  A    between atoms: C_2  and  C_11
REMARK    3  A    between atoms: C_18  and  C_19
REMARK    4  A    between atoms: C_19  and  C_23
REMARK    5  A    between atoms: C_25  and  O_32
REMARK                            x       y       z     vdW  Elec       q    Type
REMARK                         _______ _______ _______ _____ _____    ______ ____
ROOT
ATOM      1  N   UNL     1      34.545 -20.480 -19.800  0.00  0.00    +0.387 N 
ATOM      2  C   UNL     1      34.255 -22.603 -17.797  0.00  0.00    +0.039 C 
ATOM      3  C   UNL     1      35.591 -21.887 -18.053  0.00  0.00    -0.017 C 
ATOM      4  C   UNL     1      33.087 -21.692 -18.210  0.00  0.00    -0.017 C 
ATOM      5  C   UNL     1      35.675 -21.367 -19.489  0.00  0.00    -0.077 C 
ATOM      6  C   UNL     1      33.262 -21.179 -19.640  0.00  0.00    -0.077 C 
ATOM      7  H   UNL     1      34.564 -19.703 -19.139  0.00  0.00    -0.080 HD
ENDROOT
BRANCH   2  11
ATOM      8  F   UNL     1      30.375 -24.173 -12.533  0.00  0.00    -0.204 F 
ATOM      9  O   UNL     1      34.769 -23.876 -14.466  0.00  0.00    -0.354 OA
ATOM     10  N   UNL     1      35.224 -23.461 -15.711  0.00  0.00    -0.081 NA
ATOM     11  C   UNL     1      34.127 -23.111 -16.379  0.00  0.00    +0.100 A 
ATOM     12  C   UNL     1      32.953 -23.275 -15.630  0.00  0.00    +0.054 A 
ATOM     13  C   UNL     1      33.413 -23.764 -14.420  0.00  0.00    +0.179 A 
ATOM     14  C   UNL     1      31.574 -23.080 -15.806  0.00  0.00    +0.007 C 
ATOM     15  C   UNL     1      32.595 -24.085 -13.341  0.00  0.00    +0.070 C 
ATOM     16  C   UNL     1      30.720 -23.392 -14.738  0.00  0.00    +0.030 C 
ATOM     17  C   UNL     1      31.224 -23.885 -13.530  0.00  0.00    +0.143 C 
ENDBRANCH   2  11
BRANCH   1  18
ATOM     18  C   UNL     1      34.671 -19.946 -21.156  0.00  0.00    -0.076 C 
BRANCH  18  19
ATOM     19  C   UNL     1      35.591 -18.733 -21.151  0.00  0.00    -0.007 C 
BRANCH  19  23
ATOM     20  O   UNL     1      35.215 -16.124 -20.257  0.00  0.00    -0.274 OA
ATOM     21  N   UNL     1      34.544 -15.283 -22.323  0.00  0.00    -0.235 N 
ATOM     22  N   UNL     1      34.249 -16.774 -24.137  0.00  0.00    -0.397 NA
ATOM     23  C   UNL     1      35.060 -17.656 -22.052  0.00  0.00    +0.123 C 
ATOM     24  C   UNL     1      34.392 -13.940 -21.759  0.00  0.00    +0.100 C 
ATOM     25  C   UNL     1      33.744 -14.451 -24.548  0.00  0.00    +0.177 C 
ATOM     26  C   UNL     1      34.361 -12.827 -22.788  0.00  0.00    +0.025 C 
ATOM     27  C   UNL     1      33.333 -13.172 -23.844  0.00  0.00    +0.040 C 
ATOM     28  C   UNL     1      34.182 -15.584 -23.626  0.00  0.00    +0.192 C 
ATOM     29  C   UNL     1      34.958 -16.291 -21.448  0.00  0.00    +0.237 C 
ATOM     30  C   UNL     1      34.690 -17.802 -23.340  0.00  0.00    +0.097 C 
ATOM     31  C   UNL     1      34.702 -19.129 -24.051  0.00  0.00    +0.062 C 
BRANCH  25  32
ATOM     32  O   UNL     1      32.654 -14.910 -25.334  0.00  0.00    -0.376 OA
ATOM     33  H   UNL     1      32.047 -14.175 -25.506  0.00  0.00    +0.211 HD
ENDBRANCH  25  32
ENDBRANCH  19  23
ENDBRANCH  18  19
ENDBRANCH   1  18
TORSDOF 5
ENDMDL
MODEL 4
REMARK VINA RESULT:     -13.0      4.431     10.609
REMARK  Name = 115237
REMARK  5 active torsions:
REMARK  status: ('A' for Active; 'I' for Inactive)
REMARK    1  A    between atoms: N_1  and  C_18
REMARK    2  A    between atoms: C_2  and  C_11
REMARK    3  A    between atoms: C_18  and  C_19
REMARK    4  A    between atoms: C_19  and  C_23
REMARK    5  A    between atoms: C_25  and  O_32
REMARK                            x       y       z     vdW  Elec       q    Type
REMARK                         _______ _______ _______ _____ _____    ______ ____
ROOT
ATOM      1  N   UNL     1      35.282 -15.451 -22.926  0.00  0.00    +0.387 N 
ATOM      2  C   UNL     1      34.916 -17.868 -21.305  0.00  0.00    +0.039 C 
ATOM      3  C   UNL     1      35.383 -17.919 -22.769  0.00  0.00    -0.017 C 
ATOM      4  C   UNL     1      35.281 -16.507 -20.688  0.00  0.00    -0.017 C 
ATOM      5  C   UNL     1      34.869 -16.712 -23.558  0.00  0.00    -0.077 C 
ATOM      6  C   UNL     1      34.771 -15.352 -21.553  0.00  0.00    -0.077 C 
ATOM      7  H   UNL     1      36.302 -15.440 -22.884  0.00  0.00    -0.080 HD
ENDROOT
BRANCH   2  11
ATOM      8  F   UNL     1      33.679 -23.533 -17.900  0.00  0.00    -0.204 F 
ATOM      9  O   UNL     1      36.861 -20.290 -19.479  0.00  0.00    -0.354 OA
ATOM     10  N   UNL     1      36.728 -19.131 -20.234  0.00  0.00    -0.081 NA
ATOM     11  C   UNL     1      35.425 -19.034 -20.489  0.00  0.00    +0.100 A 
ATOM     12  C   UNL     1      34.678 -20.083 -19.934  0.00  0.00    +0.054 A 
ATOM     13  C   UNL     1      35.635 -20.857 -19.302  0.00  0.00    +0.179 A 
ATOM     14  C   UNL     1      33.334 -20.484 -19.881  0.00  0.00    +0.007 C 
ATOM     15  C   UNL     1      35.361 -22.028 -18.602  0.00  0.00    +0.070 C 
ATOM     16  C   UNL     1      33.022 -21.659 -19.183  0.00  0.00    +0.030 C 
ATOM     17  C   UNL     1      34.019 -22.415 -18.557  0.00  0.00    +0.143 C 
ENDBRANCH   2  11
BRANCH   1  18
ATOM     18  C   UNL     1      34.833 -14.310 -23.723  0.00  0.00    -0.076 C 
BRANCH  18  19
ATOM     19  C   UNL     1      33.352 -14.058 -23.478  0.00  0.00    -0.007 C 
BRANCH  19  23
ATOM     20  O   UNL     1      32.143 -13.340 -21.076  0.00  0.00    -0.274 OA
ATOM     21  N   UNL     1      32.351 -11.043 -21.408  0.00  0.00    -0.235 N 
ATOM     22  N   UNL     1      33.194 -10.246 -23.471  0.00  0.00    -0.397 NA
ATOM     23  C   UNL     1      33.107 -12.622 -23.113  0.00  0.00    +0.123 C 
ATOM     24  C   UNL     1      31.717 -10.771 -20.116  0.00  0.00    +0.100 C 
ATOM     25  C   UNL     1      32.522  -8.583 -21.856  0.00  0.00    +0.177 C 
ATOM     26  C   UNL     1      31.959  -9.373 -19.581  0.00  0.00    +0.025 C 
ATOM     27  C   UNL     1      31.610  -8.374 -20.663  0.00  0.00    +0.040 C 
ATOM     28  C   UNL     1      32.686 -10.035 -22.297  0.00  0.00    +0.192 C 
ATOM     29  C   UNL     1      32.494 -12.386 -21.769  0.00  0.00    +0.237 C 
ATOM     30  C   UNL     1      33.400 -11.544 -23.867  0.00  0.00    +0.097 C 
ATOM     31  C   UNL     1      33.976 -11.648 -25.255  0.00  0.00    +0.062 C 
BRANCH  25  32
ATOM     32  O   UNL     1      32.015  -7.839 -22.955  0.00  0.00    -0.376 OA
ATOM     33  H   UNL     1      31.261  -8.308 -23.343  0.00  0.00    +0.211 HD
ENDBRANCH  25  32
ENDBRANCH  19  23
ENDBRANCH  18  19
ENDBRANCH   1  18
TORSDOF 5
ENDMDL
MODEL 5
REMARK VINA RESULT:     -13.0      2.415      4.120
REMARK  Name = 115237
REMARK  5 active torsions:
REMARK  status: ('A' for Active; 'I' for Inactive)
REMARK    1  A    between atoms: N_1  and  C_18
REMARK    2  A    between atoms: C_2  and  C_11
REMARK    3  A    between atoms: C_18  and  C_19
REMARK    4  A    between atoms: C_19  and  C_23
REMARK    5  A    between atoms: C_25  and  O_32
REMARK                            x       y       z     vdW  Elec       q    Type
REMARK                         _______ _______ _______ _____ _____    ______ ____
ROOT
ATOM      1  N   UNL     1      34.327 -21.870 -18.257  0.00  0.00    +0.387 N 
ATOM      2  C   UNL     1      34.773 -20.042 -20.508  0.00  0.00    +0.039 C 
ATOM      3  C   UNL     1      33.422 -20.142 -19.781  0.00  0.00    -0.017 C 
ATOM      4  C   UNL     1      35.906 -20.485 -19.567  0.00  0.00    -0.017 C 
ATOM      5  C   UNL     1      33.224 -21.530 -19.167  0.00  0.00    -0.077 C 
ATOM      6  C   UNL     1      35.618 -21.860 -18.960  0.00  0.00    -0.077 C 
ATOM      7  H   UNL     1      34.362 -21.159 -17.526  0.00  0.00    -0.080 HD
ENDROOT
BRANCH   2  11
ATOM      8  F   UNL     1      34.243 -15.831 -25.724  0.00  0.00    -0.204 F 
ATOM      9  O   UNL     1      35.677 -16.624 -21.202  0.00  0.00    -0.354 OA
ATOM     10  N   UNL     1      35.609 -17.738 -20.374  0.00  0.00    -0.081 NA
ATOM     11  C   UNL     1      35.014 -18.676 -21.109  0.00  0.00    +0.100 A 
ATOM     12  C   UNL     1      34.680 -18.235 -22.397  0.00  0.00    +0.054 A 
ATOM     13  C   UNL     1      35.122 -16.923 -22.409  0.00  0.00    +0.179 A 
ATOM     14  C   UNL     1      34.069 -18.758 -23.547  0.00  0.00    +0.007 C 
ATOM     15  C   UNL     1      35.003 -16.065 -23.498  0.00  0.00    +0.070 C 
ATOM     16  C   UNL     1      33.933 -17.921 -24.663  0.00  0.00    +0.030 C 
ATOM     17  C   UNL     1      34.392 -16.600 -24.636  0.00  0.00    +0.143 C 
ENDBRANCH   2  11
BRANCH   1  18
ATOM     18  C   UNL     1      34.093 -23.173 -17.635  0.00  0.00    -0.076 C 
BRANCH  18  19
ATOM     19  C   UNL     1      33.048 -23.042 -16.536  0.00  0.00    -0.007 C 
BRANCH  19  23
ATOM     20  O   UNL     1      35.783 -22.844 -16.060  0.00  0.00    -0.274 OA
ATOM     21  N   UNL     1      35.645 -23.366 -13.794  0.00  0.00    -0.235 N 
ATOM     22  N   UNL     1      33.558 -24.004 -12.880  0.00  0.00    -0.397 NA
ATOM     23  C   UNL     1      33.643 -23.353 -15.193  0.00  0.00    +0.123 C 
ATOM     24  C   UNL     1      37.095 -23.222 -13.643  0.00  0.00    +0.100 C 
ATOM     25  C   UNL     1      35.449 -24.019 -11.382  0.00  0.00    +0.177 C 
ATOM     26  C   UNL     1      37.563 -23.039 -12.212  0.00  0.00    +0.025 C 
ATOM     27  C   UNL     1      36.961 -24.138 -11.363  0.00  0.00    +0.040 C 
ATOM     28  C   UNL     1      34.835 -23.810 -12.762  0.00  0.00    +0.192 C 
ATOM     29  C   UNL     1      35.120 -23.155 -15.071  0.00  0.00    +0.237 C 
ATOM     30  C   UNL     1      32.974 -23.772 -14.101  0.00  0.00    +0.097 C 
ATOM     31  C   UNL     1      31.494 -24.053 -14.104  0.00  0.00    +0.062 C 
BRANCH  25  32
ATOM     32  O   UNL     1      34.891 -25.197 -10.818  0.00  0.00    -0.376 OA
ATOM     33  H   UNL     1      33.982 -25.020 -10.533  0.00  0.00    +0.211 HD
ENDBRANCH  25  32
ENDBRANCH  19  23
ENDBRANCH  18  19
ENDBRANCH   1  18
TORSDOF 5
ENDMDL
MODEL 6
REMARK VINA RESULT:     -12.7      3.464     10.460
REMARK  Name = 115237
REMARK  5 active torsions:
REMARK  status: ('A' for Active; 'I' for Inactive)
REMARK    1  A    between atoms: N_1  and  C_18
REMARK    2  A    between atoms: C_2  and  C_11
REMARK    3  A    between atoms: C_18  and  C_19
REMARK    4  A    between atoms: C_19  and  C_23
REMARK    5  A    between atoms: C_25  and  O_32
REMARK                            x       y       z     vdW  Elec       q    Type
REMARK                         _______ _______ _______ _____ _____    ______ ____
ROOT
ATOM      1  N   UNL     1      35.724 -18.627 -20.816  0.00  0.00    +0.387 N 
ATOM      2  C   UNL     1      35.244 -21.205 -19.500  0.00  0.00    +0.039 C 
ATOM      3  C   UNL     1      36.499 -20.360 -19.228  0.00  0.00    -0.017 C 
ATOM      4  C   UNL     1      34.099 -20.298 -19.983  0.00  0.00    -0.017 C 
ATOM      5  C   UNL     1      36.853 -19.487 -20.434  0.00  0.00    -0.077 C 
ATOM      6  C   UNL     1      34.540 -19.427 -21.161  0.00  0.00    -0.077 C 
ATOM      7  H   UNL     1      35.486 -18.045 -20.013  0.00  0.00    -0.080 HD
ENDROOT
BRANCH   2  11
ATOM      8  F   UNL     1      36.610 -23.604 -13.369  0.00  0.00    -0.204 F 
ATOM      9  O   UNL     1      33.641 -23.412 -17.147  0.00  0.00    -0.354 OA
ATOM     10  N   UNL     1      33.702 -22.737 -18.360  0.00  0.00    -0.081 NA
ATOM     11  C   UNL     1      34.851 -22.065 -18.321  0.00  0.00    +0.100 A 
ATOM     12  C   UNL     1      35.562 -22.262 -17.129  0.00  0.00    +0.054 A 
ATOM     13  C   UNL     1      34.752 -23.127 -16.414  0.00  0.00    +0.179 A 
ATOM     14  C   UNL     1      36.770 -21.832 -16.559  0.00  0.00    +0.007 C 
ATOM     15  C   UNL     1      35.051 -23.613 -15.145  0.00  0.00    +0.070 C 
ATOM     16  C   UNL     1      37.103 -22.303 -15.281  0.00  0.00    +0.030 C 
ATOM     17  C   UNL     1      36.257 -23.176 -14.589  0.00  0.00    +0.143 C 
ENDBRANCH   2  11
BRANCH   1  18
ATOM     18  C   UNL     1      36.097 -17.759 -21.932  0.00  0.00    -0.076 C 
BRANCH  18  19
ATOM     19  C   UNL     1      34.904 -17.561 -22.857  0.00  0.00    -0.007 C 
BRANCH  19  23
ATOM     20  O   UNL     1      34.429 -16.536 -25.400  0.00  0.00    -0.274 OA
ATOM     21  N   UNL     1      34.025 -14.356 -24.681  0.00  0.00    -0.235 N 
ATOM     22  N   UNL     1      34.334 -13.817 -22.398  0.00  0.00    -0.397 NA
ATOM     23  C   UNL     1      34.640 -16.101 -23.085  0.00  0.00    +0.123 C 
ATOM     24  C   UNL     1      33.777 -13.919 -26.057  0.00  0.00    +0.100 C 
ATOM     25  C   UNL     1      33.686 -12.012 -23.862  0.00  0.00    +0.177 C 
ATOM     26  C   UNL     1      33.029 -12.604 -26.172  0.00  0.00    +0.025 C 
ATOM     27  C   UNL     1      33.729 -11.573 -25.313  0.00  0.00    +0.040 C 
ATOM     28  C   UNL     1      34.060 -13.470 -23.617  0.00  0.00    +0.192 C 
ATOM     29  C   UNL     1      34.353 -15.702 -24.498  0.00  0.00    +0.237 C 
ATOM     30  C   UNL     1      34.623 -15.135 -22.145  0.00  0.00    +0.097 C 
ATOM     31  C   UNL     1      34.940 -15.397 -20.696  0.00  0.00    +0.062 C 
BRANCH  25  32
ATOM     32  O   UNL     1      34.569 -11.192 -23.110  0.00  0.00    -0.376 OA
ATOM     33  H   UNL     1      35.463 -11.567 -23.141  0.00  0.00    +0.211 HD
ENDBRANCH  25  32
ENDBRANCH  19  23
ENDBRANCH  18  19
ENDBRANCH   1  18
TORSDOF 5
ENDMDL
MODEL 7
REMARK VINA RESULT:     -12.6      3.332     10.364
REMARK  Name = 115237
REMARK  5 active torsions:
REMARK  status: ('A' for Active; 'I' for Inactive)
REMARK    1  A    between atoms: N_1  and  C_18
REMARK    2  A    between atoms: C_2  and  C_11
REMARK    3  A    between atoms: C_18  and  C_19
REMARK    4  A    between atoms: C_19  and  C_23
REMARK    5  A    between atoms: C_25  and  O_32
REMARK                            x       y       z     vdW  Elec       q    Type
REMARK                         _______ _______ _______ _____ _____    ______ ____
ROOT
ATOM      1  N   UNL     1      35.963 -18.594 -20.999  0.00  0.00    +0.387 N 
ATOM      2  C   UNL     1      35.797 -21.054 -19.410  0.00  0.00    +0.039 C 
ATOM      3  C   UNL     1      37.014 -20.117 -19.355  0.00  0.00    -0.017 C 
ATOM      4  C   UNL     1      34.550 -20.265 -19.844  0.00  0.00    -0.017 C 
ATOM      5  C   UNL     1      37.181 -19.347 -20.667  0.00  0.00    -0.077 C 
ATOM      6  C   UNL     1      34.806 -19.489 -21.138  0.00  0.00    -0.077 C 
ATOM      7  H   UNL     1      35.772 -17.950 -20.231  0.00  0.00    -0.080 HD
ENDROOT
BRANCH   2  11
ATOM      8  F   UNL     1      31.622 -23.970 -15.018  0.00  0.00    -0.204 F 
ATOM      9  O   UNL     1      36.117 -22.824 -16.289  0.00  0.00    -0.354 OA
ATOM     10  N   UNL     1      36.643 -22.146 -17.382  0.00  0.00    -0.081 NA
ATOM     11  C   UNL     1      35.586 -21.815 -18.121  0.00  0.00    +0.100 A 
ATOM     12  C   UNL     1      34.372 -22.245 -17.567  0.00  0.00    +0.054 A 
ATOM     13  C   UNL     1      34.762 -22.882 -16.402  0.00  0.00    +0.179 A 
ATOM     14  C   UNL     1      33.007 -22.185 -17.888  0.00  0.00    +0.007 C 
ATOM     15  C   UNL     1      33.883 -23.482 -15.505  0.00  0.00    +0.070 C 
ATOM     16  C   UNL     1      32.094 -22.778 -17.005  0.00  0.00    +0.030 C 
ATOM     17  C   UNL     1      32.527 -23.414 -15.837  0.00  0.00    +0.143 C 
ENDBRANCH   2  11
BRANCH   1  18
ATOM     18  C   UNL     1      36.160 -17.819 -22.224  0.00  0.00    -0.076 C 
BRANCH  18  19
ATOM     19  C   UNL     1      34.821 -17.581 -22.908  0.00  0.00    -0.007 C 
BRANCH  19  23
ATOM     20  O   UNL     1      34.379 -16.536 -25.449  0.00  0.00    -0.274 OA
ATOM     21  N   UNL     1      34.014 -14.352 -24.723  0.00  0.00    -0.235 N 
ATOM     22  N   UNL     1      34.321 -13.829 -22.436  0.00  0.00    -0.397 NA
ATOM     23  C   UNL     1      34.587 -16.115 -23.131  0.00  0.00    +0.123 C 
ATOM     24  C   UNL     1      33.781 -13.904 -26.098  0.00  0.00    +0.100 C 
ATOM     25  C   UNL     1      33.716 -12.005 -23.896  0.00  0.00    +0.177 C 
ATOM     26  C   UNL     1      33.060 -12.575 -26.212  0.00  0.00    +0.025 C 
ATOM     27  C   UNL     1      33.776 -11.562 -25.345  0.00  0.00    +0.040 C 
ATOM     28  C   UNL     1      34.060 -13.472 -23.655  0.00  0.00    +0.192 C 
ATOM     29  C   UNL     1      34.314 -15.705 -24.544  0.00  0.00    +0.237 C 
ATOM     30  C   UNL     1      34.583 -15.153 -22.187  0.00  0.00    +0.097 C 
ATOM     31  C   UNL     1      34.887 -15.427 -20.738  0.00  0.00    +0.062 C 
BRANCH  25  32
ATOM     32  O   UNL     1      34.611 -11.206 -23.136  0.00  0.00    -0.376 OA
ATOM     33  H   UNL     1      34.139 -10.435 -22.787  0.00  0.00    +0.211 HD
ENDBRANCH  25  32
ENDBRANCH  19  23
ENDBRANCH  18  19
ENDBRANCH   1  18
TORSDOF 5
ENDMDL
MODEL 8
REMARK VINA RESULT:     -12.3      3.953     10.677
REMARK  Name = 115237
REMARK  5 active torsions:
REMARK  status: ('A' for Active; 'I' for Inactive)
REMARK    1  A    between atoms: N_1  and  C_18
REMARK    2  A    between atoms: C_2  and  C_11
REMARK    3  A    between atoms: C_18  and  C_19
REMARK    4  A    between atoms: C_19  and  C_23
REMARK    5  A    between atoms: C_25  and  O_32
REMARK                            x       y       z     vdW  Elec       q    Type
REMARK                         _______ _______ _______ _____ _____    ______ ____
ROOT
ATOM      1  N   UNL     1      34.708 -20.852 -19.236  0.00  0.00    +0.387 N 
ATOM      2  C   UNL     1      34.947 -22.776 -17.035  0.00  0.00    +0.039 C 
ATOM      3  C   UNL     1      35.993 -21.678 -17.289  0.00  0.00    -0.017 C 
ATOM      4  C   UNL     1      33.588 -22.345 -17.611  0.00  0.00    -0.017 C 
ATOM      5  C   UNL     1      36.033 -21.281 -18.766  0.00  0.00    -0.077 C 
ATOM      6  C   UNL     1      33.715 -21.923 -19.076  0.00  0.00    -0.077 C 
ATOM      7  H   UNL     1      34.412 -20.061 -18.663  0.00  0.00    -0.080 HD
ENDROOT
BRANCH   2  11
ATOM      8  F   UNL     1      37.968 -25.020 -11.462  0.00  0.00    -0.204 F 
ATOM      9  O   UNL     1      33.953 -23.538 -13.657  0.00  0.00    -0.354 OA
ATOM     10  N   UNL     1      33.691 -23.109 -14.952  0.00  0.00    -0.081 NA
ATOM     11  C   UNL     1      34.864 -23.178 -15.580  0.00  0.00    +0.100 A 
ATOM     12  C   UNL     1      35.902 -23.636 -14.756  0.00  0.00    +0.054 A 
ATOM     13  C   UNL     1      35.273 -23.852 -13.542  0.00  0.00    +0.179 A 
ATOM     14  C   UNL     1      37.276 -23.896 -14.867  0.00  0.00    +0.007 C 
ATOM     15  C   UNL     1      35.915 -24.316 -12.398  0.00  0.00    +0.070 C 
ATOM     16  C   UNL     1      37.955 -24.366 -13.734  0.00  0.00    +0.030 C 
ATOM     17  C   UNL     1      37.284 -24.570 -12.523  0.00  0.00    +0.143 C 
ENDBRANCH   2  11
BRANCH   1  18
ATOM     18  C   UNL     1      34.776 -20.421 -20.632  0.00  0.00    -0.076 C 
BRANCH  18  19
ATOM     19  C   UNL     1      35.786 -19.291 -20.777  0.00  0.00    -0.007 C 
BRANCH  19  23
ATOM     20  O   UNL     1      35.364 -16.676 -19.923  0.00  0.00    -0.274 OA
ATOM     21  N   UNL     1      34.743 -15.864 -22.017  0.00  0.00    -0.235 N 
ATOM     22  N   UNL     1      34.512 -17.378 -23.821  0.00  0.00    -0.397 NA
ATOM     23  C   UNL     1      35.272 -18.229 -21.705  0.00  0.00    +0.123 C 
ATOM     24  C   UNL     1      34.564 -14.516 -21.472  0.00  0.00    +0.100 C 
ATOM     25  C   UNL     1      34.000 -15.063 -24.272  0.00  0.00    +0.177 C 
ATOM     26  C   UNL     1      34.553 -13.414 -22.514  0.00  0.00    +0.025 C 
ATOM     27  C   UNL     1      33.559 -13.781 -23.594  0.00  0.00    +0.040 C 
ATOM     28  C   UNL     1      34.421 -16.183 -23.326  0.00  0.00    +0.192 C 
ATOM     29  C   UNL     1      35.141 -16.859 -21.119  0.00  0.00    +0.237 C 
ATOM     30  C   UNL     1      34.939 -18.392 -23.001  0.00  0.00    +0.097 C 
ATOM     31  C   UNL     1      34.983 -19.727 -23.695  0.00  0.00    +0.062 C 
BRANCH  25  32
ATOM     32  O   UNL     1      32.936 -15.541 -25.083  0.00  0.00    -0.376 OA
ATOM     33  H   UNL     1      32.268 -15.965 -24.524  0.00  0.00    +0.211 HD
ENDBRANCH  25  32
ENDBRANCH  19  23
ENDBRANCH  18  19
ENDBRANCH   1  18
TORSDOF 5
ENDMDL
MODEL 9
REMARK VINA RESULT:     -12.2      2.712      4.237
REMARK  Name = 115237
REMARK  5 active torsions:
REMARK  status: ('A' for Active; 'I' for Inactive)
REMARK    1  A    between atoms: N_1  and  C_18
REMARK    2  A    between atoms: C_2  and  C_11
REMARK    3  A    between atoms: C_18  and  C_19
REMARK    4  A    between atoms: C_19  and  C_23
REMARK    5  A    between atoms: C_25  and  O_32
REMARK                            x       y       z     vdW  Elec       q    Type
REMARK                         _______ _______ _______ _____ _____    ______ ____
ROOT
ATOM      1  N   UNL     1      35.420 -16.849 -22.838  0.00  0.00    +0.387 N 
ATOM      2  C   UNL     1      33.822 -14.389 -22.844  0.00  0.00    +0.039 C 
ATOM      3  C   UNL     1      34.857 -14.698 -21.750  0.00  0.00    -0.017 C 
ATOM      4  C   UNL     1      34.188 -15.140 -24.136  0.00  0.00    -0.017 C 
ATOM      5  C   UNL     1      35.041 -16.207 -21.571  0.00  0.00    -0.077 C 
ATOM      6  C   UNL     1      34.397 -16.632 -23.870  0.00  0.00    -0.077 C 
ATOM      7  H   UNL     1      36.288 -16.421 -23.160  0.00  0.00    -0.080 HD
ENDROOT
BRANCH   2  11
ATOM      8  F   UNL     1      31.194  -8.527 -20.856  0.00  0.00    -0.204 F 
ATOM      9  O   UNL     1      33.834 -10.989 -24.035  0.00  0.00    -0.354 OA
ATOM     10  N   UNL     1      34.195 -12.328 -24.123  0.00  0.00    -0.081 NA
ATOM     11  C   UNL     1      33.631 -12.906 -23.065  0.00  0.00    +0.100 A 
ATOM     12  C   UNL     1      32.905 -12.007 -22.270  0.00  0.00    +0.054 A 
ATOM     13  C   UNL     1      33.064 -10.800 -22.928  0.00  0.00    +0.179 A 
ATOM     14  C   UNL     1      32.142 -12.047 -21.093  0.00  0.00    +0.007 C 
ATOM     15  C   UNL     1      32.514  -9.596 -22.500  0.00  0.00    +0.070 C 
ATOM     16  C   UNL     1      31.571 -10.851 -20.635  0.00  0.00    +0.030 C 
ATOM     17  C   UNL     1      31.756  -9.650 -21.327  0.00  0.00    +0.143 C 
ENDBRANCH   2  11
BRANCH   1  18
ATOM     18  C   UNL     1      35.648 -18.280 -22.636  0.00  0.00    -0.076 C 
BRANCH  18  19
ATOM     19  C   UNL     1      34.438 -18.908 -21.960  0.00  0.00    -0.007 C 
BRANCH  19  23
ATOM     20  O   UNL     1      32.601 -20.373 -20.469  0.00  0.00    -0.274 OA
ATOM     21  N   UNL     1      34.180 -21.290 -19.022  0.00  0.00    -0.235 N 
ATOM     22  N   UNL     1      36.433 -20.582 -19.172  0.00  0.00    -0.397 NA
ATOM     23  C   UNL     1      34.852 -19.708 -20.758  0.00  0.00    +0.123 C 
ATOM     24  C   UNL     1      33.138 -22.035 -18.311  0.00  0.00    +0.100 C 
ATOM     25  C   UNL     1      35.910 -22.179 -17.441  0.00  0.00    +0.177 C 
ATOM     26  C   UNL     1      33.653 -23.190 -17.473  0.00  0.00    +0.025 C 
ATOM     27  C   UNL     1      34.765 -22.682 -16.582  0.00  0.00    +0.040 C 
ATOM     28  C   UNL     1      35.499 -21.276 -18.600  0.00  0.00    +0.192 C 
ATOM     29  C   UNL     1      33.764 -20.484 -20.085  0.00  0.00    +0.237 C 
ATOM     30  C   UNL     1      36.096 -19.802 -20.251  0.00  0.00    +0.097 C 
ATOM     31  C   UNL     1      37.268 -19.036 -20.807  0.00  0.00    +0.062 C 
BRANCH  25  32
ATOM     32  O   UNL     1      36.819 -21.463 -16.617  0.00  0.00    -0.376 OA
ATOM     33  H   UNL     1      37.503 -21.055 -17.170  0.00  0.00    +0.211 HD
ENDBRANCH  25  32
ENDBRANCH  19  23
ENDBRANCH  18  19
ENDBRANCH   1  18
TORSDOF 5
ENDMDL
