MODEL 1
REMARK VINA RESULT:     -12.5      0.000      0.000
REMARK  Name = 11610526
REMARK  3 active torsions:
REMARK  status: ('A' for Active; 'I' for Inactive)
REMARK    1  A    between atoms: C_2  and  C_21
REMARK    2  A    between atoms: C_9  and  C_14
REMARK    3  A    between atoms: C_21  and  C_23
REMARK                            x       y       z     vdW  Elec       q    Type
REMARK                         _______ _______ _______ _____ _____    ______ ____
ROOT
ATOM      1  N   UNL     1      35.003 -17.244 -22.134  0.00  0.00    -0.388 NA
ATOM      2  C   UNL     1      35.198 -18.565 -22.164  0.00  0.00    +0.167 C 
ATOM      3  C   UNL     1      34.880 -19.417 -23.186  0.00  0.00    +0.031 C 
ATOM      4  C   UNL     1      34.430 -16.727 -23.242  0.00  0.00    +0.167 C 
ATOM      5  C   UNL     1      34.292 -18.848 -24.310  0.00  0.00    -0.015 C 
ATOM      6  C   UNL     1      34.059 -17.477 -24.346  0.00  0.00    +0.101 C 
ATOM      7  O   UNL     1      33.207 -15.044 -25.401  0.00  0.00    -0.270 OA
ATOM      8  N   UNL     1      34.192 -15.348 -23.289  0.00  0.00    -0.259 N 
ATOM      9  C   UNL     1      33.615 -14.612 -24.328  0.00  0.00    +0.255 C 
ATOM     10  H   UNL     1      34.463 -14.835 -22.494  0.00  0.00    +0.157 HD
ENDROOT
BRANCH   9  14
ATOM     11  F   UNL     1      34.126 -12.738 -26.351  0.00  0.00    -0.204 F 
ATOM     12  F   UNL     1      32.916 -13.546 -21.829  0.00  0.00    -0.204 F 
ATOM     13  F   UNL     1      33.265  -9.111 -23.438  0.00  0.00    -0.204 F 
ATOM     14  C   UNL     1      33.521 -13.148 -24.091  0.00  0.00    +0.109 C 
ATOM     15  C   UNL     1      33.788 -12.286 -25.135  0.00  0.00    +0.149 C 
ATOM     16  C   UNL     1      33.172 -12.697 -22.835  0.00  0.00    +0.149 C 
ATOM     17  C   UNL     1      33.700 -10.912 -24.912  0.00  0.00    +0.060 C 
ATOM     18  C   UNL     1      33.085 -11.323 -22.613  0.00  0.00    +0.060 C 
ATOM     19  C   UNL     1      33.349 -10.430 -23.652  0.00  0.00    +0.145 C 
ENDBRANCH   9  14
BRANCH   2  21
ATOM     20  O   UNL     1      36.758 -18.523 -20.396  0.00  0.00    -0.289 OA
ATOM     21  C   UNL     1      35.829 -19.121 -20.934  0.00  0.00    +0.202 C 
BRANCH  21  23
ATOM     22  N   UNL     1      34.127 -21.810 -18.096  0.00  0.00    +0.386 N 
ATOM     23  C   UNL     1      35.316 -20.410 -20.371  0.00  0.00    +0.060 C 
ATOM     24  C   UNL     1      33.842 -20.255 -19.999  0.00  0.00    -0.015 C 
ATOM     25  C   UNL     1      36.134 -20.814 -19.146  0.00  0.00    -0.015 C 
ATOM     26  C   UNL     1      33.317 -21.501 -19.282  0.00  0.00    -0.077 C 
ATOM     27  C   UNL     1      35.532 -22.041 -18.459  0.00  0.00    -0.077 C 
ATOM     28  C   UNL     1      33.582 -22.971 -17.393  0.00  0.00    -0.101 C 
ATOM     29  H   UNL     1      34.092 -21.004 -17.472  0.00  0.00    -0.080 HD
ENDBRANCH  21  23
ENDBRANCH   2  21
TORSDOF 3
ENDMDL
MODEL 2
REMARK VINA RESULT:     -12.5      0.002      1.592
REMARK  Name = 11610526
REMARK  3 active torsions:
REMARK  status: ('A' for Active; 'I' for Inactive)
REMARK    1  A    between atoms: C_2  and  C_21
REMARK    2  A    between atoms: C_9  and  C_14
REMARK    3  A    between atoms: C_21  and  C_23
REMARK                            x       y       z     vdW  Elec       q    Type
REMARK                         _______ _______ _______ _____ _____    ______ ____
ROOT
ATOM      1  N   UNL     1      35.004 -17.243 -22.134  0.00  0.00    -0.388 NA
ATOM      2  C   UNL     1      35.198 -18.564 -22.164  0.00  0.00    +0.167 C 
ATOM      3  C   UNL     1      34.879 -19.416 -23.185  0.00  0.00    +0.031 C 
ATOM      4  C   UNL     1      34.429 -16.726 -23.242  0.00  0.00    +0.167 C 
ATOM      5  C   UNL     1      34.290 -18.847 -24.309  0.00  0.00    -0.015 C 
ATOM      6  C   UNL     1      34.058 -17.476 -24.346  0.00  0.00    +0.101 C 
ATOM      7  O   UNL     1      33.205 -15.043 -25.401  0.00  0.00    -0.270 OA
ATOM      8  N   UNL     1      34.192 -15.347 -23.290  0.00  0.00    -0.259 N 
ATOM      9  C   UNL     1      33.614 -14.611 -24.328  0.00  0.00    +0.255 C 
ATOM     10  H   UNL     1      34.464 -14.834 -22.495  0.00  0.00    +0.157 HD
ENDROOT
BRANCH   9  14
ATOM     11  F   UNL     1      32.914 -13.544 -21.831  0.00  0.00    -0.204 F 
ATOM     12  F   UNL     1      34.128 -12.737 -26.352  0.00  0.00    -0.204 F 
ATOM     13  F   UNL     1      33.265  -9.109 -23.441  0.00  0.00    -0.204 F 
ATOM     14  C   UNL     1      33.521 -13.147 -24.092  0.00  0.00    +0.109 C 
ATOM     15  C   UNL     1      33.171 -12.696 -22.836  0.00  0.00    +0.149 C 
ATOM     16  C   UNL     1      33.788 -12.286 -25.136  0.00  0.00    +0.149 C 
ATOM     17  C   UNL     1      33.083 -11.321 -22.615  0.00  0.00    +0.060 C 
ATOM     18  C   UNL     1      33.700 -10.911 -24.914  0.00  0.00    +0.060 C 
ATOM     19  C   UNL     1      33.348 -10.429 -23.654  0.00  0.00    +0.145 C 
ENDBRANCH   9  14
BRANCH   2  21
ATOM     20  O   UNL     1      36.759 -18.521 -20.396  0.00  0.00    -0.289 OA
ATOM     21  C   UNL     1      35.830 -19.119 -20.935  0.00  0.00    +0.202 C 
BRANCH  21  23
ATOM     22  N   UNL     1      34.130 -21.809 -18.096  0.00  0.00    +0.386 N 
ATOM     23  C   UNL     1      35.318 -20.409 -20.371  0.00  0.00    +0.060 C 
ATOM     24  C   UNL     1      33.843 -20.254 -19.999  0.00  0.00    -0.015 C 
ATOM     25  C   UNL     1      36.136 -20.812 -19.146  0.00  0.00    -0.015 C 
ATOM     26  C   UNL     1      33.320 -21.500 -19.281  0.00  0.00    -0.077 C 
ATOM     27  C   UNL     1      35.535 -22.040 -18.458  0.00  0.00    -0.077 C 
ATOM     28  C   UNL     1      33.585 -22.970 -17.392  0.00  0.00    -0.101 C 
ATOM     29  H   UNL     1      34.095 -21.002 -17.471  0.00  0.00    -0.080 HD
ENDBRANCH  21  23
ENDBRANCH   2  21
TORSDOF 3
ENDMDL
MODEL 3
REMARK VINA RESULT:     -12.5      0.415      1.033
REMARK  Name = 11610526
REMARK  3 active torsions:
REMARK  status: ('A' for Active; 'I' for Inactive)
REMARK    1  A    between atoms: C_2  and  C_21
REMARK    2  A    between atoms: C_9  and  C_14
REMARK    3  A    between atoms: C_21  and  C_23
REMARK                            x       y       z     vdW  Elec       q    Type
REMARK                         _______ _______ _______ _____ _____    ______ ____
ROOT
ATOM      1  N   UNL     1      35.297 -17.162 -22.170  0.00  0.00    -0.388 NA
ATOM      2  C   UNL     1      35.512 -18.480 -22.181  0.00  0.00    +0.167 C 
ATOM      3  C   UNL     1      35.083 -19.373 -23.123  0.00  0.00    +0.031 C 
ATOM      4  C   UNL     1      34.575 -16.694 -23.212  0.00  0.00    +0.167 C 
ATOM      5  C   UNL     1      34.344 -18.854 -24.181  0.00  0.00    -0.015 C 
ATOM      6  C   UNL     1      34.081 -17.489 -24.233  0.00  0.00    +0.101 C 
ATOM      7  O   UNL     1      33.050 -15.110 -25.251  0.00  0.00    -0.270 OA
ATOM      8  N   UNL     1      34.305 -15.321 -23.275  0.00  0.00    -0.259 N 
ATOM      9  C   UNL     1      33.584 -14.633 -24.255  0.00  0.00    +0.255 C 
ATOM     10  H   UNL     1      34.666 -14.776 -22.540  0.00  0.00    +0.157 HD
ENDROOT
BRANCH   9  14
ATOM     11  F   UNL     1      34.071 -12.815 -26.335  0.00  0.00    -0.204 F 
ATOM     12  F   UNL     1      32.912 -13.498 -21.779  0.00  0.00    -0.204 F 
ATOM     13  F   UNL     1      33.240  -9.109 -23.514  0.00  0.00    -0.204 F 
ATOM     14  C   UNL     1      33.492 -13.162 -24.058  0.00  0.00    +0.109 C 
ATOM     15  C   UNL     1      33.746 -12.330 -25.129  0.00  0.00    +0.149 C 
ATOM     16  C   UNL     1      33.157 -12.678 -22.811  0.00  0.00    +0.149 C 
ATOM     17  C   UNL     1      33.660 -10.950 -24.943  0.00  0.00    +0.060 C 
ATOM     18  C   UNL     1      33.071 -11.297 -22.626  0.00  0.00    +0.060 C 
ATOM     19  C   UNL     1      33.323 -10.434 -23.692  0.00  0.00    +0.145 C 
ENDBRANCH   9  14
BRANCH   2  21
ATOM     20  O   UNL     1      37.525 -18.817 -20.999  0.00  0.00    -0.289 OA
ATOM     21  C   UNL     1      36.308 -18.980 -21.025  0.00  0.00    +0.202 C 
BRANCH  21  23
ATOM     22  N   UNL     1      34.306 -22.120 -18.947  0.00  0.00    +0.386 N 
ATOM     23  C   UNL     1      35.603 -19.680 -19.905  0.00  0.00    +0.060 C 
ATOM     24  C   UNL     1      36.399 -20.919 -19.494  0.00  0.00    -0.015 C 
ATOM     25  C   UNL     1      34.190 -20.075 -20.334  0.00  0.00    -0.015 C 
ATOM     26  C   UNL     1      35.639 -21.747 -18.455  0.00  0.00    -0.077 C 
ATOM     27  C   UNL     1      33.506 -20.930 -19.266  0.00  0.00    -0.077 C 
ATOM     28  C   UNL     1      33.614 -22.954 -17.965  0.00  0.00    -0.101 C 
ATOM     29  H   UNL     1      34.426 -22.658 -19.806  0.00  0.00    -0.080 HD
ENDBRANCH  21  23
ENDBRANCH   2  21
TORSDOF 3
ENDMDL
MODEL 4
REMARK VINA RESULT:     -12.1      3.252      5.864
REMARK  Name = 11610526
REMARK  3 active torsions:
REMARK  status: ('A' for Active; 'I' for Inactive)
REMARK    1  A    between atoms: C_2  and  C_21
REMARK    2  A    between atoms: C_9  and  C_14
REMARK    3  A    between atoms: C_21  and  C_23
REMARK                            x       y       z     vdW  Elec       q    Type
REMARK                         _______ _______ _______ _____ _____    ______ ____
ROOT
ATOM      1  N   UNL     1      34.395 -21.333 -19.224  0.00  0.00    -0.388 NA
ATOM      2  C   UNL     1      34.773 -22.100 -18.198  0.00  0.00    +0.167 C 
ATOM      3  C   UNL     1      35.994 -22.101 -17.582  0.00  0.00    +0.031 C 
ATOM      4  C   UNL     1      35.341 -20.482 -19.678  0.00  0.00    +0.167 C 
ATOM      5  C   UNL     1      36.941 -21.212 -18.077  0.00  0.00    -0.015 C 
ATOM      6  C   UNL     1      36.616 -20.383 -19.146  0.00  0.00    +0.101 C 
ATOM      7  O   UNL     1      37.007 -18.426 -21.089  0.00  0.00    -0.270 OA
ATOM      8  N   UNL     1      35.024 -19.643 -20.753  0.00  0.00    -0.259 N 
ATOM      9  C   UNL     1      35.845 -18.697 -21.375  0.00  0.00    +0.255 C 
ATOM     10  H   UNL     1      34.113 -19.730 -21.116  0.00  0.00    +0.157 HD
ENDROOT
BRANCH   9  14
ATOM     11  F   UNL     1      34.870 -19.953 -23.685  0.00  0.00    -0.204 F 
ATOM     12  F   UNL     1      35.541 -15.910 -21.284  0.00  0.00    -0.204 F 
ATOM     13  F   UNL     1      33.454 -15.833 -25.529  0.00  0.00    -0.204 F 
ATOM     14  C   UNL     1      35.208 -17.935 -22.481  0.00  0.00    +0.109 C 
ATOM     15  C   UNL     1      34.753 -18.622 -23.587  0.00  0.00    +0.149 C 
ATOM     16  C   UNL     1      35.094 -16.566 -22.365  0.00  0.00    +0.149 C 
ATOM     17  C   UNL     1      34.156 -17.905 -24.624  0.00  0.00    +0.060 C 
ATOM     18  C   UNL     1      34.497 -15.850 -23.404  0.00  0.00    +0.060 C 
ATOM     19  C   UNL     1      34.028 -16.520 -24.533  0.00  0.00    +0.145 C 
ENDBRANCH   9  14
BRANCH   2  21
ATOM     20  O   UNL     1      33.393 -24.003 -18.388  0.00  0.00    -0.289 OA
ATOM     21  C   UNL     1      33.719 -23.033 -17.709  0.00  0.00    +0.202 C 
BRANCH  21  23
ATOM     22  N   UNL     1      31.548 -23.831 -14.127  0.00  0.00    +0.386 N 
ATOM     23  C   UNL     1      33.069 -22.768 -16.386  0.00  0.00    +0.060 C 
ATOM     24  C   UNL     1      33.710 -23.650 -15.315  0.00  0.00    -0.015 C 
ATOM     25  C   UNL     1      31.568 -23.040 -16.471  0.00  0.00    -0.015 C 
ATOM     26  C   UNL     1      32.976 -23.521 -13.979  0.00  0.00    -0.077 C 
ATOM     27  C   UNL     1      30.907 -22.931 -15.096  0.00  0.00    -0.077 C 
ATOM     28  C   UNL     1      30.871 -23.755 -12.832  0.00  0.00    -0.101 C 
ATOM     29  H   UNL     1      31.467 -24.784 -14.482  0.00  0.00    -0.080 HD
ENDBRANCH  21  23
ENDBRANCH   2  21
TORSDOF 3
ENDMDL
MODEL 5
REMARK VINA RESULT:     -12.1      3.245      5.919
REMARK  Name = 11610526
REMARK  3 active torsions:
REMARK  status: ('A' for Active; 'I' for Inactive)
REMARK    1  A    between atoms: C_2  and  C_21
REMARK    2  A    between atoms: C_9  and  C_14
REMARK    3  A    between atoms: C_21  and  C_23
REMARK                            x       y       z     vdW  Elec       q    Type
REMARK                         _______ _______ _______ _____ _____    ______ ____
ROOT
ATOM      1  N   UNL     1      34.397 -21.327 -19.231  0.00  0.00    -0.388 NA
ATOM      2  C   UNL     1      34.776 -22.094 -18.205  0.00  0.00    +0.167 C 
ATOM      3  C   UNL     1      35.998 -22.094 -17.590  0.00  0.00    +0.031 C 
ATOM      4  C   UNL     1      35.342 -20.474 -19.685  0.00  0.00    +0.167 C 
ATOM      5  C   UNL     1      36.943 -21.203 -18.084  0.00  0.00    -0.015 C 
ATOM      6  C   UNL     1      36.617 -20.373 -19.152  0.00  0.00    +0.101 C 
ATOM      7  O   UNL     1      37.003 -18.413 -21.093  0.00  0.00    -0.270 OA
ATOM      8  N   UNL     1      35.023 -19.634 -20.758  0.00  0.00    -0.259 N 
ATOM      9  C   UNL     1      35.842 -18.686 -21.379  0.00  0.00    +0.255 C 
ATOM     10  H   UNL     1      34.112 -19.722 -21.121  0.00  0.00    +0.157 HD
ENDROOT
BRANCH   9  14
ATOM     11  F   UNL     1      35.538 -15.900 -21.288  0.00  0.00    -0.204 F 
ATOM     12  F   UNL     1      34.864 -19.942 -23.689  0.00  0.00    -0.204 F 
ATOM     13  F   UNL     1      33.444 -15.823 -25.529  0.00  0.00    -0.204 F 
ATOM     14  C   UNL     1      35.204 -17.924 -22.484  0.00  0.00    +0.109 C 
ATOM     15  C   UNL     1      35.089 -16.554 -22.368  0.00  0.00    +0.149 C 
ATOM     16  C   UNL     1      34.746 -18.611 -23.589  0.00  0.00    +0.149 C 
ATOM     17  C   UNL     1      34.489 -15.839 -23.405  0.00  0.00    +0.060 C 
ATOM     18  C   UNL     1      34.147 -17.895 -24.625  0.00  0.00    +0.060 C 
ATOM     19  C   UNL     1      34.018 -16.509 -24.534  0.00  0.00    +0.145 C 
ENDBRANCH   9  14
BRANCH   2  21
ATOM     20  O   UNL     1      33.400 -24.000 -18.397  0.00  0.00    -0.289 OA
ATOM     21  C   UNL     1      33.724 -23.029 -17.718  0.00  0.00    +0.202 C 
BRANCH  21  23
ATOM     22  N   UNL     1      31.554 -23.836 -14.137  0.00  0.00    +0.386 N 
ATOM     23  C   UNL     1      33.074 -22.767 -16.394  0.00  0.00    +0.060 C 
ATOM     24  C   UNL     1      33.716 -23.651 -15.325  0.00  0.00    -0.015 C 
ATOM     25  C   UNL     1      31.574 -23.041 -16.479  0.00  0.00    -0.015 C 
ATOM     26  C   UNL     1      32.981 -23.525 -13.988  0.00  0.00    -0.077 C 
ATOM     27  C   UNL     1      30.912 -22.934 -15.104  0.00  0.00    -0.077 C 
ATOM     28  C   UNL     1      30.877 -23.762 -12.842  0.00  0.00    -0.101 C 
ATOM     29  H   UNL     1      31.474 -24.788 -14.494  0.00  0.00    -0.080 HD
ENDBRANCH  21  23
ENDBRANCH   2  21
TORSDOF 3
ENDMDL
MODEL 6
REMARK VINA RESULT:     -12.0      2.853      5.138
REMARK  Name = 11610526
REMARK  3 active torsions:
REMARK  status: ('A' for Active; 'I' for Inactive)
REMARK    1  A    between atoms: C_2  and  C_21
REMARK    2  A    between atoms: C_9  and  C_14
REMARK    3  A    between atoms: C_21  and  C_23
REMARK                            x       y       z     vdW  Elec       q    Type
REMARK                         _______ _______ _______ _____ _____    ______ ____
ROOT
ATOM      1  N   UNL     1      34.108 -20.715 -19.547  0.00  0.00    -0.388 NA
ATOM      2  C   UNL     1      34.518 -21.592 -18.627  0.00  0.00    +0.167 C 
ATOM      3  C   UNL     1      35.811 -21.887 -18.294  0.00  0.00    +0.031 C 
ATOM      4  C   UNL     1      35.099 -20.069 -20.200  0.00  0.00    +0.167 C 
ATOM      5  C   UNL     1      36.803 -21.202 -18.988  0.00  0.00    -0.015 C 
ATOM      6  C   UNL     1      36.448 -20.274 -19.961  0.00  0.00    +0.101 C 
ATOM      7  O   UNL     1      36.836 -18.360 -21.947  0.00  0.00    -0.270 OA
ATOM      8  N   UNL     1      34.752 -19.132 -21.181  0.00  0.00    -0.259 N 
ATOM      9  C   UNL     1      35.609 -18.359 -21.970  0.00  0.00    +0.255 C 
ATOM     10  H   UNL     1      33.789 -19.003 -21.334  0.00  0.00    +0.157 HD
ENDROOT
BRANCH   9  14
ATOM     11  F   UNL     1      34.384 -19.248 -24.331  0.00  0.00    -0.204 F 
ATOM     12  F   UNL     1      35.481 -15.597 -21.498  0.00  0.00    -0.204 F 
ATOM     13  F   UNL     1      33.078 -14.855 -25.505  0.00  0.00    -0.204 F 
ATOM     14  C   UNL     1      34.935 -17.427 -22.911  0.00  0.00    +0.109 C 
ATOM     15  C   UNL     1      34.354 -17.938 -24.053  0.00  0.00    +0.149 C 
ATOM     16  C   UNL     1      34.912 -16.081 -22.612  0.00  0.00    +0.149 C 
ATOM     17  C   UNL     1      33.722 -17.062 -24.936  0.00  0.00    +0.060 C 
ATOM     18  C   UNL     1      34.280 -15.205 -23.495  0.00  0.00    +0.060 C 
ATOM     19  C   UNL     1      33.685 -15.696 -24.658  0.00  0.00    +0.145 C 
ENDBRANCH   9  14
BRANCH   2  21
ATOM     20  O   UNL     1      32.253 -22.165 -18.299  0.00  0.00    -0.289 OA
ATOM     21  C   UNL     1      33.413 -22.296 -17.916  0.00  0.00    +0.202 C 
BRANCH  21  23
ATOM     22  N   UNL     1      34.061 -23.356 -13.837  0.00  0.00    +0.386 N 
ATOM     23  C   UNL     1      33.741 -23.158 -16.737  0.00  0.00    +0.060 C 
ATOM     24  C   UNL     1      32.545 -23.199 -15.785  0.00  0.00    -0.015 C 
ATOM     25  C   UNL     1      34.975 -22.621 -16.015  0.00  0.00    -0.015 C 
ATOM     26  C   UNL     1      32.889 -23.947 -14.495  0.00  0.00    -0.077 C 
ATOM     27  C   UNL     1      35.237 -23.389 -14.718  0.00  0.00    -0.077 C 
ATOM     28  C   UNL     1      34.344 -24.048 -12.580  0.00  0.00    -0.101 C 
ATOM     29  H   UNL     1      33.849 -22.379 -13.632  0.00  0.00    -0.080 HD
ENDBRANCH  21  23
ENDBRANCH   2  21
TORSDOF 3
ENDMDL
MODEL 7
REMARK VINA RESULT:     -11.8      3.490      8.377
REMARK  Name = 11610526
REMARK  3 active torsions:
REMARK  status: ('A' for Active; 'I' for Inactive)
REMARK    1  A    between atoms: C_2  and  C_21
REMARK    2  A    between atoms: C_9  and  C_14
REMARK    3  A    between atoms: C_21  and  C_23
REMARK                            x       y       z     vdW  Elec       q    Type
REMARK                         _______ _______ _______ _____ _____    ______ ____
ROOT
ATOM      1  N   UNL     1      34.350 -14.673 -22.890  0.00  0.00    -0.388 NA
ATOM      2  C   UNL     1      33.929 -13.804 -23.812  0.00  0.00    +0.167 C 
ATOM      3  C   UNL     1      33.562 -14.088 -25.099  0.00  0.00    +0.031 C 
ATOM      4  C   UNL     1      34.411 -15.958 -23.302  0.00  0.00    +0.167 C 
ATOM      5  C   UNL     1      33.637 -15.422 -25.487  0.00  0.00    -0.015 C 
ATOM      6  C   UNL     1      34.068 -16.381 -24.576  0.00  0.00    +0.101 C 
ATOM      7  O   UNL     1      34.742 -18.919 -23.645  0.00  0.00    -0.270 OA
ATOM      8  N   UNL     1      34.842 -16.932 -22.394  0.00  0.00    -0.259 N 
ATOM      9  C   UNL     1      34.979 -18.306 -22.609  0.00  0.00    +0.255 C 
ATOM     10  H   UNL     1      35.080 -16.609 -21.495  0.00  0.00    +0.157 HD
ENDROOT
BRANCH   9  14
ATOM     11  F   UNL     1      37.634 -18.231 -21.709  0.00  0.00    -0.204 F 
ATOM     12  F   UNL     1      33.244 -19.955 -21.146  0.00  0.00    -0.204 F 
ATOM     13  F   UNL     1      36.701 -21.251 -18.188  0.00  0.00    -0.204 F 
ATOM     14  C   UNL     1      35.437 -19.090 -21.432  0.00  0.00    +0.109 C 
ATOM     15  C   UNL     1      36.760 -19.002 -21.048  0.00  0.00    +0.149 C 
ATOM     16  C   UNL     1      34.526 -19.879 -20.762  0.00  0.00    +0.149 C 
ATOM     17  C   UNL     1      37.189 -19.739 -19.944  0.00  0.00    +0.060 C 
ATOM     18  C   UNL     1      34.957 -20.615 -19.658  0.00  0.00    +0.060 C 
ATOM     19  C   UNL     1      36.289 -20.545 -19.249  0.00  0.00    +0.145 C 
ENDBRANCH   9  14
BRANCH   2  21
ATOM     20  O   UNL     1      34.732 -11.590 -23.692  0.00  0.00    -0.289 OA
ATOM     21  C   UNL     1      33.869 -12.392 -23.342  0.00  0.00    +0.202 C 
BRANCH  21  23
ATOM     22  N   UNL     1      31.921 -10.505 -20.052  0.00  0.00    +0.386 N 
ATOM     23  C   UNL     1      32.749 -11.971 -22.443  0.00  0.00    +0.060 C 
ATOM     24  C   UNL     1      32.664 -10.445 -22.411  0.00  0.00    -0.015 C 
ATOM     25  C   UNL     1      32.967 -12.520 -21.034  0.00  0.00    -0.015 C 
ATOM     26  C   UNL     1      31.630  -9.969 -21.388  0.00  0.00    -0.077 C 
ATOM     27  C   UNL     1      31.923 -11.974 -20.058  0.00  0.00    -0.077 C 
ATOM     28  C   UNL     1      30.955  -9.999 -19.076  0.00  0.00    -0.101 C 
ATOM     29  H   UNL     1      32.854 -10.191 -19.782  0.00  0.00    -0.080 HD
ENDBRANCH  21  23
ENDBRANCH   2  21
TORSDOF 3
ENDMDL
MODEL 8
REMARK VINA RESULT:     -11.6      1.381      2.228
REMARK  Name = 11610526
REMARK  3 active torsions:
REMARK  status: ('A' for Active; 'I' for Inactive)
REMARK    1  A    between atoms: C_2  and  C_21
REMARK    2  A    between atoms: C_9  and  C_14
REMARK    3  A    between atoms: C_21  and  C_23
REMARK                            x       y       z     vdW  Elec       q    Type
REMARK                         _______ _______ _______ _____ _____    ______ ____
ROOT
ATOM      1  N   UNL     1      34.836 -16.018 -21.642  0.00  0.00    -0.388 NA
ATOM      2  C   UNL     1      35.185 -17.276 -21.924  0.00  0.00    +0.167 C 
ATOM      3  C   UNL     1      35.167 -17.876 -23.153  0.00  0.00    +0.031 C 
ATOM      4  C   UNL     1      34.426 -15.289 -22.703  0.00  0.00    +0.167 C 
ATOM      5  C   UNL     1      34.740 -17.094 -24.220  0.00  0.00    -0.015 C 
ATOM      6  C   UNL     1      34.361 -15.774 -23.999  0.00  0.00    +0.101 C 
ATOM      7  O   UNL     1      33.446 -13.223 -24.643  0.00  0.00    -0.270 OA
ATOM      8  N   UNL     1      34.043 -13.959 -22.492  0.00  0.00    -0.259 N 
ATOM      9  C   UNL     1      33.591 -13.035 -23.439  0.00  0.00    +0.255 C 
ATOM     10  H   UNL     1      34.098 -13.636 -21.564  0.00  0.00    +0.157 HD
ENDROOT
BRANCH   9  14
ATOM     11  F   UNL     1      31.680 -12.618 -21.429  0.00  0.00    -0.204 F 
ATOM     12  F   UNL     1      34.888 -10.734 -24.383  0.00  0.00    -0.204 F 
ATOM     13  F   UNL     1      32.442  -7.949 -21.444  0.00  0.00    -0.204 F 
ATOM     14  C   UNL     1      33.285 -11.682 -22.908  0.00  0.00    +0.109 C 
ATOM     15  C   UNL     1      32.332 -11.554 -21.918  0.00  0.00    +0.149 C 
ATOM     16  C   UNL     1      33.964 -10.596 -23.421  0.00  0.00    +0.149 C 
ATOM     17  C   UNL     1      32.045 -10.283 -21.421  0.00  0.00    +0.060 C 
ATOM     18  C   UNL     1      33.676  -9.325 -22.923  0.00  0.00    +0.060 C 
ATOM     19  C   UNL     1      32.717  -9.168 -21.923  0.00  0.00    +0.145 C 
ENDBRANCH   9  14
BRANCH   2  21
ATOM     20  O   UNL     1      36.345 -17.547 -19.888  0.00  0.00    -0.289 OA
ATOM     21  C   UNL     1      35.633 -18.067 -20.744  0.00  0.00    +0.202 C 
BRANCH  21  23
ATOM     22  N   UNL     1      34.215 -21.635 -18.888  0.00  0.00    +0.386 N 
ATOM     23  C   UNL     1      35.204 -19.496 -20.620  0.00  0.00    +0.060 C 
ATOM     24  C   UNL     1      33.752 -19.555 -20.145  0.00  0.00    -0.015 C 
ATOM     25  C   UNL     1      36.113 -20.239 -19.642  0.00  0.00    -0.015 C 
ATOM     26  C   UNL     1      33.319 -20.995 -19.861  0.00  0.00    -0.077 C 
ATOM     27  C   UNL     1      35.601 -21.655 -19.376  0.00  0.00    -0.077 C 
ATOM     28  C   UNL     1      33.758 -22.992 -18.588  0.00  0.00    -0.101 C 
ATOM     29  H   UNL     1      34.192 -21.084 -18.029  0.00  0.00    -0.080 HD
ENDBRANCH  21  23
ENDBRANCH   2  21
TORSDOF 3
ENDMDL
MODEL 9
REMARK VINA RESULT:     -11.4      5.820     11.460
REMARK  Name = 11610526
REMARK  3 active torsions:
REMARK  status: ('A' for Active; 'I' for Inactive)
REMARK    1  A    between atoms: C_2  and  C_21
REMARK    2  A    between atoms: C_9  and  C_14
REMARK    3  A    between atoms: C_21  and  C_23
REMARK                            x       y       z     vdW  Elec       q    Type
REMARK                         _______ _______ _______ _____ _____    ______ ____
ROOT
ATOM      1  N   UNL     1      35.685 -21.314 -18.369  0.00  0.00    -0.388 NA
ATOM      2  C   UNL     1      34.996 -20.734 -19.355  0.00  0.00    +0.167 C 
ATOM      3  C   UNL     1      33.665 -20.891 -19.627  0.00  0.00    +0.031 C 
ATOM      4  C   UNL     1      34.964 -22.137 -17.577  0.00  0.00    +0.167 C 
ATOM      5  C   UNL     1      32.955 -21.745 -18.789  0.00  0.00    -0.015 C 
ATOM      6  C   UNL     1      33.611 -22.384 -17.742  0.00  0.00    +0.101 C 
ATOM      7  O   UNL     1      33.897 -24.045 -15.524  0.00  0.00    -0.270 OA
ATOM      8  N   UNL     1      35.614 -22.785 -16.519  0.00  0.00    -0.259 N 
ATOM      9  C   UNL     1      35.064 -23.670 -15.587  0.00  0.00    +0.255 C 
ATOM     10  H   UNL     1      36.574 -22.595 -16.420  0.00  0.00    +0.157 HD
ENDROOT
BRANCH   9  14
ATOM     11  F   UNL     1      36.284 -21.970 -13.720  0.00  0.00    -0.204 F 
ATOM     12  F   UNL     1      35.743 -26.384 -15.388  0.00  0.00    -0.204 F 
ATOM     13  F   UNL     1      38.618 -25.567 -11.721  0.00  0.00    -0.204 F 
ATOM     14  C   UNL     1      36.009 -24.175 -14.558  0.00  0.00    +0.109 C 
ATOM     15  C   UNL     1      36.571 -23.278 -13.673  0.00  0.00    +0.149 C 
ATOM     16  C   UNL     1      36.295 -25.523 -14.521  0.00  0.00    +0.149 C 
ATOM     17  C   UNL     1      37.459 -23.753 -12.707  0.00  0.00    +0.060 C 
ATOM     18  C   UNL     1      37.184 -25.997 -13.556  0.00  0.00    +0.060 C 
ATOM     19  C   UNL     1      37.766 -25.112 -12.649  0.00  0.00    +0.145 C 
ENDBRANCH   9  14
BRANCH   2  21
ATOM     20  O   UNL     1      37.032 -19.896 -20.200  0.00  0.00    -0.289 OA
ATOM     21  C   UNL     1      35.805 -19.831 -20.220  0.00  0.00    +0.202 C 
BRANCH  21  23
ATOM     22  N   UNL     1      35.252 -17.067 -23.420  0.00  0.00    +0.386 N 
ATOM     23  C   UNL     1      35.103 -18.851 -21.108  0.00  0.00    +0.060 C 
ATOM     24  C   UNL     1      35.095 -19.375 -22.544  0.00  0.00    -0.015 C 
ATOM     25  C   UNL     1      35.792 -17.490 -21.043  0.00  0.00    -0.015 C 
ATOM     26  C   UNL     1      34.520 -18.337 -23.510  0.00  0.00    -0.077 C 
ATOM     27  C   UNL     1      35.193 -16.516 -22.059  0.00  0.00    -0.077 C 
ATOM     28  C   UNL     1      34.725 -16.103 -24.386  0.00  0.00    -0.101 C 
ATOM     29  H   UNL     1      36.231 -17.251 -23.642  0.00  0.00    -0.080 HD
ENDBRANCH  21  23
ENDBRANCH   2  21
TORSDOF 3
ENDMDL
