MODEL 1
REMARK VINA RESULT:     -13.2      0.000      0.000
REMARK  Name = 11167118
REMARK  6 active torsions:
REMARK  status: ('A' for Active; 'I' for Inactive)
REMARK    1  A    between atoms: N_2  and  C_6
REMARK    2  A    between atoms: N_2  and  C_15
REMARK    3  A    between atoms: C_8  and  O_25
REMARK    4  A    between atoms: C_17  and  C_24
REMARK    5  A    between atoms: O_25  and  C_27
REMARK    6  A    between atoms: C_30  and  C_34
REMARK                            x       y       z     vdW  Elec       q    Type
REMARK                         _______ _______ _______ _____ _____    ______ ____
ROOT
ATOM      1  N   UNL     1      33.609 -21.263 -19.668  0.00  0.00    -0.302 N 
ATOM      2  N   UNL     1      35.462 -21.801 -18.565  0.00  0.00    -0.302 N 
ATOM      3  C   UNL     1      34.574 -20.407 -20.134  0.00  0.00    +0.063 C 
ATOM      4  C   UNL     1      35.721 -20.763 -19.430  0.00  0.00    +0.060 C 
ATOM      5  C   UNL     1      34.187 -22.076 -18.734  0.00  0.00    +0.225 C 
ATOM      6  C   UNL     1      34.544 -19.382 -21.082  0.00  0.00    +0.053 C 
ATOM      7  C   UNL     1      35.743 -18.701 -21.311  0.00  0.00    +0.147 C 
ATOM      8  C   UNL     1      36.917 -20.067 -19.672  0.00  0.00    +0.019 C 
ATOM      9  C   UNL     1      36.910 -19.036 -20.620  0.00  0.00    +0.039 C 
ATOM     10  H   UNL     1      32.668 -21.287 -19.956  0.00  0.00    +0.150 HD
ATOM     11  H   UNL     1      36.093 -22.243 -17.952  0.00  0.00    +0.150 HD
ENDROOT
BRANCH   5  12
ATOM     12  N   UNL     1      33.417 -23.009 -18.133  0.00  0.00    -0.303 N 
ATOM     13  H   UNL     1      33.169 -23.771 -18.705  0.00  0.00    +0.150 HD
BRANCH  12  15
ATOM     14 CL   UNL     1      31.336 -23.257 -12.590  0.00  0.00    -0.082 Cl
ATOM     15  C   UNL     1      32.908 -23.067 -16.805  0.00  0.00    +0.047 C 
ATOM     16  C   UNL     1      31.540 -22.969 -16.592  0.00  0.00    +0.019 C 
ATOM     17  C   UNL     1      31.041 -23.026 -15.290  0.00  0.00    +0.083 C 
ATOM     18  C   UNL     1      33.787 -23.222 -15.742  0.00  0.00    +0.015 C 
ATOM     19  C   UNL     1      31.916 -23.181 -14.214  0.00  0.00    +0.062 C 
ATOM     20  C   UNL     1      33.289 -23.279 -14.440  0.00  0.00    +0.013 C 
BRANCH  17  24
ATOM     21  F   UNL     1      29.031 -24.063 -14.598  0.00  0.00    -0.166 F 
ATOM     22  F   UNL     1      29.231 -21.930 -14.226  0.00  0.00    -0.166 F 
ATOM     23  F   UNL     1      28.933 -22.654 -16.260  0.00  0.00    -0.166 F 
ATOM     24  C   UNL     1      29.564 -22.919 -15.091  0.00  0.00    +0.419 C 
ENDBRANCH  17  24
ENDBRANCH  12  15
ENDBRANCH   5  12
BRANCH   7  25
ATOM     25  O   UNL     1      35.772 -17.691 -22.226  0.00  0.00    -0.453 OA
BRANCH  25  27
ATOM     26  N   UNL     1      34.204 -14.014 -21.088  0.00  0.00    -0.239 NA
ATOM     27  C   UNL     1      35.250 -16.467 -21.847  0.00  0.00    +0.149 C 
ATOM     28  C   UNL     1      34.848 -15.575 -22.819  0.00  0.00    +0.061 C 
ATOM     29  C   UNL     1      35.143 -16.165 -20.506  0.00  0.00    +0.058 C 
ATOM     30  C   UNL     1      34.332 -14.363 -22.388  0.00  0.00    +0.137 C 
ATOM     31  C   UNL     1      34.614 -14.927 -20.178  0.00  0.00    +0.102 C 
BRANCH  30  34
ATOM     32  O   UNL     1      33.048 -13.668 -24.223  0.00  0.00    -0.268 OA
ATOM     33  N   UNL     1      34.425 -12.085 -23.237  0.00  0.00    -0.298 N 
ATOM     34  C   UNL     1      33.887 -13.372 -23.353  0.00  0.00    +0.264 C 
ATOM     35  C   UNL     1      34.066 -10.986 -24.106  0.00  0.00    +0.111 C 
ATOM     36  H   UNL     1      35.085 -11.919 -22.526  0.00  0.00    +0.150 HD
ENDBRANCH  30  34
ENDBRANCH  25  27
ENDBRANCH   7  25
TORSDOF 6
ENDMDL
MODEL 2
REMARK VINA RESULT:     -13.0      1.321      1.787
REMARK  Name = 11167118
REMARK  6 active torsions:
REMARK  status: ('A' for Active; 'I' for Inactive)
REMARK    1  A    between atoms: N_2  and  C_6
REMARK    2  A    between atoms: N_2  and  C_15
REMARK    3  A    between atoms: C_8  and  O_25
REMARK    4  A    between atoms: C_17  and  C_24
REMARK    5  A    between atoms: O_25  and  C_27
REMARK    6  A    between atoms: C_30  and  C_34
REMARK                            x       y       z     vdW  Elec       q    Type
REMARK                         _______ _______ _______ _____ _____    ______ ____
ROOT
ATOM      1  N   UNL     1      35.138 -21.847 -18.339  0.00  0.00    -0.302 N 
ATOM      2  N   UNL     1      32.920 -21.904 -18.467  0.00  0.00    -0.302 N 
ATOM      3  C   UNL     1      34.810 -21.011 -19.375  0.00  0.00    +0.063 C 
ATOM      4  C   UNL     1      33.420 -21.064 -19.435  0.00  0.00    +0.060 C 
ATOM      5  C   UNL     1      33.977 -22.356 -17.828  0.00  0.00    +0.225 C 
ATOM      6  C   UNL     1      35.585 -20.237 -20.241  0.00  0.00    +0.053 C 
ATOM      7  C   UNL     1      34.898 -19.489 -21.202  0.00  0.00    +0.147 C 
ATOM      8  C   UNL     1      32.746 -20.306 -20.408  0.00  0.00    +0.019 C 
ATOM      9  C   UNL     1      33.505 -19.521 -21.286  0.00  0.00    +0.039 C 
ATOM     10  H   UNL     1      36.048 -22.045 -18.021  0.00  0.00    +0.150 HD
ATOM     11  H   UNL     1      31.976 -22.121 -18.289  0.00  0.00    +0.150 HD
ENDROOT
BRANCH   5  12
ATOM     12  N   UNL     1      34.057 -23.213 -16.787  0.00  0.00    -0.303 N 
ATOM     13  H   UNL     1      34.862 -23.780 -16.778  0.00  0.00    +0.150 HD
BRANCH  12  15
ATOM     14 CL   UNL     1      30.366 -24.123 -12.241  0.00  0.00    -0.082 Cl
ATOM     15  C   UNL     1      33.162 -23.428 -15.701  0.00  0.00    +0.047 C 
ATOM     16  C   UNL     1      31.811 -23.157 -15.863  0.00  0.00    +0.019 C 
ATOM     17  C   UNL     1      30.935 -23.369 -14.798  0.00  0.00    +0.083 C 
ATOM     18  C   UNL     1      33.656 -23.906 -14.494  0.00  0.00    +0.015 C 
ATOM     19  C   UNL     1      31.420 -23.849 -13.580  0.00  0.00    +0.062 C 
ATOM     20  C   UNL     1      32.780 -24.117 -13.429  0.00  0.00    +0.013 C 
BRANCH  17  24
ATOM     21  F   UNL     1      28.701 -24.143 -14.740  0.00  0.00    -0.166 F 
ATOM     22  F   UNL     1      29.049 -22.065 -14.203  0.00  0.00    -0.166 F 
ATOM     23  F   UNL     1      29.240 -22.697 -16.281  0.00  0.00    -0.166 F 
ATOM     24  C   UNL     1      29.485 -23.069 -15.001  0.00  0.00    +0.419 C 
ENDBRANCH  17  24
ENDBRANCH  12  15
ENDBRANCH   5  12
BRANCH   7  25
ATOM     25  O   UNL     1      35.604 -18.714 -22.074  0.00  0.00    -0.453 OA
BRANCH  25  27
ATOM     26  N   UNL     1      34.467 -14.737 -22.475  0.00  0.00    -0.239 NA
ATOM     27  C   UNL     1      35.226 -17.390 -22.207  0.00  0.00    +0.149 C 
ATOM     28  C   UNL     1      34.780 -16.936 -23.431  0.00  0.00    +0.061 C 
ATOM     29  C   UNL     1      35.302 -16.553 -21.115  0.00  0.00    +0.058 C 
ATOM     30  C   UNL     1      34.413 -15.602 -23.513  0.00  0.00    +0.137 C 
ATOM     31  C   UNL     1      34.912 -15.236 -21.299  0.00  0.00    +0.102 C 
BRANCH  30  34
ATOM     32  O   UNL     1      33.809 -15.776 -25.771  0.00  0.00    -0.268 OA
ATOM     33  N   UNL     1      33.603 -13.691 -24.781  0.00  0.00    -0.298 N 
ATOM     34  C   UNL     1      33.933 -15.051 -24.768  0.00  0.00    +0.264 C 
ATOM     35  C   UNL     1      33.092 -13.002 -25.945  0.00  0.00    +0.111 C 
ATOM     36  H   UNL     1      33.726 -13.174 -23.951  0.00  0.00    +0.150 HD
ENDBRANCH  30  34
ENDBRANCH  25  27
ENDBRANCH   7  25
TORSDOF 6
ENDMDL
MODEL 3
REMARK VINA RESULT:     -12.9      5.542     10.328
REMARK  Name = 11167118
REMARK  6 active torsions:
REMARK  status: ('A' for Active; 'I' for Inactive)
REMARK    1  A    between atoms: N_2  and  C_6
REMARK    2  A    between atoms: N_2  and  C_15
REMARK    3  A    between atoms: C_8  and  O_25
REMARK    4  A    between atoms: C_17  and  C_24
REMARK    5  A    between atoms: O_25  and  C_27
REMARK    6  A    between atoms: C_30  and  C_34
REMARK                            x       y       z     vdW  Elec       q    Type
REMARK                         _______ _______ _______ _____ _____    ______ ____
ROOT
ATOM      1  N   UNL     1      34.561 -18.813 -21.126  0.00  0.00    -0.302 N 
ATOM      2  N   UNL     1      36.664 -19.288 -20.584  0.00  0.00    -0.302 N 
ATOM      3  C   UNL     1      34.488 -19.899 -20.291  0.00  0.00    +0.063 C 
ATOM      4  C   UNL     1      35.813 -20.176 -19.967  0.00  0.00    +0.060 C 
ATOM      5  C   UNL     1      35.880 -18.485 -21.270  0.00  0.00    +0.225 C 
ATOM      6  C   UNL     1      33.409 -20.640 -19.806  0.00  0.00    +0.053 C 
ATOM      7  C   UNL     1      33.711 -21.707 -18.955  0.00  0.00    +0.147 C 
ATOM      8  C   UNL     1      36.098 -21.252 -19.110  0.00  0.00    +0.019 C 
ATOM      9  C   UNL     1      35.030 -22.010 -18.611  0.00  0.00    +0.039 C 
ATOM     10  H   UNL     1      33.799 -18.352 -21.545  0.00  0.00    +0.150 HD
ATOM     11  H   UNL     1      37.646 -19.259 -20.525  0.00  0.00    +0.150 HD
ENDROOT
BRANCH   5  12
ATOM     12  N   UNL     1      36.196 -17.434 -22.057  0.00  0.00    -0.303 N 
ATOM     13  H   UNL     1      37.161 -17.255 -22.141  0.00  0.00    +0.150 HD
BRANCH  12  15
ATOM     14 CL   UNL     1      32.706 -13.753 -25.120  0.00  0.00    -0.082 Cl
ATOM     15  C   UNL     1      35.357 -16.543 -22.785  0.00  0.00    +0.047 C 
ATOM     16  C   UNL     1      34.907 -15.379 -22.179  0.00  0.00    +0.019 C 
ATOM     17  C   UNL     1      34.085 -14.506 -22.893  0.00  0.00    +0.083 C 
ATOM     18  C   UNL     1      35.001 -16.853 -24.090  0.00  0.00    +0.015 C 
ATOM     19  C   UNL     1      33.720 -14.808 -24.206  0.00  0.00    +0.062 C 
ATOM     20  C   UNL     1      34.178 -15.982 -24.804  0.00  0.00    +0.013 C 
BRANCH  17  24
ATOM     21  F   UNL     1      34.142 -12.144 -22.779  0.00  0.00    -0.166 F 
ATOM     22  F   UNL     1      32.269 -13.121 -22.265  0.00  0.00    -0.166 F 
ATOM     23  F   UNL     1      33.970 -13.252 -20.908  0.00  0.00    -0.166 F 
ATOM     24  C   UNL     1      33.616 -13.259 -22.216  0.00  0.00    +0.419 C 
ENDBRANCH  17  24
ENDBRANCH  12  15
ENDBRANCH   5  12
BRANCH   7  25
ATOM     25  O   UNL     1      32.696 -22.467 -18.451  0.00  0.00    -0.453 OA
BRANCH  25  27
ATOM     26  N   UNL     1      32.815 -23.401 -14.404  0.00  0.00    -0.239 NA
ATOM     27  C   UNL     1      32.736 -22.778 -17.104  0.00  0.00    +0.149 C 
ATOM     28  C   UNL     1      33.944 -23.096 -16.520  0.00  0.00    +0.061 C 
ATOM     29  C   UNL     1      31.567 -22.762 -16.373  0.00  0.00    +0.058 C 
ATOM     30  C   UNL     1      33.931 -23.400 -15.168  0.00  0.00    +0.137 C 
ATOM     31  C   UNL     1      31.659 -23.081 -15.027  0.00  0.00    +0.102 C 
BRANCH  30  34
ATOM     32  O   UNL     1      35.941 -24.590 -14.965  0.00  0.00    -0.268 OA
ATOM     33  N   UNL     1      35.438 -23.072 -13.287  0.00  0.00    -0.298 N 
ATOM     34  C   UNL     1      35.164 -23.746 -14.483  0.00  0.00    +0.264 C 
ATOM     35  C   UNL     1      36.633 -23.289 -12.502  0.00  0.00    +0.111 C 
ATOM     36  H   UNL     1      34.780 -22.416 -12.961  0.00  0.00    +0.150 HD
ENDBRANCH  30  34
ENDBRANCH  25  27
ENDBRANCH   7  25
TORSDOF 6
ENDMDL
MODEL 4
REMARK VINA RESULT:     -12.7      5.794     10.358
REMARK  Name = 11167118
REMARK  6 active torsions:
REMARK  status: ('A' for Active; 'I' for Inactive)
REMARK    1  A    between atoms: N_2  and  C_6
REMARK    2  A    between atoms: N_2  and  C_15
REMARK    3  A    between atoms: C_8  and  O_25
REMARK    4  A    between atoms: C_17  and  C_24
REMARK    5  A    between atoms: O_25  and  C_27
REMARK    6  A    between atoms: C_30  and  C_34
REMARK                            x       y       z     vdW  Elec       q    Type
REMARK                         _______ _______ _______ _____ _____    ______ ____
ROOT
ATOM      1  N   UNL     1      35.953 -19.626 -20.680  0.00  0.00    -0.302 N 
ATOM      2  N   UNL     1      33.841 -19.129 -21.161  0.00  0.00    -0.302 N 
ATOM      3  C   UNL     1      35.194 -20.456 -19.896  0.00  0.00    +0.063 C 
ATOM      4  C   UNL     1      33.880 -20.126 -20.214  0.00  0.00    +0.060 C 
ATOM      5  C   UNL     1      35.101 -18.852 -21.417  0.00  0.00    +0.225 C 
ATOM      6  C   UNL     1      35.534 -21.438 -18.963  0.00  0.00    +0.053 C 
ATOM      7  C   UNL     1      34.475 -22.103 -18.337  0.00  0.00    +0.147 C 
ATOM      8  C   UNL     1      32.829 -20.805 -19.575  0.00  0.00    +0.019 C 
ATOM      9  C   UNL     1      33.146 -21.795 -18.636  0.00  0.00    +0.039 C 
ATOM     10  H   UNL     1      36.937 -19.593 -20.706  0.00  0.00    +0.150 HD
ATOM     11  H   UNL     1      33.044 -18.711 -21.560  0.00  0.00    +0.150 HD
ENDROOT
BRANCH   5  12
ATOM     12  N   UNL     1      35.631 -17.950 -22.271  0.00  0.00    -0.303 N 
ATOM     13  H   UNL     1      36.605 -18.020 -22.395  0.00  0.00    +0.150 HD
BRANCH  12  15
ATOM     14 CL   UNL     1      33.025 -13.664 -25.426  0.00  0.00    -0.082 Cl
ATOM     15  C   UNL     1      35.006 -16.914 -23.021  0.00  0.00    +0.047 C 
ATOM     16  C   UNL     1      34.886 -15.647 -22.469  0.00  0.00    +0.019 C 
ATOM     17  C   UNL     1      34.274 -14.631 -23.205  0.00  0.00    +0.083 C 
ATOM     18  C   UNL     1      34.527 -17.187 -24.295  0.00  0.00    +0.015 C 
ATOM     19  C   UNL     1      33.787 -14.894 -24.486  0.00  0.00    +0.062 C 
ATOM     20  C   UNL     1      33.914 -16.172 -25.031  0.00  0.00    +0.013 C 
BRANCH  17  24
ATOM     21  F   UNL     1      32.880 -12.973 -22.255  0.00  0.00    -0.166 F 
ATOM     22  F   UNL     1      34.890 -13.164 -21.450  0.00  0.00    -0.166 F 
ATOM     23  F   UNL     1      34.591 -12.314 -23.434  0.00  0.00    -0.166 F 
ATOM     24  C   UNL     1      34.158 -13.276 -22.585  0.00  0.00    +0.419 C 
ENDBRANCH  17  24
ENDBRANCH  12  15
ENDBRANCH   5  12
BRANCH   7  25
ATOM     25  O   UNL     1      34.748 -23.072 -17.416  0.00  0.00    -0.453 OA
BRANCH  25  27
ATOM     26  N   UNL     1      32.359 -23.226 -14.019  0.00  0.00    -0.239 NA
ATOM     27  C   UNL     1      33.953 -23.123 -16.285  0.00  0.00    +0.149 C 
ATOM     28  C   UNL     1      32.592 -23.302 -16.424  0.00  0.00    +0.061 C 
ATOM     29  C   UNL     1      34.537 -22.995 -15.043  0.00  0.00    +0.058 C 
ATOM     30  C   UNL     1      31.840 -23.347 -15.262  0.00  0.00    +0.137 C 
ATOM     31  C   UNL     1      33.698 -23.053 -13.942  0.00  0.00    +0.102 C 
BRANCH  30  34
ATOM     32  O   UNL     1      29.823 -24.289 -14.526  0.00  0.00    -0.268 OA
ATOM     33  N   UNL     1      29.709 -22.808 -16.306  0.00  0.00    -0.298 N 
ATOM     34  C   UNL     1      30.401 -23.532 -15.327  0.00  0.00    +0.264 C 
ATOM     35  C   UNL     1      28.276 -22.868 -16.483  0.00  0.00    +0.111 C 
ATOM     36  H   UNL     1      30.228 -22.227 -16.908  0.00  0.00    +0.150 HD
ENDBRANCH  30  34
ENDBRANCH  25  27
ENDBRANCH   7  25
TORSDOF 6
ENDMDL
MODEL 5
REMARK VINA RESULT:     -12.6      2.276      2.685
REMARK  Name = 11167118
REMARK  6 active torsions:
REMARK  status: ('A' for Active; 'I' for Inactive)
REMARK    1  A    between atoms: N_2  and  C_6
REMARK    2  A    between atoms: N_2  and  C_15
REMARK    3  A    between atoms: C_8  and  O_25
REMARK    4  A    between atoms: C_17  and  C_24
REMARK    5  A    between atoms: O_25  and  C_27
REMARK    6  A    between atoms: C_30  and  C_34
REMARK                            x       y       z     vdW  Elec       q    Type
REMARK                         _______ _______ _______ _____ _____    ______ ____
ROOT
ATOM      1  N   UNL     1      33.315 -20.649 -19.989  0.00  0.00    -0.302 N 
ATOM      2  N   UNL     1      35.132 -21.398 -18.950  0.00  0.00    -0.302 N 
ATOM      3  C   UNL     1      34.349 -19.883 -20.461  0.00  0.00    +0.063 C 
ATOM      4  C   UNL     1      35.472 -20.370 -19.797  0.00  0.00    +0.060 C 
ATOM      5  C   UNL     1      33.832 -21.540 -19.090  0.00  0.00    +0.225 C 
ATOM      6  C   UNL     1      34.399 -18.836 -21.384  0.00  0.00    +0.053 C 
ATOM      7  C   UNL     1      35.654 -18.273 -21.630  0.00  0.00    +0.147 C 
ATOM      8  C   UNL     1      36.726 -19.791 -20.056  0.00  0.00    +0.019 C 
ATOM      9  C   UNL     1      36.799 -18.740 -20.979  0.00  0.00    +0.039 C 
ATOM     10  H   UNL     1      32.370 -20.572 -20.252  0.00  0.00    +0.150 HD
ATOM     11  H   UNL     1      35.730 -21.917 -18.365  0.00  0.00    +0.150 HD
ENDROOT
BRANCH   5  12
ATOM     12  N   UNL     1      32.987 -22.407 -18.490  0.00  0.00    -0.303 N 
ATOM     13  H   UNL     1      32.335 -22.833 -19.092  0.00  0.00    +0.150 HD
BRANCH  12  15
ATOM     14 CL   UNL     1      32.537 -24.046 -12.813  0.00  0.00    -0.082 Cl
ATOM     15  C   UNL     1      32.889 -22.803 -17.126  0.00  0.00    +0.047 C 
ATOM     16  C   UNL     1      34.037 -23.162 -16.433  0.00  0.00    +0.019 C 
ATOM     17  C   UNL     1      33.940 -23.549 -15.096  0.00  0.00    +0.083 C 
ATOM     18  C   UNL     1      31.646 -22.823 -16.508  0.00  0.00    +0.015 C 
ATOM     19  C   UNL     1      32.696 -23.573 -14.465  0.00  0.00    +0.062 C 
ATOM     20  C   UNL     1      31.549 -23.211 -15.172  0.00  0.00    +0.013 C 
BRANCH  17  24
ATOM     21  F   UNL     1      35.412 -23.151 -13.289  0.00  0.00    -0.166 F 
ATOM     22  F   UNL     1      35.166 -25.211 -13.937  0.00  0.00    -0.166 F 
ATOM     23  F   UNL     1      36.275 -23.806 -15.181  0.00  0.00    -0.166 F 
ATOM     24  C   UNL     1      35.193 -23.929 -14.376  0.00  0.00    +0.419 C 
ENDBRANCH  17  24
ENDBRANCH  12  15
ENDBRANCH   5  12
BRANCH   7  25
ATOM     25  O   UNL     1      35.762 -17.247 -22.522  0.00  0.00    -0.453 OA
BRANCH  25  27
ATOM     26  N   UNL     1      34.124 -13.581 -21.451  0.00  0.00    -0.239 NA
ATOM     27  C   UNL     1      35.217 -16.027 -22.165  0.00  0.00    +0.149 C 
ATOM     28  C   UNL     1      34.868 -15.129 -23.152  0.00  0.00    +0.061 C 
ATOM     29  C   UNL     1      35.034 -15.733 -20.831  0.00  0.00    +0.058 C 
ATOM     30  C   UNL     1      34.326 -13.921 -22.744  0.00  0.00    +0.137 C 
ATOM     31  C   UNL     1      34.484 -14.498 -20.525  0.00  0.00    +0.102 C 
BRANCH  30  34
ATOM     32  O   UNL     1      34.016 -11.712 -23.463  0.00  0.00    -0.268 OA
ATOM     33  N   UNL     1      33.490 -13.395 -24.967  0.00  0.00    -0.298 N 
ATOM     34  C   UNL     1      33.934 -12.925 -23.726  0.00  0.00    +0.264 C 
ATOM     35  C   UNL     1      33.087 -12.530 -26.053  0.00  0.00    +0.111 C 
ATOM     36  H   UNL     1      33.448 -14.369 -25.108  0.00  0.00    +0.150 HD
ENDBRANCH  30  34
ENDBRANCH  25  27
ENDBRANCH   7  25
TORSDOF 6
ENDMDL
MODEL 6
REMARK VINA RESULT:     -12.5      5.264     10.362
REMARK  Name = 11167118
REMARK  6 active torsions:
REMARK  status: ('A' for Active; 'I' for Inactive)
REMARK    1  A    between atoms: N_2  and  C_6
REMARK    2  A    between atoms: N_2  and  C_15
REMARK    3  A    between atoms: C_8  and  O_25
REMARK    4  A    between atoms: C_17  and  C_24
REMARK    5  A    between atoms: O_25  and  C_27
REMARK    6  A    between atoms: C_30  and  C_34
REMARK                            x       y       z     vdW  Elec       q    Type
REMARK                         _______ _______ _______ _____ _____    ______ ____
ROOT
ATOM      1  N   UNL     1      34.797 -15.006 -23.039  0.00  0.00    -0.302 N 
ATOM      2  N   UNL     1      33.786 -15.800 -24.852  0.00  0.00    -0.302 N 
ATOM      3  C   UNL     1      34.854 -16.370 -22.921  0.00  0.00    +0.063 C 
ATOM      4  C   UNL     1      34.216 -16.843 -24.065  0.00  0.00    +0.060 C 
ATOM      5  C   UNL     1      34.151 -14.713 -24.208  0.00  0.00    +0.225 C 
ATOM      6  C   UNL     1      35.391 -17.208 -21.942  0.00  0.00    +0.053 C 
ATOM      7  C   UNL     1      35.266 -18.584 -22.153  0.00  0.00    +0.147 C 
ATOM      8  C   UNL     1      34.098 -18.230 -24.260  0.00  0.00    +0.019 C 
ATOM      9  C   UNL     1      34.631 -19.089 -23.290  0.00  0.00    +0.039 C 
ATOM     10  H   UNL     1      35.158 -14.353 -22.396  0.00  0.00    +0.150 HD
ATOM     11  H   UNL     1      33.309 -15.854 -25.711  0.00  0.00    +0.150 HD
ENDROOT
BRANCH   5  12
ATOM     12  N   UNL     1      33.978 -13.415 -24.536  0.00  0.00    -0.303 N 
ATOM     13  H   UNL     1      34.195 -13.191 -25.470  0.00  0.00    +0.150 HD
BRANCH  12  15
ATOM     14 CL   UNL     1      32.135  -8.819 -21.280  0.00  0.00    -0.082 Cl
ATOM     15  C   UNL     1      33.530 -12.317 -23.747  0.00  0.00    +0.047 C 
ATOM     16  C   UNL     1      32.841 -12.558 -22.567  0.00  0.00    +0.019 C 
ATOM     17  C   UNL     1      32.403 -11.483 -21.794  0.00  0.00    +0.083 C 
ATOM     18  C   UNL     1      33.791 -11.021 -24.170  0.00  0.00    +0.015 C 
ATOM     19  C   UNL     1      32.660 -10.175 -22.210  0.00  0.00    +0.062 C 
ATOM     20  C   UNL     1      33.353  -9.945 -23.398  0.00  0.00    +0.013 C 
BRANCH  17  24
ATOM     21  F   UNL     1      32.306 -11.284 -19.440  0.00  0.00    -0.166 F 
ATOM     22  F   UNL     1      30.422 -11.233 -20.521  0.00  0.00    -0.166 F 
ATOM     23  F   UNL     1      31.520 -13.107 -20.343  0.00  0.00    -0.166 F 
ATOM     24  C   UNL     1      31.664 -11.773 -20.528  0.00  0.00    +0.419 C 
ENDBRANCH  17  24
ENDBRANCH  12  15
ENDBRANCH   5  12
BRANCH   7  25
ATOM     25  O   UNL     1      35.772 -19.450 -21.229  0.00  0.00    -0.453 OA
BRANCH  25  27
ATOM     26  N   UNL     1      33.078 -21.416 -18.750  0.00  0.00    -0.239 NA
ATOM     27  C   UNL     1      34.875 -20.104 -20.404  0.00  0.00    +0.149 C 
ATOM     28  C   UNL     1      35.353 -20.928 -19.406  0.00  0.00    +0.061 C 
ATOM     29  C   UNL     1      33.523 -19.919 -20.595  0.00  0.00    +0.058 C 
ATOM     30  C   UNL     1      34.415 -21.560 -18.606  0.00  0.00    +0.137 C 
ATOM     31  C   UNL     1      32.665 -20.597 -19.743  0.00  0.00    +0.102 C 
BRANCH  30  34
ATOM     32  O   UNL     1      34.238 -23.509 -17.314  0.00  0.00    -0.268 OA
ATOM     33  N   UNL     1      35.963 -22.050 -16.794  0.00  0.00    -0.298 N 
ATOM     34  C   UNL     1      34.842 -22.443 -17.535  0.00  0.00    +0.264 C 
ATOM     35  C   UNL     1      36.522 -22.830 -15.713  0.00  0.00    +0.111 C 
ATOM     36  H   UNL     1      36.393 -21.194 -17.021  0.00  0.00    +0.150 HD
ENDBRANCH  30  34
ENDBRANCH  25  27
ENDBRANCH   7  25
TORSDOF 6
ENDMDL
MODEL 7
REMARK VINA RESULT:     -12.5      2.294      2.946
REMARK  Name = 11167118
REMARK  6 active torsions:
REMARK  status: ('A' for Active; 'I' for Inactive)
REMARK    1  A    between atoms: N_2  and  C_6
REMARK    2  A    between atoms: N_2  and  C_15
REMARK    3  A    between atoms: C_8  and  O_25
REMARK    4  A    between atoms: C_17  and  C_24
REMARK    5  A    between atoms: O_25  and  C_27
REMARK    6  A    between atoms: C_30  and  C_34
REMARK                            x       y       z     vdW  Elec       q    Type
REMARK                         _______ _______ _______ _____ _____    ______ ____
ROOT
ATOM      1  N   UNL     1      32.817 -21.057 -19.161  0.00  0.00    -0.302 N 
ATOM      2  N   UNL     1      34.372 -22.271 -18.136  0.00  0.00    -0.302 N 
ATOM      3  C   UNL     1      34.018 -20.552 -19.590  0.00  0.00    +0.063 C 
ATOM      4  C   UNL     1      34.972 -21.326 -18.935  0.00  0.00    +0.060 C 
ATOM      5  C   UNL     1      33.080 -22.082 -18.295  0.00  0.00    +0.225 C 
ATOM      6  C   UNL     1      34.342 -19.515 -20.467  0.00  0.00    +0.053 C 
ATOM      7  C   UNL     1      35.702 -19.270 -20.676  0.00  0.00    +0.147 C 
ATOM      8  C   UNL     1      36.335 -21.065 -19.157  0.00  0.00    +0.019 C 
ATOM      9  C   UNL     1      36.683 -20.030 -20.034  0.00  0.00    +0.039 C 
ATOM     10  H   UNL     1      31.925 -20.739 -19.429  0.00  0.00    +0.150 HD
ATOM     11  H   UNL     1      34.812 -22.943 -17.567  0.00  0.00    +0.150 HD
ENDROOT
BRANCH   5  12
ATOM     12  N   UNL     1      32.036 -22.736 -17.741  0.00  0.00    -0.303 N 
ATOM     13  H   UNL     1      31.400 -23.121 -18.386  0.00  0.00    +0.150 HD
BRANCH  12  15
ATOM     14 CL   UNL     1      30.636 -23.643 -12.055  0.00  0.00    -0.082 Cl
ATOM     15  C   UNL     1      31.709 -22.957 -16.373  0.00  0.00    +0.047 C 
ATOM     16  C   UNL     1      32.684 -23.429 -15.504  0.00  0.00    +0.019 C 
ATOM     17  C   UNL     1      32.363 -23.645 -14.164  0.00  0.00    +0.083 C 
ATOM     18  C   UNL     1      30.420 -22.698 -15.928  0.00  0.00    +0.015 C 
ATOM     19  C   UNL     1      31.070 -23.388 -13.706  0.00  0.00    +0.062 C 
ATOM     20  C   UNL     1      30.099 -22.915 -14.588  0.00  0.00    +0.013 C 
BRANCH  17  24
ATOM     21  F   UNL     1      33.037 -25.250 -12.563  0.00  0.00    -0.166 F 
ATOM     22  F   UNL     1      34.559 -24.497 -13.919  0.00  0.00    -0.166 F 
ATOM     23  F   UNL     1      33.780 -23.212 -12.340  0.00  0.00    -0.166 F 
ATOM     24  C   UNL     1      33.432 -24.152 -13.251  0.00  0.00    +0.419 C 
ENDBRANCH  17  24
ENDBRANCH  12  15
ENDBRANCH   5  12
BRANCH   7  25
ATOM     25  O   UNL     1      36.078 -18.269 -21.522  0.00  0.00    -0.453 OA
BRANCH  25  27
ATOM     26  N   UNL     1      33.811 -17.699 -24.958  0.00  0.00    -0.239 NA
ATOM     27  C   UNL     1      35.323 -18.079 -22.666  0.00  0.00    +0.149 C 
ATOM     28  C   UNL     1      35.100 -16.797 -23.122  0.00  0.00    +0.061 C 
ATOM     29  C   UNL     1      34.811 -19.175 -23.327  0.00  0.00    +0.058 C 
ATOM     30  C   UNL     1      34.338 -16.660 -24.272  0.00  0.00    +0.137 C 
ATOM     31  C   UNL     1      34.061 -18.933 -24.467  0.00  0.00    +0.102 C 
BRANCH  30  34
ATOM     32  O   UNL     1      34.102 -15.139 -26.040  0.00  0.00    -0.268 OA
ATOM     33  N   UNL     1      33.723 -14.336 -23.898  0.00  0.00    -0.298 N 
ATOM     34  C   UNL     1      34.060 -15.341 -24.813  0.00  0.00    +0.264 C 
ATOM     35  C   UNL     1      33.398 -12.980 -24.283  0.00  0.00    +0.111 C 
ATOM     36  H   UNL     1      33.709 -14.564 -22.941  0.00  0.00    +0.150 HD
ENDBRANCH  30  34
ENDBRANCH  25  27
ENDBRANCH   7  25
TORSDOF 6
ENDMDL
MODEL 8
REMARK VINA RESULT:     -12.5      5.674     10.163
REMARK  Name = 11167118
REMARK  6 active torsions:
REMARK  status: ('A' for Active; 'I' for Inactive)
REMARK    1  A    between atoms: N_2  and  C_6
REMARK    2  A    between atoms: N_2  and  C_15
REMARK    3  A    between atoms: C_8  and  O_25
REMARK    4  A    between atoms: C_17  and  C_24
REMARK    5  A    between atoms: O_25  and  C_27
REMARK    6  A    between atoms: C_30  and  C_34
REMARK                            x       y       z     vdW  Elec       q    Type
REMARK                         _______ _______ _______ _____ _____    ______ ____
ROOT
ATOM      1  N   UNL     1      34.674 -19.116 -21.031  0.00  0.00    -0.302 N 
ATOM      2  N   UNL     1      36.783 -18.991 -20.341  0.00  0.00    -0.302 N 
ATOM      3  C   UNL     1      34.840 -20.169 -20.169  0.00  0.00    +0.063 C 
ATOM      4  C   UNL     1      36.165 -20.069 -19.752  0.00  0.00    +0.060 C 
ATOM      5  C   UNL     1      35.861 -18.442 -21.101  0.00  0.00    +0.225 C 
ATOM      6  C   UNL     1      33.973 -21.171 -19.731  0.00  0.00    +0.053 C 
ATOM      7  C   UNL     1      34.493 -22.104 -18.828  0.00  0.00    +0.147 C 
ATOM      8  C   UNL     1      36.671 -21.015 -18.845  0.00  0.00    +0.019 C 
ATOM      9  C   UNL     1      35.818 -22.029 -18.391  0.00  0.00    +0.039 C 
ATOM     10  H   UNL     1      33.847 -18.887 -21.513  0.00  0.00    +0.150 HD
ATOM     11  H   UNL     1      37.714 -18.693 -20.221  0.00  0.00    +0.150 HD
ENDROOT
BRANCH   5  12
ATOM     12  N   UNL     1      35.934 -17.355 -21.900  0.00  0.00    -0.303 N 
ATOM     13  H   UNL     1      36.603 -17.413 -22.619  0.00  0.00    +0.150 HD
BRANCH  12  15
ATOM     14 CL   UNL     1      32.864 -12.289 -21.720  0.00  0.00    -0.082 Cl
ATOM     15  C   UNL     1      35.196 -16.137 -21.867  0.00  0.00    +0.047 C 
ATOM     16  C   UNL     1      34.768 -15.564 -23.056  0.00  0.00    +0.019 C 
ATOM     17  C   UNL     1      34.045 -14.371 -23.024  0.00  0.00    +0.083 C 
ATOM     18  C   UNL     1      34.914 -15.542 -20.645  0.00  0.00    +0.015 C 
ATOM     19  C   UNL     1      33.757 -13.764 -21.801  0.00  0.00    +0.062 C 
ATOM     20  C   UNL     1      34.192 -14.349 -20.612  0.00  0.00    +0.013 C 
BRANCH  17  24
ATOM     21  F   UNL     1      34.064 -12.517 -24.492  0.00  0.00    -0.166 F 
ATOM     22  F   UNL     1      34.015 -14.497 -25.389  0.00  0.00    -0.166 F 
ATOM     23  F   UNL     1      32.245 -13.715 -24.385  0.00  0.00    -0.166 F 
ATOM     24  C   UNL     1      33.597 -13.777 -24.319  0.00  0.00    +0.419 C 
ENDBRANCH  17  24
ENDBRANCH  12  15
ENDBRANCH   5  12
BRANCH   7  25
ATOM     25  O   UNL     1      33.691 -23.105 -18.366  0.00  0.00    -0.453 OA
BRANCH  25  27
ATOM     26  N   UNL     1      32.689 -23.068 -14.333  0.00  0.00    -0.239 NA
ATOM     27  C   UNL     1      33.358 -23.093 -17.024  0.00  0.00    +0.149 C 
ATOM     28  C   UNL     1      32.028 -23.052 -16.659  0.00  0.00    +0.061 C 
ATOM     29  C   UNL     1      34.361 -23.122 -16.079  0.00  0.00    +0.058 C 
ATOM     30  C   UNL     1      31.746 -23.041 -15.302  0.00  0.00    +0.137 C 
ATOM     31  C   UNL     1      33.976 -23.108 -14.748  0.00  0.00    +0.102 C 
BRANCH  30  34
ATOM     32  O   UNL     1      30.102 -23.144 -13.634  0.00  0.00    -0.268 OA
ATOM     33  N   UNL     1      29.382 -22.763 -15.804  0.00  0.00    -0.298 N 
ATOM     34  C   UNL     1      30.370 -22.998 -14.840  0.00  0.00    +0.264 C 
ATOM     35  C   UNL     1      27.972 -22.670 -15.499  0.00  0.00    +0.111 C 
ATOM     36  H   UNL     1      29.663 -22.657 -16.742  0.00  0.00    +0.150 HD
ENDBRANCH  30  34
ENDBRANCH  25  27
ENDBRANCH   7  25
TORSDOF 6
ENDMDL
MODEL 9
REMARK VINA RESULT:     -12.4      6.124     10.743
REMARK  Name = 11167118
REMARK  6 active torsions:
REMARK  status: ('A' for Active; 'I' for Inactive)
REMARK    1  A    between atoms: N_2  and  C_6
REMARK    2  A    between atoms: N_2  and  C_15
REMARK    3  A    between atoms: C_8  and  O_25
REMARK    4  A    between atoms: C_17  and  C_24
REMARK    5  A    between atoms: O_25  and  C_27
REMARK    6  A    between atoms: C_30  and  C_34
REMARK                            x       y       z     vdW  Elec       q    Type
REMARK                         _______ _______ _______ _____ _____    ______ ____
ROOT
ATOM      1  N   UNL     1      33.917 -22.897 -16.774  0.00  0.00    -0.302 N 
ATOM      2  N   UNL     1      31.720 -22.578 -16.872  0.00  0.00    -0.302 N 
ATOM      3  C   UNL     1      33.439 -23.266 -15.543  0.00  0.00    +0.063 C 
ATOM      4  C   UNL     1      32.065 -23.057 -15.630  0.00  0.00    +0.060 C 
ATOM      5  C   UNL     1      32.854 -22.494 -17.533  0.00  0.00    +0.225 C 
ATOM      6  C   UNL     1      34.070 -23.749 -14.396  0.00  0.00    +0.053 C 
ATOM      7  C   UNL     1      33.251 -24.028 -13.297  0.00  0.00    +0.147 C 
ATOM      8  C   UNL     1      31.257 -23.342 -14.516  0.00  0.00    +0.019 C 
ATOM      9  C   UNL     1      31.870 -23.829 -13.354  0.00  0.00    +0.039 C 
ATOM     10  H   UNL     1      34.859 -22.919 -17.060  0.00  0.00    +0.150 HD
ATOM     11  H   UNL     1      30.820 -22.347 -17.198  0.00  0.00    +0.150 HD
ENDROOT
BRANCH   5  12
ATOM     12  N   UNL     1      33.090 -22.082 -18.798  0.00  0.00    -0.303 N 
ATOM     13  H   UNL     1      32.416 -22.365 -19.457  0.00  0.00    +0.150 HD
BRANCH  12  15
ATOM     14 CL   UNL     1      37.558 -18.859 -20.979  0.00  0.00    -0.082 Cl
ATOM     15  C   UNL     1      34.157 -21.304 -19.329  0.00  0.00    +0.047 C 
ATOM     16  C   UNL     1      33.922 -20.470 -20.413  0.00  0.00    +0.019 C 
ATOM     17  C   UNL     1      34.968 -19.708 -20.933  0.00  0.00    +0.083 C 
ATOM     18  C   UNL     1      35.418 -21.392 -18.755  0.00  0.00    +0.015 C 
ATOM     19  C   UNL     1      36.240 -19.788 -20.364  0.00  0.00    +0.062 C 
ATOM     20  C   UNL     1      36.464 -20.630 -19.275  0.00  0.00    +0.013 C 
BRANCH  17  24
ATOM     21  F   UNL     1      34.802 -17.506 -21.781  0.00  0.00    -0.166 F 
ATOM     22  F   UNL     1      35.530 -19.042 -23.136  0.00  0.00    -0.166 F 
ATOM     23  F   UNL     1      33.427 -19.007 -22.564  0.00  0.00    -0.166 F 
ATOM     24  C   UNL     1      34.686 -18.818 -22.100  0.00  0.00    +0.419 C 
ENDBRANCH  17  24
ENDBRANCH  12  15
ENDBRANCH   5  12
BRANCH   7  25
ATOM     25  O   UNL     1      33.813 -24.502 -12.149  0.00  0.00    -0.453 OA
BRANCH  25  27
ATOM     26  N   UNL     1      37.924 -24.090 -11.703  0.00  0.00    -0.239 NA
ATOM     27  C   UNL     1      35.181 -24.365 -12.000  0.00  0.00    +0.149 C 
ATOM     28  C   UNL     1      36.023 -25.204 -12.699  0.00  0.00    +0.061 C 
ATOM     29  C   UNL     1      35.675 -23.392 -11.158  0.00  0.00    +0.058 C 
ATOM     30  C   UNL     1      37.385 -25.027 -12.516  0.00  0.00    +0.137 C 
ATOM     31  C   UNL     1      37.052 -23.295 -11.043  0.00  0.00    +0.102 C 
BRANCH  30  34
ATOM     32  O   UNL     1      37.994 -26.993 -13.638  0.00  0.00    -0.268 OA
ATOM     33  N   UNL     1      39.622 -25.358 -13.414  0.00  0.00    -0.298 N 
ATOM     34  C   UNL     1      38.335 -25.873 -13.218  0.00  0.00    +0.264 C 
ATOM     35  C   UNL     1      40.670 -26.069 -14.113  0.00  0.00    +0.111 C 
ATOM     36  H   UNL     1      39.826 -24.464 -13.056  0.00  0.00    +0.150 HD
ENDBRANCH  30  34
ENDBRANCH  25  27
ENDBRANCH   7  25
TORSDOF 6
ENDMDL
