MODEL 1
REMARK VINA RESULT:     -11.8      0.000      0.000
REMARK  Name = 24871491
REMARK  6 active torsions:
REMARK  status: ('A' for Active; 'I' for Inactive)
REMARK    1  A    between atoms: N_1  and  C_11
REMARK    2  A    between atoms: N_2  and  C_18
REMARK    3  A    between atoms: C_6  and  C_31
REMARK    4  A    between atoms: C_19  and  C_24
REMARK    5  A    between atoms: C_24  and  C_26
REMARK    6  A    between atoms: C_26  and  O_27
REMARK                            x       y       z     vdW  Elec       q    Type
REMARK                         _______ _______ _______ _____ _____    ______ ____
ROOT
ATOM      1  N   UNL     1      32.068 -23.025 -17.035  0.00  0.00    -0.287 N 
ATOM      2  N   UNL     1      33.961 -24.200 -12.881  0.00  0.00    -0.247 N 
ATOM      3  N   UNL     1      33.032 -23.616 -14.952  0.00  0.00    -0.322 NA
ATOM      4  N   UNL     1      31.632 -23.996 -13.028  0.00  0.00    -0.169 NA
ATOM      5  C   UNL     1      31.917 -23.357 -15.666  0.00  0.00    +0.202 C 
ATOM      6  C   UNL     1      30.642 -23.397 -15.139  0.00  0.00    +0.118 C 
ATOM      7  C   UNL     1      32.819 -23.924 -13.658  0.00  0.00    +0.150 C 
ATOM      8  C   UNL     1      30.559 -23.726 -13.801  0.00  0.00    +0.120 C 
ATOM      9  H   UNL     1      31.305 -23.294 -17.595  0.00  0.00    +0.155 HD
ATOM     10  H   UNL     1      33.758 -24.419 -11.943  0.00  0.00    +0.165 HD
ENDROOT
BRANCH   1  11
ATOM     11  C   UNL     1      33.095 -22.385 -17.747  0.00  0.00    +0.050 C 
ATOM     12  C   UNL     1      32.782 -21.479 -18.761  0.00  0.00    +0.010 C 
ATOM     13  C   UNL     1      33.803 -20.845 -19.468  0.00  0.00    -0.021 C 
ATOM     14  C   UNL     1      34.429 -22.655 -17.441  0.00  0.00    +0.015 C 
ATOM     15  C   UNL     1      35.137 -21.114 -19.162  0.00  0.00    -0.004 C 
ATOM     16  C   UNL     1      35.450 -22.021 -18.149  0.00  0.00    +0.001 C 
ATOM     17  C   UNL     1      33.469 -19.877 -20.552  0.00  0.00    +0.031 C 
ENDBRANCH   1  11
BRANCH   2  18
ATOM     18  C   UNL     1      35.339 -24.224 -13.182  0.00  0.00    +0.058 C 
ATOM     19  C   UNL     1      38.063 -24.270 -13.777  0.00  0.00    -0.011 C 
ATOM     20  C   UNL     1      36.227 -23.446 -12.441  0.00  0.00    +0.015 C 
ATOM     21  C   UNL     1      35.812 -25.025 -14.221  0.00  0.00    +0.015 C 
ATOM     22  C   UNL     1      37.590 -23.469 -12.739  0.00  0.00    -0.002 C 
ATOM     23  C   UNL     1      37.174 -25.048 -14.519  0.00  0.00    -0.002 C 
BRANCH  19  24
ATOM     24  C   UNL     1      39.520 -24.294 -14.096  0.00  0.00    +0.136 C 
BRANCH  24  26
ATOM     25  O   UNL     1      40.245 -26.510 -13.391  0.00  0.00    -0.250 OA
ATOM     26  C   UNL     1      40.074 -25.693 -14.286  0.00  0.00    +0.318 C 
BRANCH  26  27
ATOM     27  O   UNL     1      40.370 -25.948 -15.588  0.00  0.00    -0.480 OA
ATOM     28  H   UNL     1      41.237 -26.208 -15.829  0.00  0.00    +0.295 HD
ENDBRANCH  26  27
ENDBRANCH  24  26
ENDBRANCH  19  24
ENDBRANCH   2  18
BRANCH   6  31
ATOM     29  O   UNL     1      29.267 -22.023 -16.470  0.00  0.00    -0.270 OA
ATOM     30  N   UNL     1      28.489 -24.130 -16.010  0.00  0.00    -0.325 N 
ATOM     31  C   UNL     1      29.439 -23.119 -15.907  0.00  0.00    +0.248 C 
ATOM     32  H   UNL     1      27.662 -23.978 -16.522  0.00  0.00    +0.145 HD
ATOM     33  H   UNL     1      28.643 -24.997 -15.571  0.00  0.00    +0.145 HD
ENDBRANCH   6  31
TORSDOF 6
ENDMDL
MODEL 2
REMARK VINA RESULT:     -11.4      2.136      7.322
REMARK  Name = 24871491
REMARK  6 active torsions:
REMARK  status: ('A' for Active; 'I' for Inactive)
REMARK    1  A    between atoms: N_1  and  C_11
REMARK    2  A    between atoms: N_2  and  C_18
REMARK    3  A    between atoms: C_6  and  C_31
REMARK    4  A    between atoms: C_19  and  C_24
REMARK    5  A    between atoms: C_24  and  C_26
REMARK    6  A    between atoms: C_26  and  O_27
REMARK                            x       y       z     vdW  Elec       q    Type
REMARK                         _______ _______ _______ _____ _____    ______ ____
ROOT
ATOM      1  N   UNL     1      35.702 -22.486 -15.074  0.00  0.00    -0.287 N 
ATOM      2  N   UNL     1      31.925 -24.465 -13.063  0.00  0.00    -0.247 N 
ATOM      3  N   UNL     1      33.795 -23.476 -14.073  0.00  0.00    -0.322 NA
ATOM      4  N   UNL     1      34.001 -24.685 -11.999  0.00  0.00    -0.169 NA
ATOM      5  C   UNL     1      35.123 -23.237 -14.022  0.00  0.00    +0.202 C 
ATOM      6  C   UNL     1      35.944 -23.683 -13.007  0.00  0.00    +0.118 C 
ATOM      7  C   UNL     1      33.308 -24.195 -13.043  0.00  0.00    +0.150 C 
ATOM      8  C   UNL     1      35.323 -24.409 -12.011  0.00  0.00    +0.120 C 
ATOM      9  H   UNL     1      36.487 -21.959 -14.801  0.00  0.00    +0.155 HD
ATOM     10  H   UNL     1      31.615 -24.993 -12.293  0.00  0.00    +0.165 HD
ENDROOT
BRANCH   1  11
ATOM     11  C   UNL     1      35.373 -22.347 -16.433  0.00  0.00    +0.050 C 
ATOM     12  C   UNL     1      36.219 -21.637 -17.286  0.00  0.00    +0.010 C 
ATOM     13  C   UNL     1      35.891 -21.500 -18.635  0.00  0.00    -0.021 C 
ATOM     14  C   UNL     1      34.203 -22.920 -16.929  0.00  0.00    +0.015 C 
ATOM     15  C   UNL     1      34.721 -22.073 -19.131  0.00  0.00    -0.004 C 
ATOM     16  C   UNL     1      33.876 -22.782 -18.278  0.00  0.00    +0.001 C 
ATOM     17  C   UNL     1      36.794 -20.740 -19.547  0.00  0.00    +0.031 C 
ENDBRANCH   1  11
BRANCH   2  18
ATOM     18  C   UNL     1      30.899 -24.127 -13.969  0.00  0.00    +0.058 C 
ATOM     19  C   UNL     1      28.869 -23.458 -15.760  0.00  0.00    -0.011 C 
ATOM     20  C   UNL     1      30.680 -22.792 -14.307  0.00  0.00    +0.015 C 
ATOM     21  C   UNL     1      30.102 -25.128 -14.525  0.00  0.00    +0.015 C 
ATOM     22  C   UNL     1      29.664 -22.457 -15.204  0.00  0.00    -0.002 C 
ATOM     23  C   UNL     1      29.087 -24.793 -15.421  0.00  0.00    -0.002 C 
BRANCH  19  24
ATOM     24  C   UNL     1      27.783 -23.100 -16.718  0.00  0.00    +0.136 C 
BRANCH  24  26
ATOM     25  O   UNL     1      26.206 -22.281 -15.054  0.00  0.00    -0.250 OA
ATOM     26  C   UNL     1      26.754 -22.149 -16.139  0.00  0.00    +0.318 C 
BRANCH  26  27
ATOM     27  O   UNL     1      26.499 -21.108 -16.976  0.00  0.00    -0.480 OA
ATOM     28  H   UNL     1      25.622 -20.935 -17.253  0.00  0.00    +0.295 HD
ENDBRANCH  26  27
ENDBRANCH  24  26
ENDBRANCH  19  24
ENDBRANCH   2  18
BRANCH   6  31
ATOM     29  O   UNL     1      38.085 -23.489 -13.969  0.00  0.00    -0.270 OA
ATOM     30  N   UNL     1      37.922 -23.086 -11.718  0.00  0.00    -0.325 N 
ATOM     31  C   UNL     1      37.374 -23.426 -12.950  0.00  0.00    +0.248 C 
ATOM     32  H   UNL     1      38.887 -22.906 -11.641  0.00  0.00    +0.145 HD
ATOM     33  H   UNL     1      37.346 -23.028 -10.922  0.00  0.00    +0.145 HD
ENDBRANCH   6  31
TORSDOF 6
ENDMDL
MODEL 3
REMARK VINA RESULT:     -11.2      3.126      6.673
REMARK  Name = 24871491
REMARK  6 active torsions:
REMARK  status: ('A' for Active; 'I' for Inactive)
REMARK    1  A    between atoms: N_1  and  C_11
REMARK    2  A    between atoms: N_2  and  C_18
REMARK    3  A    between atoms: C_6  and  C_31
REMARK    4  A    between atoms: C_19  and  C_24
REMARK    5  A    between atoms: C_24  and  C_26
REMARK    6  A    between atoms: C_26  and  O_27
REMARK                            x       y       z     vdW  Elec       q    Type
REMARK                         _______ _______ _______ _____ _____    ______ ____
ROOT
ATOM      1  N   UNL     1      34.133 -23.505 -14.058  0.00  0.00    -0.287 N 
ATOM      2  N   UNL     1      32.107 -22.079 -18.069  0.00  0.00    -0.247 N 
ATOM      3  N   UNL     1      33.126 -22.782 -16.079  0.00  0.00    -0.322 NA
ATOM      4  N   UNL     1      30.788 -23.199 -16.488  0.00  0.00    -0.169 NA
ATOM      5  C   UNL     1      32.989 -23.401 -14.887  0.00  0.00    +0.202 C 
ATOM      6  C   UNL     1      31.801 -23.937 -14.433  0.00  0.00    +0.118 C 
ATOM      7  C   UNL     1      32.001 -22.718 -16.817  0.00  0.00    +0.150 C 
ATOM      8  C   UNL     1      30.722 -23.804 -15.284  0.00  0.00    +0.120 C 
ATOM      9  H   UNL     1      33.926 -23.515 -13.096  0.00  0.00    +0.155 HD
ATOM     10  H   UNL     1      31.262 -22.056 -18.573  0.00  0.00    +0.165 HD
ENDROOT
BRANCH   1  11
ATOM     11  C   UNL     1      35.505 -23.595 -14.343  0.00  0.00    +0.050 C 
ATOM     12  C   UNL     1      36.229 -24.717 -13.937  0.00  0.00    +0.010 C 
ATOM     13  C   UNL     1      37.592 -24.806 -14.220  0.00  0.00    -0.021 C 
ATOM     14  C   UNL     1      36.143 -22.566 -15.034  0.00  0.00    +0.015 C 
ATOM     15  C   UNL     1      38.231 -23.776 -14.911  0.00  0.00    -0.004 C 
ATOM     16  C   UNL     1      37.506 -22.655 -15.316  0.00  0.00    +0.001 C 
ATOM     17  C   UNL     1      38.367 -26.003 -13.785  0.00  0.00    +0.031 C 
ENDBRANCH   1  11
BRANCH   2  18
ATOM     18  C   UNL     1      33.185 -21.466 -18.741  0.00  0.00    +0.058 C 
ATOM     19  C   UNL     1      35.316 -20.255 -20.071  0.00  0.00    -0.011 C 
ATOM     20  C   UNL     1      32.942 -20.462 -19.677  0.00  0.00    +0.015 C 
ATOM     21  C   UNL     1      34.494 -21.866 -18.470  0.00  0.00    +0.015 C 
ATOM     22  C   UNL     1      34.008 -19.856 -20.342  0.00  0.00    -0.002 C 
ATOM     23  C   UNL     1      35.559 -21.260 -19.134  0.00  0.00    -0.002 C 
BRANCH  19  24
ATOM     24  C   UNL     1      36.456 -19.606 -20.782  0.00  0.00    +0.136 C 
BRANCH  24  26
ATOM     25  O   UNL     1      36.126 -17.814 -22.397  0.00  0.00    -0.250 OA
ATOM     26  C   UNL     1      36.160 -18.190 -21.233  0.00  0.00    +0.318 C 
BRANCH  26  27
ATOM     27  O   UNL     1      35.932 -17.360 -20.180  0.00  0.00    -0.480 OA
ATOM     28  H   UNL     1      36.283 -17.567 -19.337  0.00  0.00    +0.295 HD
ENDBRANCH  26  27
ENDBRANCH  24  26
ENDBRANCH  19  24
ENDBRANCH   2  18
BRANCH   6  31
ATOM     29  O   UNL     1      32.627 -24.801 -12.404  0.00  0.00    -0.270 OA
ATOM     30  N   UNL     1      30.372 -24.995 -12.769  0.00  0.00    -0.325 N 
ATOM     31  C   UNL     1      31.651 -24.602 -13.149  0.00  0.00    +0.248 C 
ATOM     32  H   UNL     1      30.232 -25.449 -11.907  0.00  0.00    +0.145 HD
ATOM     33  H   UNL     1      29.606 -24.820 -13.363  0.00  0.00    +0.145 HD
ENDBRANCH   6  31
TORSDOF 6
ENDMDL
MODEL 4
REMARK VINA RESULT:     -11.1      2.083      7.016
REMARK  Name = 24871491
REMARK  6 active torsions:
REMARK  status: ('A' for Active; 'I' for Inactive)
REMARK    1  A    between atoms: N_1  and  C_11
REMARK    2  A    between atoms: N_2  and  C_18
REMARK    3  A    between atoms: C_6  and  C_31
REMARK    4  A    between atoms: C_19  and  C_24
REMARK    5  A    between atoms: C_24  and  C_26
REMARK    6  A    between atoms: C_26  and  O_27
REMARK                            x       y       z     vdW  Elec       q    Type
REMARK                         _______ _______ _______ _____ _____    ______ ____
ROOT
ATOM      1  N   UNL     1      35.988 -22.571 -16.158  0.00  0.00    -0.287 N 
ATOM      2  N   UNL     1      32.987 -24.851 -13.325  0.00  0.00    -0.247 N 
ATOM      3  N   UNL     1      34.469 -23.711 -14.739  0.00  0.00    -0.322 NA
ATOM      4  N   UNL     1      35.280 -25.277 -13.099  0.00  0.00    -0.169 NA
ATOM      5  C   UNL     1      35.748 -23.496 -15.112  0.00  0.00    +0.202 C 
ATOM      6  C   UNL     1      36.831 -24.126 -14.534  0.00  0.00    +0.118 C 
ATOM      7  C   UNL     1      34.310 -24.601 -13.741  0.00  0.00    +0.150 C 
ATOM      8  C   UNL     1      36.535 -25.015 -13.521  0.00  0.00    +0.120 C 
ATOM      9  H   UNL     1      36.854 -22.109 -16.089  0.00  0.00    +0.155 HD
ATOM     10  H   UNL     1      32.920 -25.507 -12.595  0.00  0.00    +0.165 HD
ENDROOT
BRANCH   1  11
ATOM     11  C   UNL     1      35.228 -22.185 -17.275  0.00  0.00    +0.050 C 
ATOM     12  C   UNL     1      35.802 -21.389 -18.267  0.00  0.00    +0.010 C 
ATOM     13  C   UNL     1      35.047 -21.007 -19.376  0.00  0.00    -0.021 C 
ATOM     14  C   UNL     1      33.902 -22.599 -17.393  0.00  0.00    +0.015 C 
ATOM     15  C   UNL     1      33.721 -21.420 -19.494  0.00  0.00    -0.004 C 
ATOM     16  C   UNL     1      33.147 -22.215 -18.502  0.00  0.00    +0.001 C 
ATOM     17  C   UNL     1      35.659 -20.154 -20.436  0.00  0.00    +0.031 C 
ENDBRANCH   1  11
BRANCH   2  18
ATOM     18  C   UNL     1      31.741 -24.345 -13.749  0.00  0.00    +0.058 C 
ATOM     19  C   UNL     1      29.276 -23.346 -14.589  0.00  0.00    -0.011 C 
ATOM     20  C   UNL     1      30.660 -25.209 -13.919  0.00  0.00    +0.015 C 
ATOM     21  C   UNL     1      31.591 -22.981 -14.000  0.00  0.00    +0.015 C 
ATOM     22  C   UNL     1      29.427 -24.710 -14.339  0.00  0.00    -0.002 C 
ATOM     23  C   UNL     1      30.358 -22.482 -14.420  0.00  0.00    -0.002 C 
BRANCH  19  24
ATOM     24  C   UNL     1      27.958 -22.812 -15.038  0.00  0.00    +0.136 C 
BRANCH  24  26
ATOM     25  O   UNL     1      28.266 -23.522 -17.347  0.00  0.00    -0.250 OA
ATOM     26  C   UNL     1      27.829 -22.708 -16.545  0.00  0.00    +0.318 C 
BRANCH  26  27
ATOM     27  O   UNL     1      27.161 -21.585 -16.920  0.00  0.00    -0.480 OA
ATOM     28  H   UNL     1      27.123 -21.342 -17.824  0.00  0.00    +0.295 HD
ENDBRANCH  26  27
ENDBRANCH  24  26
ENDBRANCH  19  24
ENDBRANCH   2  18
BRANCH   6  31
ATOM     29  O   UNL     1      38.576 -22.800 -15.398  0.00  0.00    -0.270 OA
ATOM     30  N   UNL     1      39.117 -24.936 -14.763  0.00  0.00    -0.325 N 
ATOM     31  C   UNL     1      38.210 -23.895 -14.934  0.00  0.00    +0.248 C 
ATOM     32  H   UNL     1      40.059 -24.817 -15.023  0.00  0.00    +0.145 HD
ATOM     33  H   UNL     1      38.816 -25.793 -14.383  0.00  0.00    +0.145 HD
ENDBRANCH   6  31
TORSDOF 6
ENDMDL
MODEL 5
REMARK VINA RESULT:     -10.6      3.096      7.139
REMARK  Name = 24871491
REMARK  6 active torsions:
REMARK  status: ('A' for Active; 'I' for Inactive)
REMARK    1  A    between atoms: N_1  and  C_11
REMARK    2  A    between atoms: N_2  and  C_18
REMARK    3  A    between atoms: C_6  and  C_31
REMARK    4  A    between atoms: C_19  and  C_24
REMARK    5  A    between atoms: C_24  and  C_26
REMARK    6  A    between atoms: C_26  and  O_27
REMARK                            x       y       z     vdW  Elec       q    Type
REMARK                         _______ _______ _______ _____ _____    ______ ____
ROOT
ATOM      1  N   UNL     1      34.289 -24.629 -13.785  0.00  0.00    -0.287 N 
ATOM      2  N   UNL     1      37.286 -22.316 -16.594  0.00  0.00    -0.247 N 
ATOM      3  N   UNL     1      35.786 -23.463 -15.205  0.00  0.00    -0.322 NA
ATOM      4  N   UNL     1      38.143 -23.414 -14.709  0.00  0.00    -0.169 NA
ATOM      5  C   UNL     1      35.607 -24.215 -14.099  0.00  0.00    +0.202 C 
ATOM      6  C   UNL     1      36.632 -24.601 -13.260  0.00  0.00    +0.118 C 
ATOM      7  C   UNL     1      37.062 -23.103 -15.447  0.00  0.00    +0.150 C 
ATOM      8  C   UNL     1      37.893 -24.168 -13.618  0.00  0.00    +0.120 C 
ATOM      9  H   UNL     1      34.246 -25.489 -13.309  0.00  0.00    +0.155 HD
ATOM     10  H   UNL     1      38.231 -22.077 -16.730  0.00  0.00    +0.165 HD
ENDROOT
BRANCH   1  11
ATOM     11  C   UNL     1      33.032 -24.050 -14.021  0.00  0.00    +0.050 C 
ATOM     12  C   UNL     1      32.716 -23.563 -15.290  0.00  0.00    +0.010 C 
ATOM     13  C   UNL     1      31.467 -22.988 -15.524  0.00  0.00    -0.021 C 
ATOM     14  C   UNL     1      32.099 -23.963 -12.988  0.00  0.00    +0.015 C 
ATOM     15  C   UNL     1      30.533 -22.901 -14.491  0.00  0.00    -0.004 C 
ATOM     16  C   UNL     1      30.850 -23.388 -13.222  0.00  0.00    +0.001 C 
ATOM     17  C   UNL     1      31.128 -22.466 -16.879  0.00  0.00    +0.031 C 
ENDBRANCH   1  11
BRANCH   2  18
ATOM     18  C   UNL     1      36.424 -21.804 -17.585  0.00  0.00    +0.058 C 
ATOM     19  C   UNL     1      34.719 -20.791 -19.546  0.00  0.00    -0.011 C 
ATOM     20  C   UNL     1      36.919 -20.939 -18.560  0.00  0.00    +0.015 C 
ATOM     21  C   UNL     1      35.076 -22.163 -17.590  0.00  0.00    +0.015 C 
ATOM     22  C   UNL     1      36.066 -20.432 -19.541  0.00  0.00    -0.002 C 
ATOM     23  C   UNL     1      34.224 -21.656 -18.571  0.00  0.00    -0.002 C 
BRANCH  19  24
ATOM     24  C   UNL     1      33.807 -20.249 -20.595  0.00  0.00    +0.136 C 
BRANCH  24  26
ATOM     25  O   UNL     1      34.854 -19.682 -22.719  0.00  0.00    -0.250 OA
ATOM     26  C   UNL     1      34.504 -19.348 -21.595  0.00  0.00    +0.318 C 
BRANCH  26  27
ATOM     27  O   UNL     1      34.704 -18.099 -21.098  0.00  0.00    -0.480 OA
ATOM     28  H   UNL     1      34.043 -17.692 -20.574  0.00  0.00    +0.295 HD
ENDBRANCH  26  27
ENDBRANCH  24  26
ENDBRANCH  19  24
ENDBRANCH   2  18
BRANCH   6  31
ATOM     29  O   UNL     1      35.682 -25.050 -11.152  0.00  0.00    -0.270 OA
ATOM     30  N   UNL     1      37.124 -26.622 -11.993  0.00  0.00    -0.325 N 
ATOM     31  C   UNL     1      36.441 -25.412 -12.069  0.00  0.00    +0.248 C 
ATOM     32  H   UNL     1      37.020 -27.197 -11.200  0.00  0.00    +0.145 HD
ATOM     33  H   UNL     1      37.712 -26.902 -12.730  0.00  0.00    +0.145 HD
ENDBRANCH   6  31
TORSDOF 6
ENDMDL
MODEL 6
REMARK VINA RESULT:     -10.5      1.083      2.003
REMARK  Name = 24871491
REMARK  6 active torsions:
REMARK  status: ('A' for Active; 'I' for Inactive)
REMARK    1  A    between atoms: N_1  and  C_11
REMARK    2  A    between atoms: N_2  and  C_18
REMARK    3  A    between atoms: C_6  and  C_31
REMARK    4  A    between atoms: C_19  and  C_24
REMARK    5  A    between atoms: C_24  and  C_26
REMARK    6  A    between atoms: C_26  and  O_27
REMARK                            x       y       z     vdW  Elec       q    Type
REMARK                         _______ _______ _______ _____ _____    ______ ____
ROOT
ATOM      1  N   UNL     1      32.388 -23.122 -16.720  0.00  0.00    -0.287 N 
ATOM      2  N   UNL     1      33.736 -24.678 -12.479  0.00  0.00    -0.247 N 
ATOM      3  N   UNL     1      33.078 -23.906 -14.593  0.00  0.00    -0.322 NA
ATOM      4  N   UNL     1      31.481 -24.128 -12.802  0.00  0.00    -0.169 NA
ATOM      5  C   UNL     1      32.076 -23.465 -15.382  0.00  0.00    +0.202 C 
ATOM      6  C   UNL     1      30.770 -23.331 -14.959  0.00  0.00    +0.118 C 
ATOM      7  C   UNL     1      32.715 -24.215 -13.333  0.00  0.00    +0.150 C 
ATOM      8  C   UNL     1      30.528 -23.681 -13.646  0.00  0.00    +0.120 C 
ATOM      9  H   UNL     1      31.644 -23.260 -17.350  0.00  0.00    +0.155 HD
ATOM     10  H   UNL     1      33.425 -24.890 -11.570  0.00  0.00    +0.165 HD
ENDROOT
BRANCH   1  11
ATOM     11  C   UNL     1      33.554 -22.623 -17.324  0.00  0.00    +0.050 C 
ATOM     12  C   UNL     1      34.747 -22.573 -16.602  0.00  0.00    +0.010 C 
ATOM     13  C   UNL     1      35.904 -22.077 -17.202  0.00  0.00    -0.021 C 
ATOM     14  C   UNL     1      33.520 -22.177 -18.645  0.00  0.00    +0.015 C 
ATOM     15  C   UNL     1      35.870 -21.632 -18.523  0.00  0.00    -0.004 C 
ATOM     16  C   UNL     1      34.677 -21.681 -19.245  0.00  0.00    +0.001 C 
ATOM     17  C   UNL     1      37.179 -22.022 -16.430  0.00  0.00    +0.031 C 
ENDBRANCH   1  11
BRANCH   2  18
ATOM     18  C   UNL     1      35.116 -24.897 -12.671  0.00  0.00    +0.058 C 
ATOM     19  C   UNL     1      37.845 -25.331 -13.052  0.00  0.00    -0.011 C 
ATOM     20  C   UNL     1      35.581 -25.376 -13.895  0.00  0.00    +0.015 C 
ATOM     21  C   UNL     1      36.014 -24.635 -11.637  0.00  0.00    +0.015 C 
ATOM     22  C   UNL     1      36.947 -25.593 -14.086  0.00  0.00    -0.002 C 
ATOM     23  C   UNL     1      37.378 -24.852 -11.827  0.00  0.00    -0.002 C 
BRANCH  19  24
ATOM     24  C   UNL     1      39.304 -25.562 -13.255  0.00  0.00    +0.136 C 
BRANCH  24  26
ATOM     25  O   UNL     1      39.304 -23.857 -14.993  0.00  0.00    -0.250 OA
ATOM     26  C   UNL     1      39.922 -24.651 -14.297  0.00  0.00    +0.318 C 
BRANCH  26  27
ATOM     27  O   UNL     1      41.269 -24.815 -14.379  0.00  0.00    -0.480 OA
ATOM     28  H   UNL     1      41.776 -24.251 -14.928  0.00  0.00    +0.295 HD
ENDBRANCH  26  27
ENDBRANCH  24  26
ENDBRANCH  19  24
ENDBRANCH   2  18
BRANCH   6  31
ATOM     29  O   UNL     1      29.903 -22.088 -16.762  0.00  0.00    -0.270 OA
ATOM     30  N   UNL     1      28.402 -23.309 -15.531  0.00  0.00    -0.325 N 
ATOM     31  C   UNL     1      29.689 -22.857 -15.808  0.00  0.00    +0.248 C 
ATOM     32  H   UNL     1      27.645 -23.009 -16.085  0.00  0.00    +0.145 HD
ATOM     33  H   UNL     1      28.249 -23.928 -14.781  0.00  0.00    +0.145 HD
ENDBRANCH   6  31
TORSDOF 6
ENDMDL
MODEL 7
REMARK VINA RESULT:      -9.6      2.931      7.156
REMARK  Name = 24871491
REMARK  6 active torsions:
REMARK  status: ('A' for Active; 'I' for Inactive)
REMARK    1  A    between atoms: N_1  and  C_11
REMARK    2  A    between atoms: N_2  and  C_18
REMARK    3  A    between atoms: C_6  and  C_31
REMARK    4  A    between atoms: C_19  and  C_24
REMARK    5  A    between atoms: C_24  and  C_26
REMARK    6  A    between atoms: C_26  and  O_27
REMARK                            x       y       z     vdW  Elec       q    Type
REMARK                         _______ _______ _______ _____ _____    ______ ____
ROOT
ATOM      1  N   UNL     1      33.982 -24.422 -12.623  0.00  0.00    -0.287 N 
ATOM      2  N   UNL     1      37.156 -22.258 -15.355  0.00  0.00    -0.247 N 
ATOM      3  N   UNL     1      35.569 -23.334 -14.007  0.00  0.00    -0.322 NA
ATOM      4  N   UNL     1      37.783 -22.864 -13.180  0.00  0.00    -0.169 NA
ATOM      5  C   UNL     1      35.281 -23.891 -12.812  0.00  0.00    +0.202 C 
ATOM      6  C   UNL     1      36.179 -23.970 -11.767  0.00  0.00    +0.118 C 
ATOM      7  C   UNL     1      36.820 -22.848 -14.120  0.00  0.00    +0.150 C 
ATOM      8  C   UNL     1      37.428 -23.435 -12.010  0.00  0.00    +0.120 C 
ATOM      9  H   UNL     1      33.950 -25.179 -11.995  0.00  0.00    +0.155 HD
ATOM     10  H   UNL     1      38.078 -21.916 -15.392  0.00  0.00    +0.165 HD
ENDROOT
BRANCH   1  11
ATOM     11  C   UNL     1      32.730 -24.078 -13.159  0.00  0.00    +0.050 C 
ATOM     12  C   UNL     1      31.745 -25.055 -13.312  0.00  0.00    +0.010 C 
ATOM     13  C   UNL     1      30.502 -24.712 -13.844  0.00  0.00    -0.021 C 
ATOM     14  C   UNL     1      32.471 -22.761 -13.538  0.00  0.00    +0.015 C 
ATOM     15  C   UNL     1      30.243 -23.395 -14.223  0.00  0.00    -0.004 C 
ATOM     16  C   UNL     1      31.228 -22.420 -14.071  0.00  0.00    +0.001 C 
ATOM     17  C   UNL     1      29.449 -25.756 -14.009  0.00  0.00    +0.031 C 
ENDBRANCH   1  11
BRANCH   2  18
ATOM     18  C   UNL     1      36.431 -22.061 -16.548  0.00  0.00    +0.058 C 
ATOM     19  C   UNL     1      34.997 -21.672 -18.909  0.00  0.00    -0.011 C 
ATOM     20  C   UNL     1      35.136 -22.562 -16.668  0.00  0.00    +0.015 C 
ATOM     21  C   UNL     1      37.010 -21.365 -17.609  0.00  0.00    +0.015 C 
ATOM     22  C   UNL     1      34.418 -22.368 -17.848  0.00  0.00    -0.002 C 
ATOM     23  C   UNL     1      36.293 -21.170 -18.790  0.00  0.00    -0.002 C 
BRANCH  19  24
ATOM     24  C   UNL     1      34.230 -21.464 -20.171  0.00  0.00    +0.136 C 
BRANCH  24  26
ATOM     25  O   UNL     1      34.085 -19.077 -20.631  0.00  0.00    -0.250 OA
ATOM     26  C   UNL     1      33.552 -20.110 -20.250  0.00  0.00    +0.318 C 
BRANCH  26  27
ATOM     27  O   UNL     1      32.257 -20.168 -19.842  0.00  0.00    -0.480 OA
ATOM     28  H   UNL     1      31.657 -19.492 -20.089  0.00  0.00    +0.295 HD
ENDBRANCH  26  27
ENDBRANCH  24  26
ENDBRANCH  19  24
ENDBRANCH   2  18
BRANCH   6  31
ATOM     29  O   UNL     1      35.535 -25.764 -10.383  0.00  0.00    -0.270 OA
ATOM     30  N   UNL     1      35.982 -23.768  -9.347  0.00  0.00    -0.325 N 
ATOM     31  C   UNL     1      35.871 -24.570 -10.479  0.00  0.00    +0.248 C 
ATOM     32  H   UNL     1      35.781 -24.140  -8.458  0.00  0.00    +0.145 HD
ATOM     33  H   UNL     1      36.262 -22.828  -9.435  0.00  0.00    +0.145 HD
ENDBRANCH   6  31
TORSDOF 6
ENDMDL
MODEL 8
REMARK VINA RESULT:      -9.1      2.582      7.016
REMARK  Name = 24871491
REMARK  6 active torsions:
REMARK  status: ('A' for Active; 'I' for Inactive)
REMARK    1  A    between atoms: N_1  and  C_11
REMARK    2  A    between atoms: N_2  and  C_18
REMARK    3  A    between atoms: C_6  and  C_31
REMARK    4  A    between atoms: C_19  and  C_24
REMARK    5  A    between atoms: C_24  and  C_26
REMARK    6  A    between atoms: C_26  and  O_27
REMARK                            x       y       z     vdW  Elec       q    Type
REMARK                         _______ _______ _______ _____ _____    ______ ____
ROOT
ATOM      1  N   UNL     1      36.732 -22.764 -14.060  0.00  0.00    -0.287 N 
ATOM      2  N   UNL     1      33.060 -24.840 -11.957  0.00  0.00    -0.247 N 
ATOM      3  N   UNL     1      34.877 -23.801 -13.011  0.00  0.00    -0.322 NA
ATOM      4  N   UNL     1      35.202 -25.211 -11.084  0.00  0.00    -0.169 NA
ATOM      5  C   UNL     1      36.212 -23.600 -13.042  0.00  0.00    +0.202 C 
ATOM      6  C   UNL     1      37.093 -24.162 -12.141  0.00  0.00    +0.118 C 
ATOM      7  C   UNL     1      34.448 -24.606 -12.020  0.00  0.00    +0.150 C 
ATOM      8  C   UNL     1      36.527 -24.967 -11.174  0.00  0.00    +0.120 C 
ATOM      9  H   UNL     1      37.552 -22.285 -13.799  0.00  0.00    +0.155 HD
ATOM     10  H   UNL     1      32.792 -25.433 -11.219  0.00  0.00    +0.165 HD
ENDROOT
BRANCH   1  11
ATOM     11  C   UNL     1      36.306 -22.485 -15.368  0.00  0.00    +0.050 C 
ATOM     12  C   UNL     1      35.041 -22.895 -15.792  0.00  0.00    +0.010 C 
ATOM     13  C   UNL     1      34.619 -22.617 -17.092  0.00  0.00    -0.021 C 
ATOM     14  C   UNL     1      37.146 -21.798 -16.244  0.00  0.00    +0.015 C 
ATOM     15  C   UNL     1      35.459 -21.930 -17.968  0.00  0.00    -0.004 C 
ATOM     16  C   UNL     1      36.724 -21.522 -17.545  0.00  0.00    +0.001 C 
ATOM     17  C   UNL     1      33.268 -23.056 -17.546  0.00  0.00    +0.031 C 
ENDBRANCH   1  11
BRANCH   2  18
ATOM     18  C   UNL     1      31.979 -24.391 -12.743  0.00  0.00    +0.058 C 
ATOM     19  C   UNL     1      29.840 -23.502 -14.297  0.00  0.00    -0.011 C 
ATOM     20  C   UNL     1      31.789 -23.026 -12.952  0.00  0.00    +0.015 C 
ATOM     21  C   UNL     1      31.098 -25.313 -13.310  0.00  0.00    +0.015 C 
ATOM     22  C   UNL     1      30.719 -22.581 -13.730  0.00  0.00    -0.002 C 
ATOM     23  C   UNL     1      30.029 -24.868 -14.087  0.00  0.00    -0.002 C 
BRANCH  19  24
ATOM     24  C   UNL     1      28.696 -23.027 -15.129  0.00  0.00    +0.136 C 
BRANCH  24  26
ATOM     25  O   UNL     1      30.136 -22.265 -16.938  0.00  0.00    -0.250 OA
ATOM     26  C   UNL     1      29.073 -22.744 -16.569  0.00  0.00    +0.318 C 
BRANCH  26  27
ATOM     27  O   UNL     1      28.077 -23.086 -17.430  0.00  0.00    -0.480 OA
ATOM     28  H   UNL     1      27.560 -23.850 -17.267  0.00  0.00    +0.295 HD
ENDBRANCH  26  27
ENDBRANCH  24  26
ENDBRANCH  19  24
ENDBRANCH   2  18
BRANCH   6  31
ATOM     29  O   UNL     1      39.069 -23.064 -11.480  0.00  0.00    -0.270 OA
ATOM     30  N   UNL     1      39.292 -24.773 -12.992  0.00  0.00    -0.325 N 
ATOM     31  C   UNL     1      38.531 -23.946 -12.173  0.00  0.00    +0.248 C 
ATOM     32  H   UNL     1      40.269 -24.655 -13.039  0.00  0.00    +0.145 HD
ATOM     33  H   UNL     1      38.855 -25.475 -13.525  0.00  0.00    +0.145 HD
ENDBRANCH   6  31
TORSDOF 6
ENDMDL
