MODEL 1
REMARK VINA RESULT:     -11.7      0.000      0.000
REMARK  Name = 158376
REMARK  11 active torsions:
REMARK  status: ('A' for Active; 'I' for Inactive)
REMARK    1  A    between atoms: C_1  and  N_22
REMARK    2  A    between atoms: C_2  and  C_9
REMARK    3  A    between atoms: N_8  and  CA_11
REMARK    4  A    between atoms: CA_11  and  C_13
REMARK    5  A    between atoms: CA_11  and  CB_16
REMARK    6  A    between atoms: C_13  and  O_14
REMARK    7  A    between atoms: CB_16  and  CG_17
REMARK    8  A    between atoms: CG_17  and  CD_19
REMARK    9  A    between atoms: CD_19  and  OE1_20
REMARK   10  A    between atoms: N_22  and  C_24
REMARK   11  A    between atoms: C_24  and  C_29
REMARK                            x       y       z     vdW  Elec       q    Type
REMARK                         _______ _______ _______ _____ _____    ______ ____
ROOT
ATOM      1  C   UNL     1      35.629 -19.424 -20.494  0.00  0.00    +0.048 C 
ATOM      2  C   UNL     1      34.561 -21.580 -19.082  0.00  0.00    +0.053 C 
ATOM      3  C   UNL     1      34.250 -19.637 -20.486  0.00  0.00    +0.015 C 
ATOM      4  C   UNL     1      36.473 -20.287 -19.797  0.00  0.00    +0.015 C 
ATOM      5  C   UNL     1      33.717 -20.715 -19.779  0.00  0.00    +0.006 C 
ATOM      6  C   UNL     1      35.939 -21.366 -19.091  0.00  0.00    +0.006 C 
ENDROOT
BRANCH   2   9
ATOM      7  O   UNL     1      33.804 -23.793 -18.913  0.00  0.00    -0.270 OA
ATOM      8  N   UNL     1      33.734 -22.505 -16.985  0.00  0.00    -0.293 N 
ATOM      9  C   ACE A   0      33.992 -22.728 -18.330  0.00  0.00    +0.246 C 
ATOM     10  H   UNL     1      33.918 -21.614 -16.608  0.00  0.00    +0.150 HD
BRANCH   8  11
ATOM     11  CA  UNL     1      33.205 -23.527 -16.117  0.00  0.00    +0.172 C 
BRANCH  11  13
ATOM     12  OXT UNL     1      30.952 -22.696 -16.524  0.00  0.00    -0.248 OA
ATOM     13  C   UNL     1      31.793 -23.126 -15.744  0.00  0.00    +0.332 C 
BRANCH  13  14
ATOM     14  O   UNL     1      31.538 -23.334 -14.425  0.00  0.00    -0.479 OA
ATOM     15  H   UNL     1      31.832 -24.120 -14.010  0.00  0.00    +0.295 HD
ENDBRANCH  13  14
ENDBRANCH  11  13
BRANCH  11  16
ATOM     16  CB  UNL     1      34.109 -23.806 -14.910  0.00  0.00    +0.043 C 
BRANCH  16  17
ATOM     17  CG  UNL     1      35.291 -22.846 -14.725  0.00  0.00    +0.112 C 
BRANCH  17  19
ATOM     18  OE2 UNL     1      37.631 -23.061 -14.083  0.00  0.00    -0.250 OA
ATOM     19  CD  UNL     1      36.627 -23.542 -14.589  0.00  0.00    +0.314 C 
BRANCH  19  20
ATOM     20  OE1 UNL     1      36.603 -24.783 -15.143  0.00  0.00    -0.480 OA
ATOM     21  HE1 UNL     1      37.152 -25.460 -14.799  0.00  0.00    +0.295 HD
ENDBRANCH  19  20
ENDBRANCH  17  19
ENDBRANCH  16  17
ENDBRANCH  11  16
ENDBRANCH   8  11
ENDBRANCH   2   9
BRANCH   1  22
ATOM     22  N   UNL     1      36.169 -18.333 -21.207  0.00  0.00    -0.302 N 
ATOM     23  C   UNL     1      37.523 -18.390 -21.721  0.00  0.00    +0.112 C 
BRANCH  22  24
ATOM     24  C   UNL     1      35.372 -17.146 -21.448  0.00  0.00    +0.118 C 
BRANCH  24  29
ATOM     25  O   UNL     1      34.257 -17.467 -24.957  0.00  0.00    -0.427 OA
ATOM     26  N   UNL     1      33.603 -15.300 -25.718  0.00  0.00    -0.294 NA
ATOM     27  N   UNL     1      33.845 -13.554 -24.037  0.00  0.00    -0.317 NA
ATOM     28  N   UNL     1      33.039 -13.078 -26.182  0.00  0.00    -0.283 N 
ATOM     29  C   UNL     1      34.872 -16.975 -22.849  0.00  0.00    +0.031 C 
ATOM     30  C   UNL     1      34.443 -15.779 -23.474  0.00  0.00    +0.180 C 
ATOM     31  C   UNL     1      34.073 -16.129 -24.769  0.00  0.00    +0.281 C 
ATOM     32  C   UNL     1      34.740 -17.968 -23.791  0.00  0.00    +0.176 C 
ATOM     33  C   UNL     1      34.312 -14.437 -23.125  0.00  0.00    +0.181 C 
ATOM     34  C   UNL     1      33.523 -14.034 -25.259  0.00  0.00    +0.200 C 
ATOM     35  H   UNL     1      32.785 -13.357 -27.092  0.00  0.00    +0.156 HD
ATOM     36  H   UNL     1      32.955 -12.135 -25.915  0.00  0.00    +0.156 HD
ATOM     37  N   UNL     1      34.661 -13.986 -21.839  0.00  0.00    -0.335 N 
ATOM     38  H   UNL     1      34.563 -13.034 -21.607  0.00  0.00    +0.144 HD
ATOM     39  H   UNL     1      35.003 -14.622 -21.169  0.00  0.00    +0.144 HD
ENDBRANCH  24  29
ENDBRANCH  22  24
ENDBRANCH   1  22
TORSDOF 11
ENDMDL
MODEL 2
REMARK VINA RESULT:     -11.5      2.322      3.209
REMARK  Name = 158376
REMARK  11 active torsions:
REMARK  status: ('A' for Active; 'I' for Inactive)
REMARK    1  A    between atoms: C_1  and  N_22
REMARK    2  A    between atoms: C_2  and  C_9
REMARK    3  A    between atoms: N_8  and  CA_11
REMARK    4  A    between atoms: CA_11  and  C_13
REMARK    5  A    between atoms: CA_11  and  CB_16
REMARK    6  A    between atoms: C_13  and  O_14
REMARK    7  A    between atoms: CB_16  and  CG_17
REMARK    8  A    between atoms: CG_17  and  CD_19
REMARK    9  A    between atoms: CD_19  and  OE1_20
REMARK   10  A    between atoms: N_22  and  C_24
REMARK   11  A    between atoms: C_24  and  C_29
REMARK                            x       y       z     vdW  Elec       q    Type
REMARK                         _______ _______ _______ _____ _____    ______ ____
ROOT
ATOM      1  C   UNL     1      34.418 -19.880 -20.788  0.00  0.00    +0.048 C 
ATOM      2  C   UNL     1      33.625 -21.604 -18.742  0.00  0.00    +0.053 C 
ATOM      3  C   UNL     1      35.373 -20.618 -20.090  0.00  0.00    +0.015 C 
ATOM      4  C   UNL     1      33.067 -20.004 -20.465  0.00  0.00    +0.015 C 
ATOM      5  C   UNL     1      34.977 -21.480 -19.067  0.00  0.00    +0.006 C 
ATOM      6  C   UNL     1      32.671 -20.866 -19.441  0.00  0.00    +0.006 C 
ENDROOT
BRANCH   2   9
ATOM      7  O   UNL     1      34.000 -23.356 -17.231  0.00  0.00    -0.270 OA
ATOM      8  N   UNL     1      31.914 -22.342 -17.172  0.00  0.00    -0.293 N 
ATOM      9  C   ACE A   0      33.204 -22.522 -17.654  0.00  0.00    +0.246 C 
ATOM     10  H   UNL     1      31.350 -21.645 -17.578  0.00  0.00    +0.150 HD
BRANCH   8  11
ATOM     11  CA  UNL     1      31.369 -23.137 -16.102  0.00  0.00    +0.172 C 
BRANCH  11  13
ATOM     12  OXT UNL     1      29.236 -22.026 -16.487  0.00  0.00    -0.248 OA
ATOM     13  C   UNL     1      29.859 -23.034 -16.176  0.00  0.00    +0.332 C 
BRANCH  13  14
ATOM     14  O   UNL     1      29.255 -24.217 -15.891  0.00  0.00    -0.479 OA
ATOM     15  H   UNL     1      29.654 -25.022 -16.154  0.00  0.00    +0.295 HD
ENDBRANCH  13  14
ENDBRANCH  11  13
BRANCH  11  16
ATOM     16  CB  UNL     1      31.948 -22.764 -14.731  0.00  0.00    +0.043 C 
BRANCH  16  17
ATOM     17  CG  UNL     1      31.228 -23.362 -13.517  0.00  0.00    +0.112 C 
BRANCH  17  19
ATOM     18  OE2 UNL     1      30.671 -25.717 -13.806  0.00  0.00    -0.250 OA
ATOM     19  CD  UNL     1      31.421 -24.856 -13.367  0.00  0.00    +0.314 C 
BRANCH  19  20
ATOM     20  OE1 UNL     1      32.530 -25.146 -12.637  0.00  0.00    -0.480 OA
ATOM     21  HE1 UNL     1      32.830 -26.031 -12.573  0.00  0.00    +0.295 HD
ENDBRANCH  19  20
ENDBRANCH  17  19
ENDBRANCH  16  17
ENDBRANCH  11  16
ENDBRANCH   8  11
ENDBRANCH   2   9
BRANCH   1  22
ATOM     22  N   UNL     1      34.818 -19.009 -21.823  0.00  0.00    -0.302 N 
ATOM     23  C   UNL     1      34.234 -19.123 -23.145  0.00  0.00    +0.112 C 
BRANCH  22  24
ATOM     24  C   UNL     1      35.807 -17.979 -21.575  0.00  0.00    +0.118 C 
BRANCH  24  29
ATOM     25  O   UNL     1      34.532 -14.950 -19.883  0.00  0.00    -0.427 OA
ATOM     26  N   UNL     1      34.009 -13.339 -21.566  0.00  0.00    -0.294 NA
ATOM     27  N   UNL     1      34.443 -14.111 -23.835  0.00  0.00    -0.317 NA
ATOM     28  N   UNL     1      33.590 -11.971 -23.417  0.00  0.00    -0.283 N 
ATOM     29  C   UNL     1      35.265 -16.642 -21.174  0.00  0.00    +0.031 C 
ATOM     30  C   UNL     1      34.899 -15.568 -22.020  0.00  0.00    +0.180 C 
ATOM     31  C   UNL     1      34.455 -14.548 -21.184  0.00  0.00    +0.281 C 
ATOM     32  C   UNL     1      35.023 -16.217 -19.888  0.00  0.00    +0.176 C 
ATOM     33  C   UNL     1      34.881 -15.310 -23.389  0.00  0.00    +0.181 C 
ATOM     34  C   UNL     1      34.040 -13.212 -22.908  0.00  0.00    +0.200 C 
ATOM     35  H   UNL     1      33.281 -11.270 -22.798  0.00  0.00    +0.156 HD
ATOM     36  H   UNL     1      33.585 -11.810 -24.387  0.00  0.00    +0.156 HD
ATOM     37  N   UNL     1      35.310 -16.279 -24.315  0.00  0.00    -0.335 N 
ATOM     38  H   UNL     1      35.291 -16.081 -25.279  0.00  0.00    +0.144 HD
ATOM     39  H   UNL     1      35.630 -17.155 -23.999  0.00  0.00    +0.144 HD
ENDBRANCH  24  29
ENDBRANCH  22  24
ENDBRANCH   1  22
TORSDOF 11
ENDMDL
MODEL 3
REMARK VINA RESULT:     -11.2      1.448      1.991
REMARK  Name = 158376
REMARK  11 active torsions:
REMARK  status: ('A' for Active; 'I' for Inactive)
REMARK    1  A    between atoms: C_1  and  N_22
REMARK    2  A    between atoms: C_2  and  C_9
REMARK    3  A    between atoms: N_8  and  CA_11
REMARK    4  A    between atoms: CA_11  and  C_13
REMARK    5  A    between atoms: CA_11  and  CB_16
REMARK    6  A    between atoms: C_13  and  O_14
REMARK    7  A    between atoms: CB_16  and  CG_17
REMARK    8  A    between atoms: CG_17  and  CD_19
REMARK    9  A    between atoms: CD_19  and  OE1_20
REMARK   10  A    between atoms: N_22  and  C_24
REMARK   11  A    between atoms: C_24  and  C_29
REMARK                            x       y       z     vdW  Elec       q    Type
REMARK                         _______ _______ _______ _____ _____    ______ ____
ROOT
ATOM      1  C   UNL     1      35.541 -19.891 -20.343  0.00  0.00    +0.048 C 
ATOM      2  C   UNL     1      34.564 -21.856 -18.618  0.00  0.00    +0.053 C 
ATOM      3  C   UNL     1      34.167 -20.117 -20.250  0.00  0.00    +0.015 C 
ATOM      4  C   UNL     1      36.426 -20.647 -19.574  0.00  0.00    +0.015 C 
ATOM      5  C   UNL     1      33.679 -21.099 -19.387  0.00  0.00    +0.006 C 
ATOM      6  C   UNL     1      35.937 -21.630 -18.712  0.00  0.00    +0.006 C 
ENDROOT
BRANCH   2   9
ATOM      7  O   UNL     1      33.525 -23.909 -18.172  0.00  0.00    -0.270 OA
ATOM      8  N   UNL     1      34.214 -22.658 -16.344  0.00  0.00    -0.293 N 
ATOM      9  C   ACE A   0      34.044 -22.901 -17.700  0.00  0.00    +0.246 C 
ATOM     10  H   UNL     1      34.643 -21.818 -16.064  0.00  0.00    +0.150 HD
BRANCH   8  11
ATOM     11  CA  UNL     1      33.785 -23.588 -15.331  0.00  0.00    +0.172 C 
BRANCH  11  13
ATOM     12  OXT UNL     1      31.386 -23.225 -15.535  0.00  0.00    -0.248 OA
ATOM     13  C   UNL     1      32.409 -23.158 -14.866  0.00  0.00    +0.332 C 
BRANCH  13  14
ATOM     14  O   UNL     1      32.424 -22.713 -13.582  0.00  0.00    -0.479 OA
ATOM     15  H   UNL     1      32.339 -23.321 -12.875  0.00  0.00    +0.295 HD
ENDBRANCH  13  14
ENDBRANCH  11  13
BRANCH  11  16
ATOM     16  CB  UNL     1      34.804 -23.738 -14.194  0.00  0.00    +0.043 C 
BRANCH  16  17
ATOM     17  CG  UNL     1      36.020 -24.621 -14.499  0.00  0.00    +0.112 C 
BRANCH  17  19
ATOM     18  OE2 UNL     1      38.252 -23.831 -13.923  0.00  0.00    -0.250 OA
ATOM     19  CD  UNL     1      37.304 -23.845 -14.696  0.00  0.00    +0.314 C 
BRANCH  19  20
ATOM     20  OE1 UNL     1      37.274 -23.110 -15.840  0.00  0.00    -0.480 OA
ATOM     21  HE1 UNL     1      37.899 -23.275 -16.518  0.00  0.00    +0.295 HD
ENDBRANCH  19  20
ENDBRANCH  17  19
ENDBRANCH  16  17
ENDBRANCH  11  16
ENDBRANCH   8  11
ENDBRANCH   2   9
BRANCH   1  22
ATOM     22  N   UNL     1      36.035 -18.898 -21.213  0.00  0.00    -0.302 N 
ATOM     23  C   UNL     1      37.459 -18.648 -21.309  0.00  0.00    +0.112 C 
BRANCH  22  24
ATOM     24  C   UNL     1      35.125 -18.123 -22.034  0.00  0.00    +0.118 C 
BRANCH  24  29
ATOM     25  O   UNL     1      34.855 -14.841 -20.356  0.00  0.00    -0.427 OA
ATOM     26  N   UNL     1      34.306 -13.214 -22.015  0.00  0.00    -0.294 NA
ATOM     27  N   UNL     1      34.085 -14.135 -24.260  0.00  0.00    -0.317 NA
ATOM     28  N   UNL     1      33.773 -11.853 -23.842  0.00  0.00    -0.283 N 
ATOM     29  C   UNL     1      34.951 -16.690 -21.635  0.00  0.00    +0.031 C 
ATOM     30  C   UNL     1      34.627 -15.593 -22.469  0.00  0.00    +0.180 C 
ATOM     31  C   UNL     1      34.579 -14.476 -21.641  0.00  0.00    +0.281 C 
ATOM     32  C   UNL     1      35.077 -16.181 -20.364  0.00  0.00    +0.176 C 
ATOM     33  C   UNL     1      34.367 -15.383 -23.822  0.00  0.00    +0.181 C 
ATOM     34  C   UNL     1      34.073 -13.142 -23.342  0.00  0.00    +0.200 C 
ATOM     35  H   UNL     1      33.747 -11.082 -23.229  0.00  0.00    +0.156 HD
ATOM     36  H   UNL     1      33.592 -11.727 -24.801  0.00  0.00    +0.156 HD
ATOM     37  N   UNL     1      34.391 -16.451 -24.738  0.00  0.00    -0.335 N 
ATOM     38  H   UNL     1      34.205 -16.286 -25.691  0.00  0.00    +0.144 HD
ATOM     39  H   UNL     1      34.595 -17.362 -24.428  0.00  0.00    +0.144 HD
ENDBRANCH  24  29
ENDBRANCH  22  24
ENDBRANCH   1  22
TORSDOF 11
ENDMDL
MODEL 4
REMARK VINA RESULT:     -11.1      2.309      3.921
REMARK  Name = 158376
REMARK  11 active torsions:
REMARK  status: ('A' for Active; 'I' for Inactive)
REMARK    1  A    between atoms: C_1  and  N_22
REMARK    2  A    between atoms: C_2  and  C_9
REMARK    3  A    between atoms: N_8  and  CA_11
REMARK    4  A    between atoms: CA_11  and  C_13
REMARK    5  A    between atoms: CA_11  and  CB_16
REMARK    6  A    between atoms: C_13  and  O_14
REMARK    7  A    between atoms: CB_16  and  CG_17
REMARK    8  A    between atoms: CG_17  and  CD_19
REMARK    9  A    between atoms: CD_19  and  OE1_20
REMARK   10  A    between atoms: N_22  and  C_24
REMARK   11  A    between atoms: C_24  and  C_29
REMARK                            x       y       z     vdW  Elec       q    Type
REMARK                         _______ _______ _______ _____ _____    ______ ____
ROOT
ATOM      1  C   UNL     1      34.576 -20.993 -19.298  0.00  0.00    +0.048 C 
ATOM      2  C   UNL     1      35.309 -22.388 -16.996  0.00  0.00    +0.053 C 
ATOM      3  C   UNL     1      33.622 -21.732 -18.597  0.00  0.00    +0.015 C 
ATOM      4  C   UNL     1      35.895 -20.951 -18.848  0.00  0.00    +0.015 C 
ATOM      5  C   UNL     1      33.989 -22.429 -17.446  0.00  0.00    +0.006 C 
ATOM      6  C   UNL     1      36.261 -21.649 -17.697  0.00  0.00    +0.006 C 
ENDROOT
BRANCH   2   9
ATOM      7  O   UNL     1      35.181 -24.220 -15.537  0.00  0.00    -0.270 OA
ATOM      8  N   UNL     1      36.665 -22.528 -14.975  0.00  0.00    -0.293 N 
ATOM      9  C   ACE A   0      35.700 -23.131 -15.770  0.00  0.00    +0.246 C 
ATOM     10  H   UNL     1      37.021 -21.651 -15.246  0.00  0.00    +0.150 HD
BRANCH   8  11
ATOM     11  CA  UNL     1      37.165 -23.135 -13.768  0.00  0.00    +0.172 C 
BRANCH  11  13
ATOM     12  OXT UNL     1      37.666 -25.518 -13.813  0.00  0.00    -0.248 OA
ATOM     13  C   UNL     1      37.937 -24.377 -14.165  0.00  0.00    +0.332 C 
BRANCH  13  14
ATOM     14  O   UNL     1      38.966 -24.088 -15.004  0.00  0.00    -0.479 OA
ATOM     15  H   UNL     1      38.946 -24.389 -15.890  0.00  0.00    +0.295 HD
ENDBRANCH  13  14
ENDBRANCH  11  13
BRANCH  11  16
ATOM     16  CB  UNL     1      36.063 -23.394 -12.734  0.00  0.00    +0.043 C 
BRANCH  16  17
ATOM     17  CG  UNL     1      36.504 -23.369 -11.266  0.00  0.00    +0.112 C 
BRANCH  17  19
ATOM     18  OE2 UNL     1      35.447 -24.466  -9.364  0.00  0.00    -0.250 OA
ATOM     19  CD  UNL     1      35.995 -24.541 -10.455  0.00  0.00    +0.314 C 
BRANCH  19  20
ATOM     20  OE1 UNL     1      36.254 -25.725 -11.071  0.00  0.00    -0.480 OA
ATOM     21  HE1 UNL     1      35.736 -25.995 -11.803  0.00  0.00    +0.295 HD
ENDBRANCH  19  20
ENDBRANCH  17  19
ENDBRANCH  16  17
ENDBRANCH  11  16
ENDBRANCH   8  11
ENDBRANCH   2   9
BRANCH   1  22
ATOM     22  N   UNL     1      34.205 -20.287 -20.461  0.00  0.00    -0.302 N 
ATOM     23  C   UNL     1      32.807 -20.047 -20.760  0.00  0.00    +0.112 C 
BRANCH  22  24
ATOM     24  C   UNL     1      35.218 -19.778 -21.365  0.00  0.00    +0.118 C 
BRANCH  24  29
ATOM     25  O   UNL     1      35.346 -16.084 -21.329  0.00  0.00    -0.427 OA
ATOM     26  N   UNL     1      34.590 -15.306 -23.457  0.00  0.00    -0.294 NA
ATOM     27  N   UNL     1      33.971 -17.092 -24.994  0.00  0.00    -0.317 NA
ATOM     28  N   UNL     1      33.815 -14.840 -25.614  0.00  0.00    -0.283 N 
ATOM     29  C   UNL     1      35.164 -18.306 -21.637  0.00  0.00    +0.031 C 
ATOM     30  C   UNL     1      34.747 -17.661 -22.826  0.00  0.00    +0.180 C 
ATOM     31  C   UNL     1      34.876 -16.295 -22.593  0.00  0.00    +0.281 C 
ATOM     32  C   UNL     1      35.515 -17.305 -20.761  0.00  0.00    +0.176 C 
ATOM     33  C   UNL     1      34.276 -18.042 -24.081  0.00  0.00    +0.181 C 
ATOM     34  C   UNL     1      34.146 -15.801 -24.630  0.00  0.00    +0.200 C 
ATOM     35  H   UNL     1      33.917 -13.881 -25.418  0.00  0.00    +0.156 HD
ATOM     36  H   UNL     1      33.483 -15.131 -26.494  0.00  0.00    +0.156 HD
ATOM     37  N   UNL     1      34.111 -19.399 -24.411  0.00  0.00    -0.335 N 
ATOM     38  H   UNL     1      33.778 -19.652 -25.301  0.00  0.00    +0.144 HD
ATOM     39  H   UNL     1      34.330 -20.097 -23.752  0.00  0.00    +0.144 HD
ENDBRANCH  24  29
ENDBRANCH  22  24
ENDBRANCH   1  22
TORSDOF 11
ENDMDL
MODEL 5
REMARK VINA RESULT:     -11.1      1.230      1.650
REMARK  Name = 158376
REMARK  11 active torsions:
REMARK  status: ('A' for Active; 'I' for Inactive)
REMARK    1  A    between atoms: C_1  and  N_22
REMARK    2  A    between atoms: C_2  and  C_9
REMARK    3  A    between atoms: N_8  and  CA_11
REMARK    4  A    between atoms: CA_11  and  C_13
REMARK    5  A    between atoms: CA_11  and  CB_16
REMARK    6  A    between atoms: C_13  and  O_14
REMARK    7  A    between atoms: CB_16  and  CG_17
REMARK    8  A    between atoms: CG_17  and  CD_19
REMARK    9  A    between atoms: CD_19  and  OE1_20
REMARK   10  A    between atoms: N_22  and  C_24
REMARK   11  A    between atoms: C_24  and  C_29
REMARK                            x       y       z     vdW  Elec       q    Type
REMARK                         _______ _______ _______ _____ _____    ______ ____
ROOT
ATOM      1  C   UNL     1      35.656 -19.315 -20.623  0.00  0.00    +0.048 C 
ATOM      2  C   UNL     1      34.618 -21.435 -19.134  0.00  0.00    +0.053 C 
ATOM      3  C   UNL     1      36.514 -20.151 -19.907  0.00  0.00    +0.015 C 
ATOM      4  C   UNL     1      34.280 -19.540 -20.595  0.00  0.00    +0.015 C 
ATOM      5  C   UNL     1      35.995 -21.210 -19.163  0.00  0.00    +0.006 C 
ATOM      6  C   UNL     1      33.761 -20.600 -19.849  0.00  0.00    +0.006 C 
ENDROOT
BRANCH   2   9
ATOM      7  O   UNL     1      33.907 -23.655 -18.883  0.00  0.00    -0.270 OA
ATOM      8  N   UNL     1      33.789 -22.292 -17.009  0.00  0.00    -0.293 N 
ATOM      9  C   ACE A   0      34.066 -22.564 -18.341  0.00  0.00    +0.246 C 
ATOM     10  H   UNL     1      33.950 -21.383 -16.667  0.00  0.00    +0.150 HD
BRANCH   8  11
ATOM     11  CA  UNL     1      33.273 -23.290 -16.106  0.00  0.00    +0.172 C 
BRANCH  11  13
ATOM     12  OXT UNL     1      31.114 -22.421 -16.824  0.00  0.00    -0.248 OA
ATOM     13  C   UNL     1      31.763 -23.169 -16.103  0.00  0.00    +0.332 C 
BRANCH  13  14
ATOM     14  O   UNL     1      31.187 -24.026 -15.220  0.00  0.00    -0.479 OA
ATOM     15  H   UNL     1      31.375 -24.942 -15.266  0.00  0.00    +0.295 HD
ENDBRANCH  13  14
ENDBRANCH  11  13
BRANCH  11  16
ATOM     16  CB  UNL     1      33.903 -23.208 -14.710  0.00  0.00    +0.043 C 
BRANCH  16  17
ATOM     17  CG  UNL     1      34.243 -24.551 -14.052  0.00  0.00    +0.112 C 
BRANCH  17  19
ATOM     18  OE2 UNL     1      34.339 -24.497 -11.618  0.00  0.00    -0.250 OA
ATOM     19  CD  UNL     1      33.705 -24.694 -12.645  0.00  0.00    +0.314 C 
BRANCH  19  20
ATOM     20  OE1 UNL     1      32.412 -25.116 -12.644  0.00  0.00    -0.480 OA
ATOM     21  HE1 UNL     1      32.063 -25.554 -13.395  0.00  0.00    +0.295 HD
ENDBRANCH  19  20
ENDBRANCH  17  19
ENDBRANCH  16  17
ENDBRANCH  11  16
ENDBRANCH   8  11
ENDBRANCH   2   9
BRANCH   1  22
ATOM     22  N   UNL     1      36.180 -18.245 -21.376  0.00  0.00    -0.302 N 
ATOM     23  C   UNL     1      37.503 -18.336 -21.960  0.00  0.00    +0.112 C 
BRANCH  22  24
ATOM     24  C   UNL     1      35.395 -17.044 -21.590  0.00  0.00    +0.118 C 
BRANCH  24  29
ATOM     25  O   UNL     1      34.198 -17.325 -25.076  0.00  0.00    -0.427 OA
ATOM     26  N   UNL     1      33.520 -15.151 -25.793  0.00  0.00    -0.294 NA
ATOM     27  N   UNL     1      33.797 -13.425 -24.096  0.00  0.00    -0.317 NA
ATOM     28  N   UNL     1      32.938 -12.925 -26.216  0.00  0.00    -0.283 N 
ATOM     29  C   UNL     1      34.861 -16.857 -22.976  0.00  0.00    +0.031 C 
ATOM     30  C   UNL     1      34.415 -15.655 -23.576  0.00  0.00    +0.180 C 
ATOM     31  C   UNL     1      34.015 -15.990 -24.866  0.00  0.00    +0.281 C 
ATOM     32  C   UNL     1      34.710 -17.839 -23.927  0.00  0.00    +0.176 C 
ATOM     33  C   UNL     1      34.289 -14.317 -23.207  0.00  0.00    +0.181 C 
ATOM     34  C   UNL     1      33.447 -13.891 -25.317  0.00  0.00    +0.200 C 
ATOM     35  H   UNL     1      32.664 -13.193 -27.123  0.00  0.00    +0.156 HD
ATOM     36  H   UNL     1      32.859 -11.985 -25.935  0.00  0.00    +0.156 HD
ATOM     37  N   UNL     1      34.667 -13.881 -21.924  0.00  0.00    -0.335 N 
ATOM     38  H   UNL     1      34.572 -12.933 -21.679  0.00  0.00    +0.144 HD
ATOM     39  H   UNL     1      35.027 -14.524 -21.271  0.00  0.00    +0.144 HD
ENDBRANCH  24  29
ENDBRANCH  22  24
ENDBRANCH   1  22
TORSDOF 11
ENDMDL
MODEL 6
REMARK VINA RESULT:     -11.0      1.642      2.264
REMARK  Name = 158376
REMARK  11 active torsions:
REMARK  status: ('A' for Active; 'I' for Inactive)
REMARK    1  A    between atoms: C_1  and  N_22
REMARK    2  A    between atoms: C_2  and  C_9
REMARK    3  A    between atoms: N_8  and  CA_11
REMARK    4  A    between atoms: CA_11  and  C_13
REMARK    5  A    between atoms: CA_11  and  CB_16
REMARK    6  A    between atoms: C_13  and  O_14
REMARK    7  A    between atoms: CB_16  and  CG_17
REMARK    8  A    between atoms: CG_17  and  CD_19
REMARK    9  A    between atoms: CD_19  and  OE1_20
REMARK   10  A    between atoms: N_22  and  C_24
REMARK   11  A    between atoms: C_24  and  C_29
REMARK                            x       y       z     vdW  Elec       q    Type
REMARK                         _______ _______ _______ _____ _____    ______ ____
ROOT
ATOM      1  C   UNL     1      35.180 -20.355 -19.978  0.00  0.00    +0.048 C 
ATOM      2  C   UNL     1      33.920 -22.125 -18.228  0.00  0.00    +0.053 C 
ATOM      3  C   UNL     1      33.787 -20.427 -19.943  0.00  0.00    +0.015 C 
ATOM      4  C   UNL     1      35.942 -21.167 -19.139  0.00  0.00    +0.015 C 
ATOM      5  C   UNL     1      33.157 -21.312 -19.067  0.00  0.00    +0.006 C 
ATOM      6  C   UNL     1      35.311 -22.053 -18.264  0.00  0.00    +0.006 C 
ENDROOT
BRANCH   2   9
ATOM      7  O   UNL     1      33.713 -24.194 -17.144  0.00  0.00    -0.270 OA
ATOM      8  N   UNL     1      32.132 -22.575 -16.634  0.00  0.00    -0.293 N 
ATOM      9  C   ACE A   0      33.248 -23.067 -17.295  0.00  0.00    +0.246 C 
ATOM     10  H   UNL     1      31.836 -21.655 -16.823  0.00  0.00    +0.150 HD
BRANCH   8  11
ATOM     11  CA  UNL     1      31.388 -23.358 -15.680  0.00  0.00    +0.172 C 
BRANCH  11  13
ATOM     12  OXT UNL     1      29.444 -22.422 -16.810  0.00  0.00    -0.248 OA
ATOM     13  C   UNL     1      29.921 -23.022 -15.855  0.00  0.00    +0.332 C 
BRANCH  13  14
ATOM     14  O   UNL     1      29.165 -23.502 -14.832  0.00  0.00    -0.479 OA
ATOM     15  H   UNL     1      28.733 -24.328 -14.918  0.00  0.00    +0.295 HD
ENDBRANCH  13  14
ENDBRANCH  11  13
BRANCH  11  16
ATOM     16  CB  UNL     1      31.897 -23.183 -14.244  0.00  0.00    +0.043 C 
BRANCH  16  17
ATOM     17  CG  UNL     1      33.415 -23.038 -14.086  0.00  0.00    +0.112 C 
BRANCH  17  19
ATOM     18  OE2 UNL     1      34.053 -24.346 -12.131  0.00  0.00    -0.250 OA
ATOM     19  CD  UNL     1      34.063 -24.187 -13.344  0.00  0.00    +0.314 C 
BRANCH  19  20
ATOM     20  OE1 UNL     1      34.712 -25.028 -14.193  0.00  0.00    -0.480 OA
ATOM     21  HE1 UNL     1      35.632 -24.930 -14.336  0.00  0.00    +0.295 HD
ENDBRANCH  19  20
ENDBRANCH  17  19
ENDBRANCH  16  17
ENDBRANCH  11  16
ENDBRANCH   8  11
ENDBRANCH   2   9
BRANCH   1  22
ATOM     22  N   UNL     1      35.817 -19.460 -20.862  0.00  0.00    -0.302 N 
ATOM     23  C   UNL     1      37.168 -19.006 -20.599  0.00  0.00    +0.112 C 
BRANCH  22  24
ATOM     24  C   UNL     1      35.135 -18.995 -22.054  0.00  0.00    +0.118 C 
BRANCH  24  29
ATOM     25  O   UNL     1      35.121 -15.316 -21.692  0.00  0.00    -0.427 OA
ATOM     26  N   UNL     1      34.175 -14.390 -23.680  0.00  0.00    -0.294 NA
ATOM     27  N   UNL     1      33.511 -16.061 -25.324  0.00  0.00    -0.317 NA
ATOM     28  N   UNL     1      33.219 -13.773 -25.724  0.00  0.00    -0.283 N 
ATOM     29  C   UNL     1      35.003 -17.509 -22.186  0.00  0.00    +0.031 C 
ATOM     30  C   UNL     1      34.472 -16.782 -23.279  0.00  0.00    +0.180 C 
ATOM     31  C   UNL     1      34.565 -15.437 -22.932  0.00  0.00    +0.281 C 
ATOM     32  C   UNL     1      35.381 -16.574 -21.251  0.00  0.00    +0.176 C 
ATOM     33  C   UNL     1      33.922 -17.072 -24.525  0.00  0.00    +0.181 C 
ATOM     34  C   UNL     1      33.662 -14.800 -24.858  0.00  0.00    +0.200 C 
ATOM     35  H   UNL     1      33.299 -12.830 -25.449  0.00  0.00    +0.156 HD
ATOM     36  H   UNL     1      32.833 -14.000 -26.600  0.00  0.00    +0.156 HD
ATOM     37  N   UNL     1      33.785 -18.402 -24.965  0.00  0.00    -0.335 N 
ATOM     38  H   UNL     1      33.394 -18.590 -25.848  0.00  0.00    +0.144 HD
ATOM     39  H   UNL     1      34.081 -19.144 -24.389  0.00  0.00    +0.144 HD
ENDBRANCH  24  29
ENDBRANCH  22  24
ENDBRANCH   1  22
TORSDOF 11
ENDMDL
MODEL 7
REMARK VINA RESULT:     -10.7      1.667      3.499
REMARK  Name = 158376
REMARK  11 active torsions:
REMARK  status: ('A' for Active; 'I' for Inactive)
REMARK    1  A    between atoms: C_1  and  N_22
REMARK    2  A    between atoms: C_2  and  C_9
REMARK    3  A    between atoms: N_8  and  CA_11
REMARK    4  A    between atoms: CA_11  and  C_13
REMARK    5  A    between atoms: CA_11  and  CB_16
REMARK    6  A    between atoms: C_13  and  O_14
REMARK    7  A    between atoms: CB_16  and  CG_17
REMARK    8  A    between atoms: CG_17  and  CD_19
REMARK    9  A    between atoms: CD_19  and  OE1_20
REMARK   10  A    between atoms: N_22  and  C_24
REMARK   11  A    between atoms: C_24  and  C_29
REMARK                            x       y       z     vdW  Elec       q    Type
REMARK                         _______ _______ _______ _____ _____    ______ ____
ROOT
ATOM      1  C   UNL     1      34.738 -19.886 -20.675  0.00  0.00    +0.048 C 
ATOM      2  C   UNL     1      34.360 -21.744 -18.627  0.00  0.00    +0.053 C 
ATOM      3  C   UNL     1      35.840 -20.497 -20.076  0.00  0.00    +0.015 C 
ATOM      4  C   UNL     1      33.448 -20.204 -20.251  0.00  0.00    +0.015 C 
ATOM      5  C   UNL     1      35.650 -21.426 -19.053  0.00  0.00    +0.006 C 
ATOM      6  C   UNL     1      33.259 -21.133 -19.227  0.00  0.00    +0.006 C 
ENDROOT
BRANCH   2   9
ATOM      7  O   UNL     1      33.635 -23.813 -17.797  0.00  0.00    -0.270 OA
ATOM      8  N   UNL     1      34.614 -22.354 -16.282  0.00  0.00    -0.293 N 
ATOM      9  C   ACE A   0      34.159 -22.733 -17.538  0.00  0.00    +0.246 C 
ATOM     10  H   UNL     1      35.020 -21.465 -16.174  0.00  0.00    +0.150 HD
BRANCH   8  11
ATOM     11  CA  UNL     1      34.513 -23.214 -15.130  0.00  0.00    +0.172 C 
BRANCH  11  13
ATOM     12  OXT UNL     1      35.564 -25.409 -15.034  0.00  0.00    -0.248 OA
ATOM     13  C   UNL     1      35.663 -24.198 -15.190  0.00  0.00    +0.332 C 
BRANCH  13  14
ATOM     14  O   UNL     1      36.841 -23.585 -15.478  0.00  0.00    -0.479 OA
ATOM     15  H   UNL     1      36.844 -22.708 -15.805  0.00  0.00    +0.295 HD
ENDBRANCH  13  14
ENDBRANCH  11  13
BRANCH  11  16
ATOM     16  CB  UNL     1      33.136 -23.877 -15.003  0.00  0.00    +0.043 C 
BRANCH  16  17
ATOM     17  CG  UNL     1      32.029 -23.008 -14.394  0.00  0.00    +0.112 C 
BRANCH  17  19
ATOM     18  OE2 UNL     1      29.658 -22.902 -14.944  0.00  0.00    -0.250 OA
ATOM     19  CD  UNL     1      30.828 -22.829 -15.296  0.00  0.00    +0.314 C 
BRANCH  19  20
ATOM     20  OE1 UNL     1      31.198 -22.610 -16.585  0.00  0.00    -0.480 OA
ATOM     21  HE1 UNL     1      32.107 -22.593 -16.814  0.00  0.00    +0.295 HD
ENDBRANCH  19  20
ENDBRANCH  17  19
ENDBRANCH  16  17
ENDBRANCH  11  16
ENDBRANCH   8  11
ENDBRANCH   2   9
BRANCH   1  22
ATOM     22  N   UNL     1      34.928 -18.949 -21.711  0.00  0.00    -0.302 N 
ATOM     23  C   UNL     1      34.174 -19.053 -22.944  0.00  0.00    +0.112 C 
BRANCH  22  24
ATOM     24  C   UNL     1      35.871 -17.859 -21.550  0.00  0.00    +0.118 C 
BRANCH  24  29
ATOM     25  O   UNL     1      34.472 -14.848 -19.925  0.00  0.00    -0.427 OA
ATOM     26  N   UNL     1      33.889 -13.294 -21.642  0.00  0.00    -0.294 NA
ATOM     27  N   UNL     1      34.359 -14.096 -23.894  0.00  0.00    -0.317 NA
ATOM     28  N   UNL     1      33.420 -11.984 -23.522  0.00  0.00    -0.283 N 
ATOM     29  C   UNL     1      35.275 -16.536 -21.179  0.00  0.00    +0.031 C 
ATOM     30  C   UNL     1      34.868 -15.495 -22.048  0.00  0.00    +0.180 C 
ATOM     31  C   UNL     1      34.382 -14.477 -21.234  0.00  0.00    +0.281 C 
ATOM     32  C   UNL     1      35.012 -16.094 -19.903  0.00  0.00    +0.176 C 
ATOM     33  C   UNL     1      34.843 -15.267 -23.422  0.00  0.00    +0.181 C 
ATOM     34  C   UNL     1      33.919 -13.194 -22.987  0.00  0.00    +0.200 C 
ATOM     35  H   UNL     1      33.083 -11.282 -22.919  0.00  0.00    +0.156 HD
ATOM     36  H   UNL     1      33.411 -11.843 -24.496  0.00  0.00    +0.156 HD
ATOM     37  N   UNL     1      35.313 -16.237 -24.326  0.00  0.00    -0.335 N 
ATOM     38  H   UNL     1      35.288 -16.061 -25.294  0.00  0.00    +0.144 HD
ATOM     39  H   UNL     1      35.666 -17.093 -23.991  0.00  0.00    +0.144 HD
ENDBRANCH  24  29
ENDBRANCH  22  24
ENDBRANCH   1  22
TORSDOF 11
ENDMDL
MODEL 8
REMARK VINA RESULT:     -10.5      3.675     10.663
REMARK  Name = 158376
REMARK  11 active torsions:
REMARK  status: ('A' for Active; 'I' for Inactive)
REMARK    1  A    between atoms: C_1  and  N_22
REMARK    2  A    between atoms: C_2  and  C_9
REMARK    3  A    between atoms: N_8  and  CA_11
REMARK    4  A    between atoms: CA_11  and  C_13
REMARK    5  A    between atoms: CA_11  and  CB_16
REMARK    6  A    between atoms: C_13  and  O_14
REMARK    7  A    between atoms: CB_16  and  CG_17
REMARK    8  A    between atoms: CG_17  and  CD_19
REMARK    9  A    between atoms: CD_19  and  OE1_20
REMARK   10  A    between atoms: N_22  and  C_24
REMARK   11  A    between atoms: C_24  and  C_29
REMARK                            x       y       z     vdW  Elec       q    Type
REMARK                         _______ _______ _______ _____ _____    ______ ____
ROOT
ATOM      1  C   UNL     1      34.656 -17.524 -23.239  0.00  0.00    +0.048 C 
ATOM      2  C   UNL     1      33.958 -14.951 -24.062  0.00  0.00    +0.053 C 
ATOM      3  C   UNL     1      34.920 -16.431 -22.412  0.00  0.00    +0.015 C 
ATOM      4  C   UNL     1      34.042 -17.330 -24.476  0.00  0.00    +0.015 C 
ATOM      5  C   UNL     1      34.571 -15.146 -22.824  0.00  0.00    +0.006 C 
ATOM      6  C   UNL     1      33.694 -16.043 -24.888  0.00  0.00    +0.006 C 
ENDROOT
BRANCH   2   9
ATOM      7  O   UNL     1      33.049 -13.427 -25.594  0.00  0.00    -0.270 OA
ATOM      8  N   UNL     1      33.862 -12.560 -23.602  0.00  0.00    -0.293 N 
ATOM      9  C   ACE A   0      33.586 -13.581 -24.500  0.00  0.00    +0.246 C 
ATOM     10  H   UNL     1      34.296 -12.785 -22.748  0.00  0.00    +0.150 HD
BRANCH   8  11
ATOM     11  CA  UNL     1      33.537 -11.182 -23.871  0.00  0.00    +0.172 C 
BRANCH  11  13
ATOM     12  OXT UNL     1      35.173 -10.455 -25.523  0.00  0.00    -0.248 OA
ATOM     13  C   UNL     1      34.800 -10.500 -24.358  0.00  0.00    +0.332 C 
BRANCH  13  14
ATOM     14  O   UNL     1      35.473  -9.896 -23.344  0.00  0.00    -0.479 OA
ATOM     15  H   UNL     1      36.409  -9.886 -23.344  0.00  0.00    +0.295 HD
ENDBRANCH  13  14
ENDBRANCH  11  13
BRANCH  11  16
ATOM     16  CB  UNL     1      32.878 -10.483 -22.676  0.00  0.00    +0.043 C 
BRANCH  16  17
ATOM     17  CG  UNL     1      32.463 -11.395 -21.515  0.00  0.00    +0.112 C 
BRANCH  17  19
ATOM     18  OE2 UNL     1      31.691 -10.107 -19.596  0.00  0.00    -0.250 OA
ATOM     19  CD  UNL     1      31.439 -10.776 -20.589  0.00  0.00    +0.314 C 
BRANCH  19  20
ATOM     20  OE1 UNL     1      30.171 -11.086 -20.967  0.00  0.00    -0.480 OA
ATOM     21  HE1 UNL     1      29.870 -10.859 -21.824  0.00  0.00    +0.295 HD
ENDBRANCH  19  20
ENDBRANCH  17  19
ENDBRANCH  16  17
ENDBRANCH  11  16
ENDBRANCH   8  11
ENDBRANCH   2   9
BRANCH   1  22
ATOM     22  N   UNL     1      35.007 -18.824 -22.822  0.00  0.00    -0.302 N 
ATOM     23  C   UNL     1      35.102 -19.903 -23.786  0.00  0.00    +0.112 C 
BRANCH  22  24
ATOM     24  C   UNL     1      35.294 -19.096 -21.427  0.00  0.00    +0.118 C 
BRANCH  24  29
ATOM     25  O   UNL     1      32.176 -20.485 -20.009  0.00  0.00    -0.427 OA
ATOM     26  N   UNL     1      32.779 -22.046 -18.306  0.00  0.00    -0.294 NA
ATOM     27  N   UNL     1      35.184 -22.277 -17.991  0.00  0.00    -0.317 NA
ATOM     28  N   UNL     1      33.662 -23.506 -16.705  0.00  0.00    -0.283 N 
ATOM     29  C   UNL     1      34.221 -19.820 -20.674  0.00  0.00    +0.031 C 
ATOM     30  C   UNL     1      34.382 -20.772 -19.639  0.00  0.00    +0.180 C 
ATOM     31  C   UNL     1      33.098 -21.155 -19.260  0.00  0.00    +0.281 C 
ATOM     32  C   UNL     1      32.864 -19.680 -20.859  0.00  0.00    +0.176 C 
ATOM     33  C   UNL     1      35.441 -21.372 -18.963  0.00  0.00    +0.181 C 
ATOM     34  C   UNL     1      33.886 -22.555 -17.727  0.00  0.00    +0.200 C 
ATOM     35  H   UNL     1      32.741 -23.756 -16.460  0.00  0.00    +0.156 HD
ATOM     36  H   UNL     1      34.425 -23.917 -16.239  0.00  0.00    +0.156 HD
ATOM     37  N   UNL     1      36.775 -21.049 -19.273  0.00  0.00    -0.335 N 
ATOM     38  H   UNL     1      37.512 -21.482 -18.786  0.00  0.00    +0.144 HD
ATOM     39  H   UNL     1      36.971 -20.391 -19.979  0.00  0.00    +0.144 HD
ENDBRANCH  24  29
ENDBRANCH  22  24
ENDBRANCH   1  22
TORSDOF 11
ENDMDL
MODEL 9
REMARK VINA RESULT:     -10.5      4.079     11.177
REMARK  Name = 158376
REMARK  11 active torsions:
REMARK  status: ('A' for Active; 'I' for Inactive)
REMARK    1  A    between atoms: C_1  and  N_22
REMARK    2  A    between atoms: C_2  and  C_9
REMARK    3  A    between atoms: N_8  and  CA_11
REMARK    4  A    between atoms: CA_11  and  C_13
REMARK    5  A    between atoms: CA_11  and  CB_16
REMARK    6  A    between atoms: C_13  and  O_14
REMARK    7  A    between atoms: CB_16  and  CG_17
REMARK    8  A    between atoms: CG_17  and  CD_19
REMARK    9  A    between atoms: CD_19  and  OE1_20
REMARK   10  A    between atoms: N_22  and  C_24
REMARK   11  A    between atoms: C_24  and  C_29
REMARK                            x       y       z     vdW  Elec       q    Type
REMARK                         _______ _______ _______ _____ _____    ______ ____
ROOT
ATOM      1  C   UNL     1      34.668 -17.468 -23.270  0.00  0.00    +0.048 C 
ATOM      2  C   UNL     1      34.007 -14.882 -24.084  0.00  0.00    +0.053 C 
ATOM      3  C   UNL     1      35.007 -16.377 -22.469  0.00  0.00    +0.015 C 
ATOM      4  C   UNL     1      33.998 -17.266 -24.477  0.00  0.00    +0.015 C 
ATOM      5  C   UNL     1      34.677 -15.085 -22.877  0.00  0.00    +0.006 C 
ATOM      6  C   UNL     1      33.668 -15.973 -24.884  0.00  0.00    +0.006 C 
ENDROOT
BRANCH   2   9
ATOM      7  O   UNL     1      33.175 -13.333 -25.634  0.00  0.00    -0.270 OA
ATOM      8  N   UNL     1      33.883 -12.500 -23.588  0.00  0.00    -0.293 N 
ATOM      9  C   ACE A   0      33.655 -13.506 -24.517  0.00  0.00    +0.246 C 
ATOM     10  H   UNL     1      34.273 -12.738 -22.717  0.00  0.00    +0.150 HD
BRANCH   8  11
ATOM     11  CA  UNL     1      33.570 -11.117 -23.850  0.00  0.00    +0.172 C 
BRANCH  11  13
ATOM     12  OXT UNL     1      35.150 -10.408 -25.563  0.00  0.00    -0.248 OA
ATOM     13  C   UNL     1      34.824 -10.456 -24.383  0.00  0.00    +0.332 C 
BRANCH  13  14
ATOM     14  O   UNL     1      35.551  -9.875 -23.393  0.00  0.00    -0.479 OA
ATOM     15  H   UNL     1      35.653 -10.309 -22.570  0.00  0.00    +0.295 HD
ENDBRANCH  13  14
ENDBRANCH  11  13
BRANCH  11  16
ATOM     16  CB  UNL     1      32.963 -10.406 -22.635  0.00  0.00    +0.043 C 
BRANCH  16  17
ATOM     17  CG  UNL     1      32.264  -9.072 -22.922  0.00  0.00    +0.112 C 
BRANCH  17  19
ATOM     18  OE2 UNL     1      31.921  -7.351 -21.231  0.00  0.00    -0.250 OA
ATOM     19  CD  UNL     1      32.672  -7.956 -21.984  0.00  0.00    +0.314 C 
BRANCH  19  20
ATOM     20  OE1 UNL     1      33.994  -7.663 -22.100  0.00  0.00    -0.480 OA
ATOM     21  HE1 UNL     1      34.528  -7.598 -21.332  0.00  0.00    +0.295 HD
ENDBRANCH  19  20
ENDBRANCH  17  19
ENDBRANCH  16  17
ENDBRANCH  11  16
ENDBRANCH   8  11
ENDBRANCH   2   9
BRANCH   1  22
ATOM     22  N   UNL     1      35.000 -18.775 -22.859  0.00  0.00    -0.302 N 
ATOM     23  C   UNL     1      35.071 -19.853 -23.825  0.00  0.00    +0.112 C 
BRANCH  22  24
ATOM     24  C   UNL     1      35.290 -19.055 -21.466  0.00  0.00    +0.118 C 
BRANCH  24  29
ATOM     25  O   UNL     1      32.178 -20.461 -20.052  0.00  0.00    -0.427 OA
ATOM     26  N   UNL     1      32.788 -22.022 -18.351  0.00  0.00    -0.294 NA
ATOM     27  N   UNL     1      35.193 -22.242 -18.035  0.00  0.00    -0.317 NA
ATOM     28  N   UNL     1      33.677 -23.480 -16.752  0.00  0.00    -0.283 N 
ATOM     29  C   UNL     1      34.220 -19.784 -20.714  0.00  0.00    +0.031 C 
ATOM     30  C   UNL     1      34.385 -20.738 -19.681  0.00  0.00    +0.180 C 
ATOM     31  C   UNL     1      33.104 -21.127 -19.304  0.00  0.00    +0.281 C 
ATOM     32  C   UNL     1      32.864 -19.651 -20.900  0.00  0.00    +0.176 C 
ATOM     33  C   UNL     1      35.448 -21.334 -19.005  0.00  0.00    +0.181 C 
ATOM     34  C   UNL     1      33.897 -22.526 -17.772  0.00  0.00    +0.200 C 
ATOM     35  H   UNL     1      32.757 -23.734 -16.507  0.00  0.00    +0.156 HD
ATOM     36  H   UNL     1      34.442 -23.888 -16.286  0.00  0.00    +0.156 HD
ATOM     37  N   UNL     1      36.780 -21.004 -19.314  0.00  0.00    -0.335 N 
ATOM     38  H   UNL     1      37.519 -21.434 -18.828  0.00  0.00    +0.144 HD
ATOM     39  H   UNL     1      36.973 -20.344 -20.018  0.00  0.00    +0.144 HD
ENDBRANCH  24  29
ENDBRANCH  22  24
ENDBRANCH   1  22
TORSDOF 11
ENDMDL
