MODEL 1
REMARK VINA RESULT:     -11.6      0.000      0.000
REMARK  Name = 5472495
REMARK  6 active torsions:
REMARK  status: ('A' for Active; 'I' for Inactive)
REMARK    1  A    between atoms: C_2  and  C_23
REMARK    2  A    between atoms: C_3  and  C_7
REMARK    3  A    between atoms: C_7  and  C_13
REMARK    4  A    between atoms: C_16  and  S_19
REMARK    5  A    between atoms: C_23  and  C_25
REMARK    6  A    between atoms: C_25  and  O_26
REMARK                            x       y       z     vdW  Elec       q    Type
REMARK                         _______ _______ _______ _____ _____    ______ ____
ROOT
ATOM      1  F   UNL     1      37.081 -23.273 -12.191  0.00  0.00    -0.204 F 
ATOM      2  C   UNL     1      32.682 -23.171 -14.460  0.00  0.00    -0.030 C 
ATOM      3  C   UNL     1      33.657 -23.109 -16.537  0.00  0.00    -0.036 C 
ATOM      4  C   UNL     1      32.405 -23.127 -15.782  0.00  0.00    +0.037 C 
ATOM      5  C   UNL     1      34.148 -23.186 -14.308  0.00  0.00    -0.005 C 
ATOM      6  C   UNL     1      34.758 -23.147 -15.573  0.00  0.00    -0.008 C 
ATOM      7  C   UNL     1      34.921 -23.229 -13.156  0.00  0.00    +0.029 C 
ATOM      8  C   UNL     1      36.136 -23.151 -15.713  0.00  0.00    +0.002 C 
ATOM      9  C   UNL     1      31.070 -23.097 -16.445  0.00  0.00    +0.009 C 
ATOM     10  C   UNL     1      36.312 -23.232 -13.287  0.00  0.00    +0.140 C 
ATOM     11  C   UNL     1      36.915 -23.194 -14.555  0.00  0.00    +0.030 C 
ENDROOT
BRANCH   3  12
ATOM     12  C   UNL     1      33.802 -23.065 -17.868  0.00  0.00    +0.049 C 
BRANCH  12  13
ATOM     13  C   UNL     1      34.372 -21.945 -18.634  0.00  0.00    -0.018 C 
ATOM     14  C   UNL     1      35.747 -21.780 -18.676  0.00  0.00    -0.003 C 
ATOM     15  C   UNL     1      33.523 -21.074 -19.300  0.00  0.00    -0.003 C 
ATOM     16  C   UNL     1      35.445 -19.837 -20.079  0.00  0.00    +0.106 C 
ATOM     17  C   UNL     1      36.288 -20.719 -19.403  0.00  0.00    +0.018 C 
ATOM     18  C   UNL     1      34.063 -20.014 -20.028  0.00  0.00    +0.018 C 
BRANCH  16  19
ATOM     19  S   UNL     1      36.123 -18.509 -20.989  0.00  0.00    +0.010 S 
ATOM     20  O   UNL     1      35.606 -17.269 -20.425  0.00  0.00    -0.169 OA
ATOM     21  O   UNL     1      37.561 -18.704 -21.110  0.00  0.00    -0.169 OA
ATOM     22  C   UNL     1      35.436 -18.695 -22.619  0.00  0.00    +0.182 C 
ENDBRANCH  16  19
ENDBRANCH  12  13
ENDBRANCH   3  12
BRANCH   2  23
ATOM     23  C   UNL     1      31.771 -23.204 -13.288  0.00  0.00    +0.132 C 
BRANCH  23  25
ATOM     24  O   UNL     1      31.451 -25.579 -13.769  0.00  0.00    -0.250 OA
ATOM     25  C   UNL     1      31.232 -24.597 -13.074  0.00  0.00    +0.318 C 
BRANCH  25  26
ATOM     26  O   UNL     1      30.438 -24.620 -11.970  0.00  0.00    -0.480 OA
ATOM     27  H   UNL     1      29.865 -23.902 -11.792  0.00  0.00    +0.295 HD
ENDBRANCH  25  26
ENDBRANCH  23  25
ENDBRANCH   2  23
TORSDOF 6
ENDMDL
MODEL 2
REMARK VINA RESULT:     -11.4      5.243     10.027
REMARK  Name = 5472495
REMARK  6 active torsions:
REMARK  status: ('A' for Active; 'I' for Inactive)
REMARK    1  A    between atoms: C_2  and  C_23
REMARK    2  A    between atoms: C_3  and  C_7
REMARK    3  A    between atoms: C_7  and  C_13
REMARK    4  A    between atoms: C_16  and  S_19
REMARK    5  A    between atoms: C_23  and  C_25
REMARK    6  A    between atoms: C_25  and  O_26
REMARK                            x       y       z     vdW  Elec       q    Type
REMARK                         _______ _______ _______ _____ _____    ______ ____
ROOT
ATOM      1  F   UNL     1      32.902 -13.668 -26.110  0.00  0.00    -0.204 F 
ATOM      2  C   UNL     1      34.230 -14.555 -21.424  0.00  0.00    -0.030 C 
ATOM      3  C   UNL     1      35.137 -16.591 -21.974  0.00  0.00    -0.036 C 
ATOM      4  C   UNL     1      34.863 -15.630 -20.906  0.00  0.00    +0.037 C 
ATOM      5  C   UNL     1      34.069 -14.781 -22.872  0.00  0.00    -0.005 C 
ATOM      6  C   UNL     1      34.619 -16.026 -23.222  0.00  0.00    -0.008 C 
ATOM      7  C   UNL     1      33.486 -13.974 -23.837  0.00  0.00    +0.029 C 
ATOM      8  C   UNL     1      34.599 -16.484 -24.529  0.00  0.00    +0.002 C 
ATOM      9  C   UNL     1      35.254 -15.878 -19.488  0.00  0.00    +0.009 C 
ATOM     10  C   UNL     1      33.460 -14.429 -25.159  0.00  0.00    +0.140 C 
ATOM     11  C   UNL     1      34.012 -15.673 -25.501  0.00  0.00    +0.030 C 
ENDROOT
BRANCH   3  12
ATOM     12  C   UNL     1      35.745 -17.778 -21.862  0.00  0.00    +0.049 C 
BRANCH  12  13
ATOM     13  C   UNL     1      35.276 -18.912 -21.050  0.00  0.00    -0.018 C 
ATOM     14  C   UNL     1      36.190 -19.641 -20.307  0.00  0.00    -0.003 C 
ATOM     15  C   UNL     1      33.926 -19.231 -21.042  0.00  0.00    -0.003 C 
ATOM     16  C   UNL     1      34.391 -21.046 -19.518  0.00  0.00    +0.106 C 
ATOM     17  C   UNL     1      35.745 -20.715 -19.535  0.00  0.00    +0.018 C 
ATOM     18  C   UNL     1      33.481 -20.304 -20.271  0.00  0.00    +0.018 C 
BRANCH  16  19
ATOM     19  S   UNL     1      33.835 -22.390 -18.552  0.00  0.00    +0.010 S 
ATOM     20  O   UNL     1      32.497 -22.073 -18.070  0.00  0.00    -0.169 OA
ATOM     21  O   UNL     1      34.063 -23.627 -19.287  0.00  0.00    -0.169 OA
ATOM     22  C   UNL     1      34.930 -22.411 -17.151  0.00  0.00    +0.182 C 
ENDBRANCH  16  19
ENDBRANCH  12  13
ENDBRANCH   3  12
BRANCH   2  23
ATOM     23  C   UNL     1      33.741 -13.317 -20.764  0.00  0.00    +0.132 C 
BRANCH  23  25
ATOM     24  O   UNL     1      31.883 -14.224 -19.460  0.00  0.00    -0.250 OA
ATOM     25  C   UNL     1      32.304 -13.479 -20.333  0.00  0.00    +0.318 C 
BRANCH  25  26
ATOM     26  O   UNL     1      31.507 -12.661 -21.071  0.00  0.00    -0.480 OA
ATOM     27  H   UNL     1      30.709 -12.991 -21.435  0.00  0.00    +0.295 HD
ENDBRANCH  25  26
ENDBRANCH  23  25
ENDBRANCH   2  23
TORSDOF 6
ENDMDL
MODEL 3
REMARK VINA RESULT:     -11.0      2.002      3.424
REMARK  Name = 5472495
REMARK  6 active torsions:
REMARK  status: ('A' for Active; 'I' for Inactive)
REMARK    1  A    between atoms: C_2  and  C_23
REMARK    2  A    between atoms: C_3  and  C_7
REMARK    3  A    between atoms: C_7  and  C_13
REMARK    4  A    between atoms: C_16  and  S_19
REMARK    5  A    between atoms: C_23  and  C_25
REMARK    6  A    between atoms: C_25  and  O_26
REMARK                            x       y       z     vdW  Elec       q    Type
REMARK                         _______ _______ _______ _____ _____    ______ ____
ROOT
ATOM      1  F   UNL     1      29.672 -23.170 -13.151  0.00  0.00    -0.204 F 
ATOM      2  C   UNL     1      34.498 -23.101 -14.255  0.00  0.00    -0.030 C 
ATOM      3  C   UNL     1      34.072 -23.091 -16.510  0.00  0.00    -0.036 C 
ATOM      4  C   UNL     1      35.096 -23.084 -15.466  0.00  0.00    +0.037 C 
ATOM      5  C   UNL     1      33.040 -23.117 -14.472  0.00  0.00    -0.005 C 
ATOM      6  C   UNL     1      32.765 -23.112 -15.850  0.00  0.00    -0.008 C 
ATOM      7  C   UNL     1      32.005 -23.136 -13.548  0.00  0.00    +0.029 C 
ATOM      8  C   UNL     1      31.465 -23.126 -16.329  0.00  0.00    +0.002 C 
ATOM      9  C   UNL     1      36.554 -23.064 -15.776  0.00  0.00    +0.009 C 
ATOM     10  C   UNL     1      30.690 -23.151 -14.022  0.00  0.00    +0.140 C 
ATOM     11  C   UNL     1      30.423 -23.146 -15.400  0.00  0.00    +0.030 C 
ENDROOT
BRANCH   3  12
ATOM     12  C   UNL     1      34.263 -23.081 -17.835  0.00  0.00    +0.049 C 
BRANCH  12  13
ATOM     13  C   UNL     1      34.682 -21.919 -18.635  0.00  0.00    -0.018 C 
ATOM     14  C   UNL     1      33.721 -21.146 -19.266  0.00  0.00    -0.003 C 
ATOM     15  C   UNL     1      36.031 -21.617 -18.742  0.00  0.00    -0.003 C 
ATOM     16  C   UNL     1      35.471 -19.728 -20.139  0.00  0.00    +0.106 C 
ATOM     17  C   UNL     1      34.118 -20.043 -20.023  0.00  0.00    +0.018 C 
ATOM     18  C   UNL     1      36.428 -20.515 -19.498  0.00  0.00    +0.018 C 
BRANCH  16  19
ATOM     19  S   UNL     1      35.967 -18.348 -21.086  0.00  0.00    +0.010 S 
ATOM     20  O   UNL     1      35.408 -17.154 -20.466  0.00  0.00    -0.169 OA
ATOM     21  O   UNL     1      37.400 -18.431 -21.330  0.00  0.00    -0.169 OA
ATOM     22  C   UNL     1      35.161 -18.576 -22.655  0.00  0.00    +0.182 C 
ENDBRANCH  16  19
ENDBRANCH  12  13
ENDBRANCH   3  12
BRANCH   2  23
ATOM     23  C   UNL     1      35.088 -23.102 -12.891  0.00  0.00    +0.132 C 
BRANCH  23  25
ATOM     24  O   UNL     1      36.401 -25.164 -12.897  0.00  0.00    -0.250 OA
ATOM     25  C   UNL     1      35.461 -24.504 -12.477  0.00  0.00    +0.318 C 
BRANCH  25  26
ATOM     26  O   UNL     1      34.583 -24.959 -11.544  0.00  0.00    -0.480 OA
ATOM     27  H   UNL     1      34.660 -25.833 -11.216  0.00  0.00    +0.295 HD
ENDBRANCH  25  26
ENDBRANCH  23  25
ENDBRANCH   2  23
TORSDOF 6
ENDMDL
MODEL 4
REMARK VINA RESULT:     -10.5      4.473      9.885
REMARK  Name = 5472495
REMARK  6 active torsions:
REMARK  status: ('A' for Active; 'I' for Inactive)
REMARK    1  A    between atoms: C_2  and  C_23
REMARK    2  A    between atoms: C_3  and  C_7
REMARK    3  A    between atoms: C_7  and  C_13
REMARK    4  A    between atoms: C_16  and  S_19
REMARK    5  A    between atoms: C_23  and  C_25
REMARK    6  A    between atoms: C_25  and  O_26
REMARK                            x       y       z     vdW  Elec       q    Type
REMARK                         _______ _______ _______ _____ _____    ______ ____
ROOT
ATOM      1  F   UNL     1      33.761 -12.632 -21.553  0.00  0.00    -0.204 F 
ATOM      2  C   UNL     1      34.205 -17.042 -23.760  0.00  0.00    -0.030 C 
ATOM      3  C   UNL     1      35.329 -17.925 -21.965  0.00  0.00    -0.036 C 
ATOM      4  C   UNL     1      34.791 -18.170 -23.303  0.00  0.00    +0.037 C 
ATOM      5  C   UNL     1      34.343 -16.007 -22.719  0.00  0.00    -0.005 C 
ATOM      6  C   UNL     1      35.030 -16.536 -21.613  0.00  0.00    -0.008 C 
ATOM      7  C   UNL     1      33.908 -14.690 -22.713  0.00  0.00    +0.029 C 
ATOM      8  C   UNL     1      35.294 -15.768 -20.491  0.00  0.00    +0.002 C 
ATOM      9  C   UNL     1      34.914 -19.489 -23.985  0.00  0.00    +0.009 C 
ATOM     10  C   UNL     1      34.171 -13.908 -21.585  0.00  0.00    +0.140 C 
ATOM     11  C   UNL     1      34.858 -14.442 -20.483  0.00  0.00    +0.030 C 
ENDROOT
BRANCH   3  12
ATOM     12  C   UNL     1      35.981 -18.793 -21.181  0.00  0.00    +0.049 C 
BRANCH  12  13
ATOM     13  C   UNL     1      35.358 -19.816 -20.326  0.00  0.00    -0.018 C 
ATOM     14  C   UNL     1      36.163 -20.646 -19.562  0.00  0.00    -0.003 C 
ATOM     15  C   UNL     1      33.976 -19.932 -20.300  0.00  0.00    -0.003 C 
ATOM     16  C   UNL     1      34.184 -21.742 -18.714  0.00  0.00    +0.106 C 
ATOM     17  C   UNL     1      35.572 -21.615 -18.751  0.00  0.00    +0.018 C 
ATOM     18  C   UNL     1      33.386 -20.900 -19.489  0.00  0.00    +0.018 C 
BRANCH  16  19
ATOM     19  S   UNL     1      33.445 -22.955 -17.699  0.00  0.00    +0.010 S 
ATOM     20  O   UNL     1      32.096 -22.510 -17.377  0.00  0.00    -0.169 OA
ATOM     21  O   UNL     1      33.649 -24.265 -18.302  0.00  0.00    -0.169 OA
ATOM     22  C   UNL     1      34.404 -22.920 -16.201  0.00  0.00    +0.182 C 
ENDBRANCH  16  19
ENDBRANCH  12  13
ENDBRANCH   3  12
BRANCH   2  23
ATOM     23  C   UNL     1      33.519 -16.770 -25.050  0.00  0.00    +0.132 C 
BRANCH  23  25
ATOM     24  O   UNL     1      34.933 -14.981 -25.928  0.00  0.00    -0.250 OA
ATOM     25  C   UNL     1      33.845 -15.381 -25.541  0.00  0.00    +0.318 C 
BRANCH  25  26
ATOM     26  O   UNL     1      32.732 -14.602 -25.493  0.00  0.00    -0.480 OA
ATOM     27  H   UNL     1      32.512 -14.055 -26.221  0.00  0.00    +0.295 HD
ENDBRANCH  25  26
ENDBRANCH  23  25
ENDBRANCH   2  23
TORSDOF 6
ENDMDL
MODEL 5
REMARK VINA RESULT:      -9.8      5.224     10.730
REMARK  Name = 5472495
REMARK  6 active torsions:
REMARK  status: ('A' for Active; 'I' for Inactive)
REMARK    1  A    between atoms: C_2  and  C_23
REMARK    2  A    between atoms: C_3  and  C_7
REMARK    3  A    between atoms: C_7  and  C_13
REMARK    4  A    between atoms: C_16  and  S_19
REMARK    5  A    between atoms: C_23  and  C_25
REMARK    6  A    between atoms: C_25  and  O_26
REMARK                            x       y       z     vdW  Elec       q    Type
REMARK                         _______ _______ _______ _____ _____    ______ ____
ROOT
ATOM      1  F   UNL     1      32.303 -12.157 -19.866  0.00  0.00    -0.204 F 
ATOM      2  C   UNL     1      33.561 -14.550 -24.014  0.00  0.00    -0.030 C 
ATOM      3  C   UNL     1      35.002 -15.932 -22.883  0.00  0.00    -0.036 C 
ATOM      4  C   UNL     1      34.425 -15.575 -24.179  0.00  0.00    +0.037 C 
ATOM      5  C   UNL     1      33.544 -14.200 -22.582  0.00  0.00    -0.005 C 
ATOM      6  C   UNL     1      34.423 -15.039 -21.878  0.00  0.00    -0.008 C 
ATOM      7  C   UNL     1      32.820 -13.222 -21.915  0.00  0.00    +0.029 C 
ATOM      8  C   UNL     1      34.597 -14.920 -20.509  0.00  0.00    +0.002 C 
ATOM      9  C   UNL     1      34.791 -16.282 -25.439  0.00  0.00    +0.009 C 
ATOM     10  C   UNL     1      32.990 -13.094 -20.534  0.00  0.00    +0.140 C 
ATOM     11  C   UNL     1      33.870 -13.936 -19.837  0.00  0.00    +0.030 C 
ENDROOT
BRANCH   3  12
ATOM     12  C   UNL     1      35.899 -16.894 -22.632  0.00  0.00    +0.049 C 
BRANCH  12  13
ATOM     13  C   UNL     1      35.691 -18.054 -21.750  0.00  0.00    -0.018 C 
ATOM     14  C   UNL     1      36.731 -18.493 -20.947  0.00  0.00    -0.003 C 
ATOM     15  C   UNL     1      34.457 -18.688 -21.739  0.00  0.00    -0.003 C 
ATOM     16  C   UNL     1      35.298 -20.238 -20.088  0.00  0.00    +0.106 C 
ATOM     17  C   UNL     1      36.534 -19.592 -20.110  0.00  0.00    +0.018 C 
ATOM     18  C   UNL     1      34.260 -19.786 -20.902  0.00  0.00    +0.018 C 
BRANCH  16  19
ATOM     19  S   UNL     1      35.052 -21.613 -19.041  0.00  0.00    +0.010 S 
ATOM     20  O   UNL     1      35.281 -22.820 -19.824  0.00  0.00    -0.169 OA
ATOM     21  O   UNL     1      35.792 -21.404 -17.803  0.00  0.00    -0.169 OA
ATOM     22  C   UNL     1      33.324 -21.550 -18.628  0.00  0.00    +0.182 C 
ENDBRANCH  16  19
ENDBRANCH  12  13
ENDBRANCH   3  12
BRANCH   2  23
ATOM     23  C   UNL     1      32.726 -13.827 -25.008  0.00  0.00    +0.132 C 
BRANCH  23  25
ATOM     24  O   UNL     1      33.964 -12.909 -26.905  0.00  0.00    -0.250 OA
ATOM     25  C   UNL     1      33.553 -12.812 -25.757  0.00  0.00    +0.318 C 
BRANCH  25  26
ATOM     26  O   UNL     1      33.796 -11.737 -24.962  0.00  0.00    -0.480 OA
ATOM     27  H   UNL     1      33.456 -10.896 -25.195  0.00  0.00    +0.295 HD
ENDBRANCH  25  26
ENDBRANCH  23  25
ENDBRANCH   2  23
TORSDOF 6
ENDMDL
MODEL 6
REMARK VINA RESULT:      -9.6      8.015     13.248
REMARK  Name = 5472495
REMARK  6 active torsions:
REMARK  status: ('A' for Active; 'I' for Inactive)
REMARK    1  A    between atoms: C_2  and  C_23
REMARK    2  A    between atoms: C_3  and  C_7
REMARK    3  A    between atoms: C_7  and  C_13
REMARK    4  A    between atoms: C_16  and  S_19
REMARK    5  A    between atoms: C_23  and  C_25
REMARK    6  A    between atoms: C_25  and  O_26
REMARK                            x       y       z     vdW  Elec       q    Type
REMARK                         _______ _______ _______ _____ _____    ______ ____
ROOT
ATOM      1  F   UNL     1      30.625 -10.010 -18.867  0.00  0.00    -0.204 F 
ATOM      2  C   UNL     1      33.661  -9.410 -22.732  0.00  0.00    -0.030 C 
ATOM      3  C   UNL     1      33.482 -11.619 -23.327  0.00  0.00    -0.036 C 
ATOM      4  C   UNL     1      34.078 -10.320 -23.639  0.00  0.00    +0.037 C 
ATOM      5  C   UNL     1      32.764 -10.095 -21.783  0.00  0.00    -0.005 C 
ATOM      6  C   UNL     1      32.647 -11.450 -22.136  0.00  0.00    -0.008 C 
ATOM      7  C   UNL     1      32.087  -9.594 -20.681  0.00  0.00    +0.029 C 
ATOM      8  C   UNL     1      31.859 -12.323 -21.404  0.00  0.00    +0.002 C 
ATOM      9  C   UNL     1      34.994 -10.118 -24.797  0.00  0.00    +0.009 C 
ATOM     10  C   UNL     1      31.290 -10.468 -19.936  0.00  0.00    +0.140 C 
ATOM     11  C   UNL     1      31.177 -11.821 -20.294  0.00  0.00    +0.030 C 
ENDROOT
BRANCH   3  12
ATOM     12  C   UNL     1      33.653 -12.770 -23.989  0.00  0.00    +0.049 C 
BRANCH  12  13
ATOM     13  C   UNL     1      34.142 -14.031 -23.409  0.00  0.00    -0.018 C 
ATOM     14  C   UNL     1      34.154 -15.178 -24.188  0.00  0.00    -0.003 C 
ATOM     15  C   UNL     1      34.583 -14.051 -22.095  0.00  0.00    -0.003 C 
ATOM     16  C   UNL     1      35.066 -16.407 -22.318  0.00  0.00    +0.106 C 
ATOM     17  C   UNL     1      34.619 -16.373 -23.639  0.00  0.00    +0.018 C 
ATOM     18  C   UNL     1      35.048 -15.245 -21.546  0.00  0.00    +0.018 C 
BRANCH  16  19
ATOM     19  S   UNL     1      35.647 -17.903 -21.632  0.00  0.00    +0.010 S 
ATOM     20  O   UNL     1      36.975 -18.159 -22.175  0.00  0.00    -0.169 OA
ATOM     21  O   UNL     1      35.451 -17.870 -20.189  0.00  0.00    -0.169 OA
ATOM     22  C   UNL     1      34.546 -19.142 -22.276  0.00  0.00    +0.182 C 
ENDBRANCH  16  19
ENDBRANCH  12  13
ENDBRANCH   3  12
BRANCH   2  23
ATOM     23  C   UNL     1      33.975  -7.963 -22.608  0.00  0.00    +0.132 C 
BRANCH  23  25
ATOM     24  O   UNL     1      31.760  -7.298 -23.399  0.00  0.00    -0.250 OA
ATOM     25  C   UNL     1      32.971  -7.135 -23.372  0.00  0.00    +0.318 C 
BRANCH  25  26
ATOM     26  O   UNL     1      33.612  -6.150 -24.057  0.00  0.00    -0.480 OA
ATOM     27  H   UNL     1      33.497  -5.255 -23.805  0.00  0.00    +0.295 HD
ENDBRANCH  25  26
ENDBRANCH  23  25
ENDBRANCH   2  23
TORSDOF 6
ENDMDL
MODEL 7
REMARK VINA RESULT:      -9.0      4.459      7.135
REMARK  Name = 5472495
REMARK  6 active torsions:
REMARK  status: ('A' for Active; 'I' for Inactive)
REMARK    1  A    between atoms: C_2  and  C_23
REMARK    2  A    between atoms: C_3  and  C_7
REMARK    3  A    between atoms: C_7  and  C_13
REMARK    4  A    between atoms: C_16  and  S_19
REMARK    5  A    between atoms: C_23  and  C_25
REMARK    6  A    between atoms: C_25  and  O_26
REMARK                            x       y       z     vdW  Elec       q    Type
REMARK                         _______ _______ _______ _____ _____    ______ ____
ROOT
ATOM      1  F   UNL     1      28.339 -24.588 -14.708  0.00  0.00    -0.204 F 
ATOM      2  C   UNL     1      32.856 -23.038 -16.014  0.00  0.00    -0.030 C 
ATOM      3  C   UNL     1      33.810 -23.966 -14.145  0.00  0.00    -0.036 C 
ATOM      4  C   UNL     1      34.034 -23.208 -15.375  0.00  0.00    +0.037 C 
ATOM      5  C   UNL     1      31.808 -23.692 -15.209  0.00  0.00    -0.005 C 
ATOM      6  C   UNL     1      32.379 -24.264 -14.060  0.00  0.00    -0.008 C 
ATOM      7  C   UNL     1      30.444 -23.794 -15.441  0.00  0.00    +0.029 C 
ATOM      8  C   UNL     1      31.609 -24.942 -13.130  0.00  0.00    +0.002 C 
ATOM      9  C   UNL     1      35.385 -22.731 -15.787  0.00  0.00    +0.009 C 
ATOM     10  C   UNL     1      29.659 -24.475 -14.507  0.00  0.00    +0.140 C 
ATOM     11  C   UNL     1      30.237 -25.045 -13.362  0.00  0.00    +0.030 C 
ENDROOT
BRANCH   3  12
ATOM     12  C   UNL     1      34.726 -24.334 -13.240  0.00  0.00    +0.049 C 
BRANCH  12  13
ATOM     13  C   UNL     1      36.139 -24.636 -13.522  0.00  0.00    -0.018 C 
ATOM     14  C   UNL     1      37.128 -23.840 -12.967  0.00  0.00    -0.003 C 
ATOM     15  C   UNL     1      36.456 -25.713 -14.336  0.00  0.00    -0.003 C 
ATOM     16  C   UNL     1      38.800 -25.207 -14.049  0.00  0.00    +0.106 C 
ATOM     17  C   UNL     1      38.468 -24.127 -13.232  0.00  0.00    +0.018 C 
ATOM     18  C   UNL     1      37.794 -26.001 -14.601  0.00  0.00    +0.018 C 
BRANCH  16  19
ATOM     19  S   UNL     1      40.477 -25.566 -14.380  0.00  0.00    +0.010 S 
ATOM     20  O   UNL     1      40.562 -26.101 -15.733  0.00  0.00    -0.169 OA
ATOM     21  O   UNL     1      41.289 -24.417 -14.006  0.00  0.00    -0.169 OA
ATOM     22  C   UNL     1      40.880 -26.877 -13.248  0.00  0.00    +0.182 C 
ENDBRANCH  16  19
ENDBRANCH  12  13
ENDBRANCH   3  12
BRANCH   2  23
ATOM     23  C   UNL     1      32.546 -22.344 -17.291  0.00  0.00    +0.132 C 
BRANCH  23  25
ATOM     24  O   UNL     1      33.805 -23.840 -18.758  0.00  0.00    -0.250 OA
ATOM     25  C   UNL     1      33.552 -22.715 -18.353  0.00  0.00    +0.318 C 
BRANCH  25  26
ATOM     26  O   UNL     1      34.166 -21.594 -18.816  0.00  0.00    -0.480 OA
ATOM     27  H   UNL     1      34.653 -21.624 -19.616  0.00  0.00    +0.295 HD
ENDBRANCH  25  26
ENDBRANCH  23  25
ENDBRANCH   2  23
TORSDOF 6
ENDMDL
MODEL 8
REMARK VINA RESULT:      -9.0     10.832     14.888
REMARK  Name = 5472495
REMARK  6 active torsions:
REMARK  status: ('A' for Active; 'I' for Inactive)
REMARK    1  A    between atoms: C_2  and  C_23
REMARK    2  A    between atoms: C_3  and  C_7
REMARK    3  A    between atoms: C_7  and  C_13
REMARK    4  A    between atoms: C_16  and  S_19
REMARK    5  A    between atoms: C_23  and  C_25
REMARK    6  A    between atoms: C_25  and  O_26
REMARK                            x       y       z     vdW  Elec       q    Type
REMARK                         _______ _______ _______ _____ _____    ______ ____
ROOT
ATOM      1  F   UNL     1      35.703 -10.349 -26.177  0.00  0.00    -0.204 F 
ATOM      2  C   UNL     1      33.208 -12.689 -22.597  0.00  0.00    -0.030 C 
ATOM      3  C   UNL     1      32.561 -10.709 -21.633  0.00  0.00    -0.036 C 
ATOM      4  C   UNL     1      32.502 -12.169 -21.569  0.00  0.00    +0.037 C 
ATOM      5  C   UNL     1      33.758 -11.567 -23.379  0.00  0.00    -0.005 C 
ATOM      6  C   UNL     1      33.370 -10.348 -22.799  0.00  0.00    -0.008 C 
ATOM      7  C   UNL     1      34.546 -11.583 -24.521  0.00  0.00    +0.029 C 
ATOM      8  C   UNL     1      33.756  -9.133 -23.341  0.00  0.00    +0.002 C 
ATOM      9  C   UNL     1      31.757 -12.893 -20.500  0.00  0.00    +0.009 C 
ATOM     10  C   UNL     1      34.941 -10.362 -25.074  0.00  0.00    +0.140 C 
ATOM     11  C   UNL     1      34.549  -9.147 -24.489  0.00  0.00    +0.030 C 
ENDROOT
BRANCH   3  12
ATOM     12  C   UNL     1      31.991  -9.836 -20.793  0.00  0.00    +0.049 C 
BRANCH  12  13
ATOM     13  C   UNL     1      31.850  -8.389 -21.022  0.00  0.00    -0.018 C 
ATOM     14  C   UNL     1      30.927  -7.934 -21.950  0.00  0.00    -0.003 C 
ATOM     15  C   UNL     1      32.643  -7.506 -20.305  0.00  0.00    -0.003 C 
ATOM     16  C   UNL     1      31.583  -5.663 -21.451  0.00  0.00    +0.106 C 
ATOM     17  C   UNL     1      30.792  -6.562 -22.166  0.00  0.00    +0.018 C 
ATOM     18  C   UNL     1      32.508  -6.135 -20.521  0.00  0.00    +0.018 C 
BRANCH  16  19
ATOM     19  S   UNL     1      31.414  -3.946 -21.722  0.00  0.00    +0.010 S 
ATOM     20  O   UNL     1      29.997  -3.658 -21.902  0.00  0.00    -0.169 OA
ATOM     21  O   UNL     1      32.174  -3.230 -20.707  0.00  0.00    -0.169 OA
ATOM     22  C   UNL     1      32.230  -3.662 -23.276  0.00  0.00    +0.182 C 
ENDBRANCH  16  19
ENDBRANCH  12  13
ENDBRANCH   3  12
BRANCH   2  23
ATOM     23  C   UNL     1      33.456 -14.104 -22.974  0.00  0.00    +0.132 C 
BRANCH  23  25
ATOM     24  O   UNL     1      34.766 -14.654 -20.986  0.00  0.00    -0.250 OA
ATOM     25  C   UNL     1      34.624 -14.663 -22.200  0.00  0.00    +0.318 C 
BRANCH  25  26
ATOM     26  O   UNL     1      35.534 -15.194 -23.058  0.00  0.00    -0.480 OA
ATOM     27  H   UNL     1      35.258 -15.799 -23.717  0.00  0.00    +0.295 HD
ENDBRANCH  25  26
ENDBRANCH  23  25
ENDBRANCH   2  23
TORSDOF 6
ENDMDL
