MODEL 1
REMARK VINA RESULT:     -13.0      0.000      0.000
REMARK  Name = 11634458
REMARK  5 active torsions:
REMARK  status: ('A' for Active; 'I' for Inactive)
REMARK    1  A    between atoms: N_3  and  C_11
REMARK    2  A    between atoms: C_4  and  C_19
REMARK    3  A    between atoms: C_5  and  O_35
REMARK    4  A    between atoms: N_18  and  C_22
REMARK    5  A    between atoms: C_25  and  N_29
REMARK                            x       y       z     vdW  Elec       q    Type
REMARK                         _______ _______ _______ _____ _____    ______ ____
ROOT
ATOM      1  O   UNL     1      31.987 -23.460 -12.575  0.00  0.00    -0.252 OA
ATOM      2  N   UNL     1      33.854 -23.918 -13.831  0.00  0.00    -0.255 N 
ATOM      3  N   UNL     1      31.819 -23.450 -14.900  0.00  0.00    -0.268 N 
ATOM      4  C   UNL     1      34.570 -24.269 -15.056  0.00  0.00    +0.156 C 
ATOM      5  C   UNL     1      36.103 -24.333 -13.201  0.00  0.00    +0.137 C 
ATOM      6  C   UNL     1      35.860 -24.939 -14.581  0.00  0.00    +0.061 C 
ATOM      7  C   UNL     1      34.703 -24.099 -12.655  0.00  0.00    +0.125 C 
ATOM      8  C   UNL     1      32.496 -23.597 -13.689  0.00  0.00    +0.308 C 
ATOM      9  H   UNL     1      32.355 -23.589 -15.714  0.00  0.00    +0.156 HD
ENDROOT
BRANCH   3  11
ATOM     10 CL   UNL     1      26.115 -22.089 -15.736  0.00  0.00    -0.082 Cl
ATOM     11  C   UNL     1      30.455 -23.125 -15.100  0.00  0.00    +0.052 C 
ATOM     12  C   UNL     1      29.768 -22.395 -14.134  0.00  0.00    +0.016 C 
ATOM     13  C   UNL     1      29.807 -23.537 -16.262  0.00  0.00    +0.016 C 
ATOM     14  C   UNL     1      28.425 -22.074 -14.330  0.00  0.00    +0.013 C 
ATOM     15  C   UNL     1      28.465 -23.217 -16.458  0.00  0.00    +0.013 C 
ATOM     16  C   UNL     1      27.773 -22.485 -15.493  0.00  0.00    +0.058 C 
ENDBRANCH   3  11
BRANCH   4  19
ATOM     17  O   UNL     1      35.404 -22.056 -15.263  0.00  0.00    -0.273 OA
ATOM     18  N   UNL     1      34.448 -23.111 -17.136  0.00  0.00    -0.281 N 
ATOM     19  C   UNL     1      34.864 -23.009 -15.815  0.00  0.00    +0.244 C 
ATOM     20  H   UNL     1      34.029 -23.963 -17.396  0.00  0.00    +0.155 HD
BRANCH  18  22
ATOM     21  F   UNL     1      36.922 -22.156 -17.959  0.00  0.00    -0.203 F 
ATOM     22  C   UNL     1      34.555 -22.131 -18.151  0.00  0.00    +0.078 C 
ATOM     23  C   UNL     1      35.807 -21.682 -18.533  0.00  0.00    +0.155 C 
ATOM     24  C   UNL     1      33.400 -21.643 -18.741  0.00  0.00    +0.018 C 
ATOM     25  C   UNL     1      34.756 -20.212 -20.138  0.00  0.00    +0.061 C 
ATOM     26  C   UNL     1      35.909 -20.715 -19.534  0.00  0.00    +0.046 C 
ATOM     27  C   UNL     1      33.502 -20.676 -19.741  0.00  0.00    +0.017 C 
BRANCH  25  29
ATOM     28  O   UNL     1      36.096 -17.662 -19.868  0.00  0.00    -0.269 OA
ATOM     29  N   UNL     1      34.863 -19.206 -21.178  0.00  0.00    -0.233 N 
ATOM     30  C   UNL     1      35.583 -18.009 -20.933  0.00  0.00    +0.257 C 
ATOM     31  C   UNL     1      34.242 -19.397 -22.414  0.00  0.00    +0.072 C 
ATOM     32  C   UNL     1      35.684 -17.048 -22.073  0.00  0.00    +0.059 C 
ATOM     33  C   UNL     1      34.319 -18.506 -23.407  0.00  0.00    +0.017 C 
ATOM     34  C   UNL     1      35.070 -17.300 -23.231  0.00  0.00    +0.006 C 
ENDBRANCH  25  29
ENDBRANCH  18  22
ENDBRANCH   4  19
BRANCH   5  35
ATOM     35  O   UNL     1      36.795 -23.096 -13.336  0.00  0.00    -0.352 OA
ATOM     36  C   UNL     1      37.481 -22.751 -12.141  0.00  0.00    +0.174 C 
ENDBRANCH   5  35
TORSDOF 5
ENDMDL
MODEL 2
REMARK VINA RESULT:     -11.7      1.838      2.599
REMARK  Name = 11634458
REMARK  5 active torsions:
REMARK  status: ('A' for Active; 'I' for Inactive)
REMARK    1  A    between atoms: N_3  and  C_11
REMARK    2  A    between atoms: C_4  and  C_19
REMARK    3  A    between atoms: C_5  and  O_35
REMARK    4  A    between atoms: N_18  and  C_22
REMARK    5  A    between atoms: C_25  and  N_29
REMARK                            x       y       z     vdW  Elec       q    Type
REMARK                         _______ _______ _______ _____ _____    ______ ____
ROOT
ATOM      1  O   UNL     1      33.382 -23.362 -11.721  0.00  0.00    -0.252 OA
ATOM      2  N   UNL     1      35.251 -24.508 -12.406  0.00  0.00    -0.255 N 
ATOM      3  N   UNL     1      33.308 -24.558 -13.721  0.00  0.00    -0.268 N 
ATOM      4  C   UNL     1      35.981 -25.485 -13.211  0.00  0.00    +0.156 C 
ATOM      5  C   UNL     1      37.428 -24.654 -11.475  0.00  0.00    +0.137 C 
ATOM      6  C   UNL     1      37.187 -25.877 -12.357  0.00  0.00    +0.061 C 
ATOM      7  C   UNL     1      36.033 -24.095 -11.243  0.00  0.00    +0.125 C 
ATOM      8  C   UNL     1      33.921 -24.088 -12.559  0.00  0.00    +0.308 C 
ATOM      9  H   UNL     1      33.862 -25.130 -14.300  0.00  0.00    +0.156 HD
ENDROOT
BRANCH   3  11
ATOM     10 CL   UNL     1      27.783 -23.529 -15.592  0.00  0.00    -0.082 Cl
ATOM     11  C   UNL     1      31.987 -24.312 -14.168  0.00  0.00    +0.052 C 
ATOM     12  C   UNL     1      30.941 -25.111 -13.714  0.00  0.00    +0.016 C 
ATOM     13  C   UNL     1      31.740 -23.272 -15.061  0.00  0.00    +0.016 C 
ATOM     14  C   UNL     1      29.640 -24.869 -14.154  0.00  0.00    +0.013 C 
ATOM     15  C   UNL     1      30.440 -23.030 -15.502  0.00  0.00    +0.013 C 
ATOM     16  C   UNL     1      29.389 -23.828 -15.048  0.00  0.00    +0.058 C 
ENDBRANCH   3  11
BRANCH   4  19
ATOM     17  O   UNL     1      37.435 -25.184 -15.064  0.00  0.00    -0.273 OA
ATOM     18  N   UNL     1      35.530 -23.819 -14.854  0.00  0.00    -0.281 N 
ATOM     19  C   UNL     1      36.414 -24.824 -14.486  0.00  0.00    +0.244 C 
ATOM     20  H   UNL     1      34.762 -23.673 -14.256  0.00  0.00    +0.155 HD
BRANCH  18  22
ATOM     21  F   UNL     1      37.706 -22.142 -15.262  0.00  0.00    -0.203 F 
ATOM     22  C   UNL     1      35.606 -22.978 -15.990  0.00  0.00    +0.078 C 
ATOM     23  C   UNL     1      36.708 -22.157 -16.157  0.00  0.00    +0.155 C 
ATOM     24  C   UNL     1      34.571 -22.995 -16.912  0.00  0.00    +0.018 C 
ATOM     25  C   UNL     1      35.745 -21.334 -18.214  0.00  0.00    +0.061 C 
ATOM     26  C   UNL     1      36.778 -21.329 -17.277  0.00  0.00    +0.046 C 
ATOM     27  C   UNL     1      34.642 -22.167 -18.031  0.00  0.00    +0.017 C 
BRANCH  25  29
ATOM     28  O   UNL     1      33.537 -20.712 -19.976  0.00  0.00    -0.269 OA
ATOM     29  N   UNL     1      35.819 -20.472 -19.379  0.00  0.00    -0.233 N 
ATOM     30  C   UNL     1      34.651 -20.213 -20.142  0.00  0.00    +0.257 C 
ATOM     31  C   UNL     1      37.036 -19.911 -19.770  0.00  0.00    +0.072 C 
ATOM     32  C   UNL     1      34.804 -19.277 -21.297  0.00  0.00    +0.059 C 
ATOM     33  C   UNL     1      37.154 -19.103 -20.828  0.00  0.00    +0.017 C 
ATOM     34  C   UNL     1      36.000 -18.772 -21.609  0.00  0.00    +0.006 C 
ENDBRANCH  25  29
ENDBRANCH  18  22
ENDBRANCH   4  19
BRANCH   5  35
ATOM     35  O   UNL     1      38.229 -23.709 -12.175  0.00  0.00    -0.352 OA
ATOM     36  C   UNL     1      37.910 -22.376 -11.799  0.00  0.00    +0.174 C 
ENDBRANCH   5  35
TORSDOF 5
ENDMDL
