MODEL 1
REMARK VINA RESULT:     -12.5      0.000      0.000
REMARK  Name = 24878044
REMARK  6 active torsions:
REMARK  status: ('A' for Active; 'I' for Inactive)
REMARK    1  A    between atoms: N_2  and  C_6
REMARK    2  A    between atoms: C_3  and  C_18
REMARK    3  A    between atoms: C_7  and  S_12
REMARK    4  A    between atoms: S_12  and  N_15
REMARK    5  A    between atoms: C_18  and  S_19
REMARK    6  A    between atoms: S_19  and  C_31
REMARK                            x       y       z     vdW  Elec       q    Type
REMARK                         _______ _______ _______ _____ _____    ______ ____
ROOT
ATOM      1  O   UNL     1      34.239 -19.073 -23.937  0.00  0.00    -0.274 OA
ATOM      2  N   UNL     1      34.791 -18.152 -21.846  0.00  0.00    -0.283 N 
ATOM      3  C   UNL     1      34.594 -18.139 -23.223  0.00  0.00    +0.238 C 
ATOM      4  H   UNL     1      35.091 -17.306 -21.442  0.00  0.00    +0.155 HD
ENDROOT
BRANCH   2   6
ATOM      5 CL   UNL     1      37.308 -19.292 -20.562  0.00  0.00    -0.081 Cl
ATOM      6  C   UNL     1      34.610 -19.241 -20.961  0.00  0.00    +0.061 C 
ATOM      7  C   UNL     1      34.182 -21.384 -19.228  0.00  0.00    +0.123 C 
ATOM      8  C   UNL     1      35.690 -19.842 -20.316  0.00  0.00    +0.072 C 
ATOM      9  C   UNL     1      33.315 -19.712 -20.740  0.00  0.00    +0.017 C 
ATOM     10  C   UNL     1      35.476 -20.914 -19.449  0.00  0.00    +0.033 C 
ATOM     11  C   UNL     1      33.101 -20.783 -19.873  0.00  0.00    +0.021 C 
BRANCH   7  12
ATOM     12  S   UNL     1      33.913 -22.726 -18.142  0.00  0.00    +0.057 S 
ATOM     13  O   UNL     1      33.867 -23.950 -18.928  0.00  0.00    -0.153 OA
ATOM     14  O   UNL     1      34.846 -22.614 -17.029  0.00  0.00    -0.153 OA
BRANCH  12  15
ATOM     15  N   UNL     1      32.339 -22.376 -17.576  0.00  0.00    -0.203 NA
ATOM     16  H   UNL     1      32.384 -21.612 -16.901  0.00  0.00    +0.144 HD
ATOM     17  H   UNL     1      31.947 -23.203 -17.128  0.00  0.00    +0.144 HD
ENDBRANCH  12  15
ENDBRANCH   7  12
ENDBRANCH   2   6
BRANCH   3  18
ATOM     18  C   UNL     1      34.892 -16.782 -23.825  0.00  0.00    +0.152 C 
BRANCH  18  19
ATOM     19  S   UNL     1      35.056 -15.575 -22.491  0.00  0.00    -0.047 S 
BRANCH  19  31
ATOM     20  O   UNL     1      33.730 -14.203 -24.264  0.00  0.00    -0.262 OA
ATOM     21  N   UNL     1      33.459 -13.429 -22.061  0.00  0.00    -0.250 N 
ATOM     22  C   UNL     1      31.917 -13.346 -20.108  0.00  0.00    +0.027 C 
ATOM     23  C   UNL     1      31.976 -11.833 -20.066  0.00  0.00    +0.029 C 
ATOM     24  C   UNL     1      33.216 -13.889 -20.677  0.00  0.00    +0.099 C 
ATOM     25  C   UNL     1      32.421 -11.270 -21.389  0.00  0.00    -0.009 C 
ATOM     26  C   UNL     1      33.137 -12.040 -22.335  0.00  0.00    +0.051 C 
ATOM     27  C   UNL     1      32.135  -9.916 -21.646  0.00  0.00    -0.007 C 
ATOM     28  C   UNL     1      33.558 -11.396 -23.514  0.00  0.00    +0.014 C 
ATOM     29  C   UNL     1      32.541  -9.313 -22.830  0.00  0.00    -0.022 C 
ATOM     30  C   UNL     1      33.257 -10.052 -23.761  0.00  0.00    -0.003 C 
ATOM     31  C   UNL     1      33.967 -14.288 -23.063  0.00  0.00    +0.280 C 
ATOM     32  C   UNL     1      32.199  -7.888 -23.103  0.00  0.00    +0.031 C 
ENDBRANCH  19  31
ENDBRANCH  18  19
ENDBRANCH   3  18
TORSDOF 6
ENDMDL
MODEL 2
REMARK VINA RESULT:     -12.3      1.202      2.316
REMARK  Name = 24878044
REMARK  6 active torsions:
REMARK  status: ('A' for Active; 'I' for Inactive)
REMARK    1  A    between atoms: N_2  and  C_6
REMARK    2  A    between atoms: C_3  and  C_18
REMARK    3  A    between atoms: C_7  and  S_12
REMARK    4  A    between atoms: S_12  and  N_15
REMARK    5  A    between atoms: C_18  and  S_19
REMARK    6  A    between atoms: S_19  and  C_31
REMARK                            x       y       z     vdW  Elec       q    Type
REMARK                         _______ _______ _______ _____ _____    ______ ____
ROOT
ATOM      1  O   UNL     1      34.169 -18.889 -23.854  0.00  0.00    -0.274 OA
ATOM      2  N   UNL     1      35.077 -18.137 -21.821  0.00  0.00    -0.283 N 
ATOM      3  C   UNL     1      34.755 -18.054 -23.171  0.00  0.00    +0.238 C 
ATOM      4  H   UNL     1      35.564 -17.371 -21.441  0.00  0.00    +0.155 HD
ENDROOT
BRANCH   2   6
ATOM      5 CL   UNL     1      37.450 -19.407 -20.391  0.00  0.00    -0.081 Cl
ATOM      6  C   UNL     1      34.783 -19.198 -20.930  0.00  0.00    +0.061 C 
ATOM      7  C   UNL     1      34.135 -21.278 -19.189  0.00  0.00    +0.123 C 
ATOM      8  C   UNL     1      35.790 -19.852 -20.221  0.00  0.00    +0.072 C 
ATOM      9  C   UNL     1      33.452 -19.584 -20.769  0.00  0.00    +0.017 C 
ATOM     10  C   UNL     1      35.466 -20.892 -19.350  0.00  0.00    +0.033 C 
ATOM     11  C   UNL     1      33.128 -20.624 -19.898  0.00  0.00    +0.021 C 
BRANCH   7  12
ATOM     12  S   UNL     1      33.729 -22.581 -18.099  0.00  0.00    +0.057 S 
ATOM     13  O   UNL     1      34.762 -22.663 -17.076  0.00  0.00    -0.153 OA
ATOM     14  O   UNL     1      32.333 -22.440 -17.709  0.00  0.00    -0.153 OA
BRANCH  12  15
ATOM     15  N   UNL     1      33.874 -23.931 -19.138  0.00  0.00    -0.203 NA
ATOM     16  H   UNL     1      33.008 -24.470 -19.116  0.00  0.00    +0.144 HD
ATOM     17  H   UNL     1      34.649 -24.517 -18.828  0.00  0.00    +0.144 HD
ENDBRANCH  12  15
ENDBRANCH   7  12
ENDBRANCH   2   6
BRANCH   3  18
ATOM     18  C   UNL     1      35.239 -16.759 -23.789  0.00  0.00    +0.152 C 
BRANCH  18  19
ATOM     19  S   UNL     1      33.811 -15.709 -24.137  0.00  0.00    -0.047 S 
BRANCH  19  31
ATOM     20  O   UNL     1      34.341 -14.903 -21.718  0.00  0.00    -0.262 OA
ATOM     21  N   UNL     1      33.511 -13.214 -23.126  0.00  0.00    -0.250 N 
ATOM     22  C   UNL     1      34.111 -11.203 -24.465  0.00  0.00    +0.027 C 
ATOM     23  C   UNL     1      33.096 -10.353 -23.732  0.00  0.00    +0.029 C 
ATOM     24  C   UNL     1      33.644 -12.648 -24.485  0.00  0.00    +0.099 C 
ATOM     25  C   UNL     1      32.734 -10.963 -22.404  0.00  0.00    -0.009 C 
ATOM     26  C   UNL     1      32.929 -12.336 -22.126  0.00  0.00    +0.051 C 
ATOM     27  C   UNL     1      32.144 -10.120 -21.443  0.00  0.00    -0.007 C 
ATOM     28  C   UNL     1      32.498 -12.813 -20.874  0.00  0.00    +0.014 C 
ATOM     29  C   UNL     1      31.751 -10.615 -20.206  0.00  0.00    -0.022 C 
ATOM     30  C   UNL     1      31.924 -11.962 -19.924  0.00  0.00    -0.003 C 
ATOM     31  C   UNL     1      33.929 -14.528 -22.811  0.00  0.00    +0.280 C 
ATOM     32  C   UNL     1      31.163  -9.702 -19.184  0.00  0.00    +0.031 C 
ENDBRANCH  19  31
ENDBRANCH  18  19
ENDBRANCH   3  18
TORSDOF 6
ENDMDL
MODEL 3
REMARK VINA RESULT:     -11.3      3.131      4.405
REMARK  Name = 24878044
REMARK  6 active torsions:
REMARK  status: ('A' for Active; 'I' for Inactive)
REMARK    1  A    between atoms: N_2  and  C_6
REMARK    2  A    between atoms: C_3  and  C_18
REMARK    3  A    between atoms: C_7  and  S_12
REMARK    4  A    between atoms: S_12  and  N_15
REMARK    5  A    between atoms: C_18  and  S_19
REMARK    6  A    between atoms: S_19  and  C_31
REMARK                            x       y       z     vdW  Elec       q    Type
REMARK                         _______ _______ _______ _____ _____    ______ ____
ROOT
ATOM      1  O   UNL     1      36.820 -19.456 -19.395  0.00  0.00    -0.274 OA
ATOM      2  N   UNL     1      35.249 -21.195 -19.227  0.00  0.00    -0.283 N 
ATOM      3  C   UNL     1      35.889 -20.124 -19.839  0.00  0.00    +0.238 C 
ATOM      4  H   UNL     1      34.508 -21.605 -19.730  0.00  0.00    +0.155 HD
ENDROOT
BRANCH   2   6
ATOM      5 CL   UNL     1      32.935 -22.562 -17.789  0.00  0.00    -0.081 Cl
ATOM      6  C   UNL     1      35.539 -21.765 -17.964  0.00  0.00    +0.061 C 
ATOM      7  C   UNL     1      36.180 -22.868 -15.484  0.00  0.00    +0.123 C 
ATOM      8  C   UNL     1      34.559 -22.416 -17.217  0.00  0.00    +0.072 C 
ATOM      9  C   UNL     1      36.841 -21.666 -17.471  0.00  0.00    +0.017 C 
ATOM     10  C   UNL     1      34.879 -22.968 -15.977  0.00  0.00    +0.033 C 
ATOM     11  C   UNL     1      37.162 -22.218 -16.231  0.00  0.00    +0.021 C 
BRANCH   7  12
ATOM     12  S   UNL     1      36.581 -23.559 -13.931  0.00  0.00    +0.057 S 
ATOM     13  O   UNL     1      36.648 -25.006 -14.074  0.00  0.00    -0.153 OA
ATOM     14  O   UNL     1      37.718 -22.833 -13.382  0.00  0.00    -0.153 OA
BRANCH  12  15
ATOM     15  N   UNL     1      35.187 -23.159 -13.027  0.00  0.00    -0.203 NA
ATOM     16  H   UNL     1      35.103 -22.144 -12.963  0.00  0.00    +0.144 HD
ATOM     17  H   UNL     1      35.264 -23.554 -12.090  0.00  0.00    +0.144 HD
ENDBRANCH  12  15
ENDBRANCH   7  12
ENDBRANCH   2   6
BRANCH   3  18
ATOM     18  C   UNL     1      35.292 -19.804 -21.192  0.00  0.00    +0.152 C 
BRANCH  18  19
ATOM     19  S   UNL     1      36.212 -18.434 -21.927  0.00  0.00    -0.047 S 
BRANCH  19  31
ATOM     20  O   UNL     1      34.201 -18.177 -23.562  0.00  0.00    -0.262 OA
ATOM     21  N   UNL     1      34.793 -16.187 -22.460  0.00  0.00    -0.250 N 
ATOM     22  C   UNL     1      34.168 -14.601 -20.647  0.00  0.00    +0.027 C 
ATOM     23  C   UNL     1      34.145 -13.434 -21.611  0.00  0.00    +0.029 C 
ATOM     24  C   UNL     1      35.159 -15.644 -21.135  0.00  0.00    +0.099 C 
ATOM     25  C   UNL     1      33.983 -13.906 -23.032  0.00  0.00    -0.009 C 
ATOM     26  C   UNL     1      34.303 -15.224 -23.430  0.00  0.00    +0.051 C 
ATOM     27  C   UNL     1      33.534 -12.966 -23.979  0.00  0.00    -0.007 C 
ATOM     28  C   UNL     1      34.172 -15.540 -24.795  0.00  0.00    +0.014 C 
ATOM     29  C   UNL     1      33.390 -13.314 -25.316  0.00  0.00    -0.022 C 
ATOM     30  C   UNL     1      33.714 -14.600 -25.724  0.00  0.00    -0.003 C 
ATOM     31  C   UNL     1      34.907 -17.563 -22.769  0.00  0.00    +0.280 C 
ATOM     32  C   UNL     1      32.878 -12.319 -26.300  0.00  0.00    +0.031 C 
ENDBRANCH  19  31
ENDBRANCH  18  19
ENDBRANCH   3  18
TORSDOF 6
ENDMDL
MODEL 4
REMARK VINA RESULT:     -11.2      4.510      6.831
REMARK  Name = 24878044
REMARK  6 active torsions:
REMARK  status: ('A' for Active; 'I' for Inactive)
REMARK    1  A    between atoms: N_2  and  C_6
REMARK    2  A    between atoms: C_3  and  C_18
REMARK    3  A    between atoms: C_7  and  S_12
REMARK    4  A    between atoms: S_12  and  N_15
REMARK    5  A    between atoms: C_18  and  S_19
REMARK    6  A    between atoms: S_19  and  C_31
REMARK                            x       y       z     vdW  Elec       q    Type
REMARK                         _______ _______ _______ _____ _____    ______ ____
ROOT
ATOM      1  O   UNL     1      34.957 -22.538 -17.616  0.00  0.00    -0.274 OA
ATOM      2  N   UNL     1      36.971 -22.089 -16.492  0.00  0.00    -0.283 N 
ATOM      3  C   UNL     1      36.066 -22.016 -17.545  0.00  0.00    +0.238 C 
ATOM      4  H   UNL     1      37.824 -21.615 -16.618  0.00  0.00    +0.155 HD
ENDROOT
BRANCH   2   6
ATOM      5 CL   UNL     1      39.319 -23.786 -15.548  0.00  0.00    -0.081 Cl
ATOM      6  C   UNL     1      36.806 -22.766 -15.259  0.00  0.00    +0.061 C 
ATOM      7  C   UNL     1      36.414 -24.070 -12.825  0.00  0.00    +0.123 C 
ATOM      8  C   UNL     1      37.814 -23.570 -14.730  0.00  0.00    +0.072 C 
ATOM      9  C   UNL     1      35.601 -22.614 -14.572  0.00  0.00    +0.017 C 
ATOM     10  C   UNL     1      37.618 -24.222 -13.513  0.00  0.00    +0.033 C 
ATOM     11  C   UNL     1      35.405 -23.266 -13.354  0.00  0.00    +0.021 C 
BRANCH   7  12
ATOM     12  S   UNL     1      36.169 -24.887 -11.302  0.00  0.00    +0.057 S 
ATOM     13  O   UNL     1      34.747 -24.863 -10.991  0.00  0.00    -0.153 OA
ATOM     14  O   UNL     1      36.881 -26.157 -11.337  0.00  0.00    -0.153 OA
BRANCH  12  15
ATOM     15  N   UNL     1      36.983 -23.831 -10.232  0.00  0.00    -0.203 NA
ATOM     16  H   UNL     1      36.301 -23.251  -9.743  0.00  0.00    +0.144 HD
ATOM     17  H   UNL     1      37.620 -23.236 -10.761  0.00  0.00    +0.144 HD
ENDBRANCH  12  15
ENDBRANCH   7  12
ENDBRANCH   2   6
BRANCH   3  18
ATOM     18  C   UNL     1      36.604 -21.197 -18.699  0.00  0.00    +0.152 C 
BRANCH  18  19
ATOM     19  S   UNL     1      35.234 -20.755 -19.790  0.00  0.00    -0.047 S 
BRANCH  19  31
ATOM     20  O   UNL     1      36.670 -18.582 -19.807  0.00  0.00    -0.262 OA
ATOM     21  N   UNL     1      35.155 -18.739 -21.598  0.00  0.00    -0.250 N 
ATOM     22  C   UNL     1      34.921 -19.204 -24.032  0.00  0.00    +0.027 C 
ATOM     23  C   UNL     1      34.241 -17.872 -24.269  0.00  0.00    +0.029 C 
ATOM     24  C   UNL     1      34.635 -19.675 -22.617  0.00  0.00    +0.099 C 
ATOM     25  C   UNL     1      34.546 -16.901 -23.160  0.00  0.00    -0.009 C 
ATOM     26  C   UNL     1      34.976 -17.326 -21.882  0.00  0.00    +0.051 C 
ATOM     27  C   UNL     1      34.347 -15.533 -23.425  0.00  0.00    -0.007 C 
ATOM     28  C   UNL     1      35.173 -16.337 -20.900  0.00  0.00    +0.014 C 
ATOM     29  C   UNL     1      34.574 -14.576 -22.443  0.00  0.00    -0.022 C 
ATOM     30  C   UNL     1      34.983 -14.980 -21.180  0.00  0.00    -0.003 C 
ATOM     31  C   UNL     1      35.794 -19.187 -20.418  0.00  0.00    +0.280 C 
ATOM     32  C   UNL     1      34.395 -13.129 -22.749  0.00  0.00    +0.031 C 
ENDBRANCH  19  31
ENDBRANCH  18  19
ENDBRANCH   3  18
TORSDOF 6
ENDMDL
MODEL 5
REMARK VINA RESULT:     -11.1      3.350      9.896
REMARK  Name = 24878044
REMARK  6 active torsions:
REMARK  status: ('A' for Active; 'I' for Inactive)
REMARK    1  A    between atoms: N_2  and  C_6
REMARK    2  A    between atoms: C_3  and  C_18
REMARK    3  A    between atoms: C_7  and  S_12
REMARK    4  A    between atoms: S_12  and  N_15
REMARK    5  A    between atoms: C_18  and  S_19
REMARK    6  A    between atoms: S_19  and  C_31
REMARK                            x       y       z     vdW  Elec       q    Type
REMARK                         _______ _______ _______ _____ _____    ______ ____
ROOT
ATOM      1  O   UNL     1      32.657 -13.967 -25.630  0.00  0.00    -0.274 OA
ATOM      2  N   UNL     1      33.625 -13.796 -23.495  0.00  0.00    -0.283 N 
ATOM      3  C   UNL     1      33.280 -14.436 -24.680  0.00  0.00    +0.238 C 
ATOM      4  H   UNL     1      34.118 -14.337 -22.836  0.00  0.00    +0.155 HD
ENDROOT
BRANCH   2   6
ATOM      5 CL   UNL     1      32.025 -13.391 -20.934  0.00  0.00    -0.081 Cl
ATOM      6  C   UNL     1      33.351 -12.457 -23.128  0.00  0.00    +0.061 C 
ATOM      7  C   UNL     1      32.848  -9.796 -22.461  0.00  0.00    +0.123 C 
ATOM      8  C   UNL     1      32.628 -12.152 -21.976  0.00  0.00    +0.072 C 
ATOM      9  C   UNL     1      33.823 -11.431 -23.948  0.00  0.00    +0.017 C 
ATOM     10  C   UNL     1      32.376 -10.821 -21.642  0.00  0.00    +0.033 C 
ATOM     11  C   UNL     1      33.572 -10.100 -23.614  0.00  0.00    +0.021 C 
BRANCH   7  12
ATOM     12  S   UNL     1      32.533  -8.130 -22.044  0.00  0.00    +0.057 S 
ATOM     13  O   UNL     1      33.794  -7.403 -22.070  0.00  0.00    -0.153 OA
ATOM     14  O   UNL     1      31.409  -7.658 -22.841  0.00  0.00    -0.153 OA
BRANCH  12  15
ATOM     15  N   UNL     1      32.025  -8.291 -20.421  0.00  0.00    -0.203 NA
ATOM     16  H   UNL     1      32.444  -7.550 -19.858  0.00  0.00    +0.144 HD
ATOM     17  H   UNL     1      32.318  -9.199 -20.061  0.00  0.00    +0.144 HD
ENDBRANCH  12  15
ENDBRANCH   7  12
ENDBRANCH   2   6
BRANCH   3  18
ATOM     18  C   UNL     1      33.749 -15.875 -24.706  0.00  0.00    +0.152 C 
BRANCH  18  19
ATOM     19  S   UNL     1      34.922 -16.130 -23.355  0.00  0.00    -0.047 S 
BRANCH  19  31
ATOM     20  O   UNL     1      33.702 -18.424 -23.538  0.00  0.00    -0.262 OA
ATOM     21  N   UNL     1      35.315 -18.334 -21.830  0.00  0.00    -0.250 N 
ATOM     22  C   UNL     1      37.605 -19.037 -21.153  0.00  0.00    +0.027 C 
ATOM     23  C   UNL     1      37.082 -19.697 -19.895  0.00  0.00    +0.029 C 
ATOM     24  C   UNL     1      36.693 -17.885 -21.539  0.00  0.00    +0.099 C 
ATOM     25  C   UNL     1      35.614 -20.009 -20.015  0.00  0.00    -0.009 C 
ATOM     26  C   UNL     1      34.774 -19.346 -20.940  0.00  0.00    +0.051 C 
ATOM     27  C   UNL     1      35.082 -20.970 -19.134  0.00  0.00    -0.007 C 
ATOM     28  C   UNL     1      33.405 -19.672 -20.925  0.00  0.00    +0.014 C 
ATOM     29  C   UNL     1      33.730 -21.290 -19.159  0.00  0.00    -0.022 C 
ATOM     30  C   UNL     1      32.892 -20.637 -20.052  0.00  0.00    -0.003 C 
ATOM     31  C   UNL     1      34.565 -17.816 -22.912  0.00  0.00    +0.280 C 
ATOM     32  C   UNL     1      33.188 -22.336 -18.246  0.00  0.00    +0.031 C 
ENDBRANCH  19  31
ENDBRANCH  18  19
ENDBRANCH   3  18
TORSDOF 6
ENDMDL
MODEL 6
REMARK VINA RESULT:     -10.8      4.055     11.077
REMARK  Name = 24878044
REMARK  6 active torsions:
REMARK  status: ('A' for Active; 'I' for Inactive)
REMARK    1  A    between atoms: N_2  and  C_6
REMARK    2  A    between atoms: C_3  and  C_18
REMARK    3  A    between atoms: C_7  and  S_12
REMARK    4  A    between atoms: S_12  and  N_15
REMARK    5  A    between atoms: C_18  and  S_19
REMARK    6  A    between atoms: S_19  and  C_31
REMARK                            x       y       z     vdW  Elec       q    Type
REMARK                         _______ _______ _______ _____ _____    ______ ____
ROOT
ATOM      1  O   UNL     1      34.269 -19.843 -20.676  0.00  0.00    -0.274 OA
ATOM      2  N   UNL     1      35.957 -18.222 -20.455  0.00  0.00    -0.283 N 
ATOM      3  C   UNL     1      35.392 -19.486 -20.328  0.00  0.00    +0.238 C 
ATOM      4  H   UNL     1      36.871 -18.117 -20.105  0.00  0.00    +0.155 HD
ENDROOT
BRANCH   2   6
ATOM      5 CL   UNL     1      35.541 -18.274 -23.473  0.00  0.00    -0.081 Cl
ATOM      6  C   UNL     1      35.369 -17.070 -21.031  0.00  0.00    +0.061 C 
ATOM      7  C   UNL     1      34.206 -14.771 -22.100  0.00  0.00    +0.123 C 
ATOM      8  C   UNL     1      35.131 -16.983 -22.402  0.00  0.00    +0.072 C 
ATOM      9  C   UNL     1      35.026 -16.008 -20.194  0.00  0.00    +0.017 C 
ATOM     10  C   UNL     1      34.549 -15.833 -22.936  0.00  0.00    +0.033 C 
ATOM     11  C   UNL     1      34.444 -14.858 -20.728  0.00  0.00    +0.021 C 
BRANCH   7  12
ATOM     12  S   UNL     1      33.478 -13.332 -22.769  0.00  0.00    +0.057 S 
ATOM     13  O   UNL     1      32.376 -12.931 -21.907  0.00  0.00    -0.153 OA
ATOM     14  O   UNL     1      34.536 -12.381 -23.082  0.00  0.00    -0.153 OA
BRANCH  12  15
ATOM     15  N   UNL     1      32.838 -13.941 -24.232  0.00  0.00    -0.203 NA
ATOM     16  H   UNL     1      32.083 -13.334 -24.552  0.00  0.00    +0.144 HD
ATOM     17  H   UNL     1      32.477 -14.883 -24.080  0.00  0.00    +0.144 HD
ENDBRANCH  12  15
ENDBRANCH   7  12
ENDBRANCH   2   6
BRANCH   3  18
ATOM     18  C   UNL     1      36.334 -20.463 -19.656  0.00  0.00    +0.152 C 
BRANCH  18  19
ATOM     19  S   UNL     1      35.368 -21.826 -18.969  0.00  0.00    -0.047 S 
BRANCH  19  31
ATOM     20  O   UNL     1      36.855 -21.082 -16.965  0.00  0.00    -0.262 OA
ATOM     21  N   UNL     1      35.233 -22.689 -16.404  0.00  0.00    -0.250 N 
ATOM     22  C   UNL     1      33.041 -23.065 -15.288  0.00  0.00    +0.027 C 
ATOM     23  C   UNL     1      33.632 -24.119 -14.376  0.00  0.00    +0.029 C 
ATOM     24  C   UNL     1      33.810 -23.036 -16.598  0.00  0.00    +0.099 C 
ATOM     25  C   UNL     1      35.127 -23.975 -14.278  0.00  0.00    -0.009 C 
ATOM     26  C   UNL     1      35.886 -23.295 -15.258  0.00  0.00    +0.051 C 
ATOM     27  C   UNL     1      35.765 -24.586 -13.181  0.00  0.00    -0.007 C 
ATOM     28  C   UNL     1      37.285 -23.274 -15.098  0.00  0.00    +0.014 C 
ATOM     29  C   UNL     1      37.146 -24.527 -13.036  0.00  0.00    -0.022 C 
ATOM     30  C   UNL     1      37.905 -23.875 -13.998  0.00  0.00    -0.003 C 
ATOM     31  C   UNL     1      35.921 -21.814 -17.278  0.00  0.00    +0.280 C 
ATOM     32  C   UNL     1      37.804 -25.146 -11.851  0.00  0.00    +0.031 C 
ENDBRANCH  19  31
ENDBRANCH  18  19
ENDBRANCH   3  18
TORSDOF 6
ENDMDL
MODEL 7
REMARK VINA RESULT:     -10.7      5.233      8.096
REMARK  Name = 24878044
REMARK  6 active torsions:
REMARK  status: ('A' for Active; 'I' for Inactive)
REMARK    1  A    between atoms: N_2  and  C_6
REMARK    2  A    between atoms: C_3  and  C_18
REMARK    3  A    between atoms: C_7  and  S_12
REMARK    4  A    between atoms: S_12  and  N_15
REMARK    5  A    between atoms: C_18  and  S_19
REMARK    6  A    between atoms: S_19  and  C_31
REMARK                            x       y       z     vdW  Elec       q    Type
REMARK                         _______ _______ _______ _____ _____    ______ ____
ROOT
ATOM      1  O   UNL     1      32.206 -23.123 -15.254  0.00  0.00    -0.274 OA
ATOM      2  N   UNL     1      34.395 -23.106 -16.111  0.00  0.00    -0.283 N 
ATOM      3  C   UNL     1      33.010 -23.003 -16.176  0.00  0.00    +0.238 C 
ATOM      4  H   UNL     1      34.880 -22.993 -16.960  0.00  0.00    +0.155 HD
ENDROOT
BRANCH   2   6
ATOM      5 CL   UNL     1      37.195 -21.905 -16.111  0.00  0.00    -0.081 Cl
ATOM      6  C   UNL     1      35.187 -23.353 -14.964  0.00  0.00    +0.061 C 
ATOM      7  C   UNL     1      36.694 -23.877 -12.676  0.00  0.00    +0.123 C 
ATOM      8  C   UNL     1      36.484 -22.853 -14.854  0.00  0.00    +0.072 C 
ATOM      9  C   UNL     1      34.644 -24.116 -13.930  0.00  0.00    +0.017 C 
ATOM     10  C   UNL     1      37.237 -23.114 -13.710  0.00  0.00    +0.033 C 
ATOM     11  C   UNL     1      35.397 -24.378 -12.786  0.00  0.00    +0.021 C 
BRANCH   7  12
ATOM     12  S   UNL     1      37.637 -24.205 -11.244  0.00  0.00    +0.057 S 
ATOM     13  O   UNL     1      37.990 -25.617 -11.239  0.00  0.00    -0.153 OA
ATOM     14  O   UNL     1      38.683 -23.197 -11.138  0.00  0.00    -0.153 OA
BRANCH  12  15
ATOM     15  N   UNL     1      36.478 -23.923 -10.020  0.00  0.00    -0.203 NA
ATOM     16  H   UNL     1      35.541 -24.053 -10.403  0.00  0.00    +0.144 HD
ATOM     17  H   UNL     1      36.575 -22.969  -9.673  0.00  0.00    +0.144 HD
ENDBRANCH  12  15
ENDBRANCH   7  12
ENDBRANCH   2   6
BRANCH   3  18
ATOM     18  C   UNL     1      32.527 -22.731 -17.585  0.00  0.00    +0.152 C 
BRANCH  18  19
ATOM     19  S   UNL     1      33.955 -22.668 -18.689  0.00  0.00    -0.047 S 
BRANCH  19  31
ATOM     20  O   UNL     1      32.622 -20.560 -19.438  0.00  0.00    -0.262 OA
ATOM     21  N   UNL     1      34.909 -20.482 -19.974  0.00  0.00    -0.250 N 
ATOM     22  C   UNL     1      37.109 -19.491 -19.365  0.00  0.00    +0.027 C 
ATOM     23  C   UNL     1      37.308 -18.951 -20.765  0.00  0.00    +0.029 C 
ATOM     24  C   UNL     1      36.254 -20.744 -19.419  0.00  0.00    +0.099 C 
ATOM     25  C   UNL     1      35.996 -18.842 -21.496  0.00  0.00    -0.009 C 
ATOM     26  C   UNL     1      34.855 -19.585 -21.114  0.00  0.00    +0.051 C 
ATOM     27  C   UNL     1      35.950 -17.993 -22.619  0.00  0.00    -0.007 C 
ATOM     28  C   UNL     1      33.698 -19.452 -21.905  0.00  0.00    +0.014 C 
ATOM     29  C   UNL     1      34.786 -17.863 -23.366  0.00  0.00    -0.022 C 
ATOM     30  C   UNL     1      33.662 -18.596 -23.012  0.00  0.00    -0.003 C 
ATOM     31  C   UNL     1      33.741 -21.063 -19.427  0.00  0.00    +0.280 C 
ATOM     32  C   UNL     1      34.740 -16.933 -24.530  0.00  0.00    +0.031 C 
ENDBRANCH  19  31
ENDBRANCH  18  19
ENDBRANCH   3  18
TORSDOF 6
ENDMDL
MODEL 8
REMARK VINA RESULT:     -10.7      5.811     11.928
REMARK  Name = 24878044
REMARK  6 active torsions:
REMARK  status: ('A' for Active; 'I' for Inactive)
REMARK    1  A    between atoms: N_2  and  C_6
REMARK    2  A    between atoms: C_3  and  C_18
REMARK    3  A    between atoms: C_7  and  S_12
REMARK    4  A    between atoms: S_12  and  N_15
REMARK    5  A    between atoms: C_18  and  S_19
REMARK    6  A    between atoms: S_19  and  C_31
REMARK                            x       y       z     vdW  Elec       q    Type
REMARK                         _______ _______ _______ _____ _____    ______ ____
ROOT
ATOM      1  O   UNL     1      31.865 -22.069 -17.633  0.00  0.00    -0.274 OA
ATOM      2  N   UNL     1      34.166 -22.397 -17.982  0.00  0.00    -0.283 N 
ATOM      3  C   UNL     1      32.920 -22.662 -17.425  0.00  0.00    +0.238 C 
ATOM      4  H   UNL     1      34.907 -22.973 -17.686  0.00  0.00    +0.155 HD
ENDROOT
BRANCH   2   6
ATOM      5 CL   UNL     1      37.104 -21.614 -18.176  0.00  0.00    -0.081 Cl
ATOM      6  C   UNL     1      34.490 -21.394 -18.927  0.00  0.00    +0.061 C 
ATOM      7  C   UNL     1      35.061 -19.416 -20.809  0.00  0.00    +0.123 C 
ATOM      8  C   UNL     1      35.803 -20.957 -19.103  0.00  0.00    +0.072 C 
ATOM      9  C   UNL     1      33.463 -20.842 -19.693  0.00  0.00    +0.017 C 
ATOM     10  C   UNL     1      36.088 -19.968 -20.044  0.00  0.00    +0.033 C 
ATOM     11  C   UNL     1      33.748 -19.853 -20.634  0.00  0.00    +0.021 C 
BRANCH   7  12
ATOM     12  S   UNL     1      35.418 -18.177 -21.987  0.00  0.00    +0.057 S 
ATOM     13  O   UNL     1      34.821 -18.564 -23.256  0.00  0.00    -0.153 OA
ATOM     14  O   UNL     1      35.103 -16.880 -21.404  0.00  0.00    -0.153 OA
BRANCH  12  15
ATOM     15  N   UNL     1      37.117 -18.325 -22.109  0.00  0.00    -0.203 NA
ATOM     16  H   UNL     1      37.544 -18.087 -21.213  0.00  0.00    +0.144 HD
ATOM     17  H   UNL     1      37.462 -17.692 -22.830  0.00  0.00    +0.144 HD
ENDBRANCH  12  15
ENDBRANCH   7  12
ENDBRANCH   2   6
BRANCH   3  18
ATOM     18  C   UNL     1      32.970 -23.818 -16.449  0.00  0.00    +0.152 C 
BRANCH  18  19
ATOM     19  S   UNL     1      33.042 -23.160 -14.768  0.00  0.00    -0.047 S 
BRANCH  19  31
ATOM     20  O   UNL     1      35.448 -22.298 -15.270  0.00  0.00    -0.262 OA
ATOM     21  N   UNL     1      35.334 -23.823 -13.485  0.00  0.00    -0.250 N 
ATOM     22  C   UNL     1      35.397 -24.067 -11.009  0.00  0.00    +0.027 C 
ATOM     23  C   UNL     1      36.535 -25.062 -11.088  0.00  0.00    +0.029 C 
ATOM     24  C   UNL     1      34.557 -24.154 -12.272  0.00  0.00    +0.099 C 
ATOM     25  C   UNL     1      37.271 -24.943 -12.396  0.00  0.00    -0.009 C 
ATOM     26  C   UNL     1      36.684 -24.355 -13.541  0.00  0.00    +0.051 C 
ATOM     27  C   UNL     1      38.569 -25.483 -12.460  0.00  0.00    -0.007 C 
ATOM     28  C   UNL     1      37.439 -24.352 -14.729  0.00  0.00    +0.014 C 
ATOM     29  C   UNL     1      39.301 -25.443 -13.641  0.00  0.00    -0.022 C 
ATOM     30  C   UNL     1      38.733 -24.882 -14.776  0.00  0.00    -0.003 C 
ATOM     31  C   UNL     1      34.801 -23.032 -14.530  0.00  0.00    +0.280 C 
ATOM     32  C   UNL     1      40.688 -25.985 -13.684  0.00  0.00    +0.031 C 
ENDBRANCH  19  31
ENDBRANCH  18  19
ENDBRANCH   3  18
TORSDOF 6
ENDMDL
MODEL 9
REMARK VINA RESULT:     -10.7      5.740     12.110
REMARK  Name = 24878044
REMARK  6 active torsions:
REMARK  status: ('A' for Active; 'I' for Inactive)
REMARK    1  A    between atoms: N_2  and  C_6
REMARK    2  A    between atoms: C_3  and  C_18
REMARK    3  A    between atoms: C_7  and  S_12
REMARK    4  A    between atoms: S_12  and  N_15
REMARK    5  A    between atoms: C_18  and  S_19
REMARK    6  A    between atoms: S_19  and  C_31
REMARK                            x       y       z     vdW  Elec       q    Type
REMARK                         _______ _______ _______ _____ _____    ______ ____
ROOT
ATOM      1  O   UNL     1      33.772  -8.992 -23.171  0.00  0.00    -0.274 OA
ATOM      2  N   UNL     1      31.772  -8.583 -22.006  0.00  0.00    -0.283 N 
ATOM      3  C   UNL     1      32.777  -9.370 -22.559  0.00  0.00    +0.238 C 
ATOM      4  H   UNL     1      31.039  -9.064 -21.559  0.00  0.00    +0.155 HD
ENDROOT
BRANCH   2   6
ATOM      5 CL   UNL     1      33.295  -7.119 -19.810  0.00  0.00    -0.081 Cl
ATOM      6  C   UNL     1      31.684  -7.170 -22.012  0.00  0.00    +0.061 C 
ATOM      7  C   UNL     1      31.469  -4.390 -22.081  0.00  0.00    +0.123 C 
ATOM      8  C   UNL     1      32.339  -6.397 -21.055  0.00  0.00    +0.072 C 
ATOM      9  C   UNL     1      30.920  -6.554 -23.004  0.00  0.00    +0.017 C 
ATOM     10  C   UNL     1      32.232  -5.006 -21.090  0.00  0.00    +0.033 C 
ATOM     11  C   UNL     1      30.813  -5.164 -23.038  0.00  0.00    +0.021 C 
BRANCH   7  12
ATOM     12  S   UNL     1      31.334  -2.650 -22.125  0.00  0.00    +0.057 S 
ATOM     13  O   UNL     1      29.922  -2.300 -22.187  0.00  0.00    -0.153 OA
ATOM     14  O   UNL     1      32.172  -2.094 -21.071  0.00  0.00    -0.153 OA
BRANCH  12  15
ATOM     15  N   UNL     1      32.053  -2.306 -23.636  0.00  0.00    -0.203 NA
ATOM     16  H   UNL     1      33.064  -2.423 -23.566  0.00  0.00    +0.144 HD
ATOM     17  H   UNL     1      31.840  -1.346 -23.904  0.00  0.00    +0.144 HD
ENDBRANCH  12  15
ENDBRANCH   7  12
ENDBRANCH   2   6
BRANCH   3  18
ATOM     18  C   UNL     1      32.520 -10.847 -22.348  0.00  0.00    +0.152 C 
BRANCH  18  19
ATOM     19  S   UNL     1      33.861 -11.787 -23.111  0.00  0.00    -0.047 S 
BRANCH  19  31
ATOM     20  O   UNL     1      33.172 -13.416 -21.199  0.00  0.00    -0.262 OA
ATOM     21  N   UNL     1      34.081 -14.487 -23.083  0.00  0.00    -0.250 N 
ATOM     22  C   UNL     1      33.557 -15.840 -25.106  0.00  0.00    +0.027 C 
ATOM     23  C   UNL     1      34.518 -16.931 -24.684  0.00  0.00    +0.029 C 
ATOM     24  C   UNL     1      34.032 -14.504 -24.561  0.00  0.00    +0.099 C 
ATOM     25  C   UNL     1      34.798 -16.866 -23.206  0.00  0.00    -0.009 C 
ATOM     26  C   UNL     1      34.592 -15.689 -22.450  0.00  0.00    +0.051 C 
ATOM     27  C   UNL     1      35.320 -18.022 -22.595  0.00  0.00    -0.007 C 
ATOM     28  C   UNL     1      34.945 -15.722 -21.087  0.00  0.00    +0.014 C 
ATOM     29  C   UNL     1      35.635 -18.033 -21.242  0.00  0.00    -0.022 C 
ATOM     30  C   UNL     1      35.452 -16.881 -20.490  0.00  0.00    -0.003 C 
ATOM     31  C   UNL     1      33.651 -13.371 -22.328  0.00  0.00    +0.280 C 
ATOM     32  C   UNL     1      36.152 -19.275 -20.601  0.00  0.00    +0.031 C 
ENDBRANCH  19  31
ENDBRANCH  18  19
ENDBRANCH   3  18
TORSDOF 6
ENDMDL
