MODEL 1
REMARK VINA RESULT:     -11.7      0.000      0.000
REMARK  Name = 10361208
REMARK  3 active torsions:
REMARK  status: ('A' for Active; 'I' for Inactive)
REMARK    1  A    between atoms: N_1  and  C_12
REMARK    2  A    between atoms: C_10  and  C_18
REMARK    3  A    between atoms: C_21  and  C_27
REMARK                            x       y       z     vdW  Elec       q    Type
REMARK                         _______ _______ _______ _____ _____    ______ ____
ROOT
ATOM      1  N   UNL     1      35.082 -24.640 -13.721  0.00  0.00    -0.318 N 
ATOM      2  N   UNL     1      34.103 -23.524 -15.474  0.00  0.00    -0.147 NA
ATOM      3  N   UNL     1      32.928 -23.155 -16.042  0.00  0.00    -0.190 N 
ATOM      4  N   UNL     1      30.781 -22.898 -16.423  0.00  0.00    -0.127 NA
ATOM      5  N   UNL     1      31.482 -22.266 -17.430  0.00  0.00    -0.127 NA
ATOM      6  C   UNL     1      33.983 -24.222 -14.368  0.00  0.00    +0.149 C 
ATOM      7  C   UNL     1      32.643 -24.581 -13.781  0.00  0.00    +0.039 C 
ATOM      8  C   UNL     1      31.657 -23.427 -15.595  0.00  0.00    +0.187 A 
ATOM      9  C   UNL     1      31.535 -24.175 -14.410  0.00  0.00    +0.044 C 
ATOM     10  C   UNL     1      32.763 -22.431 -17.186  0.00  0.00    +0.187 A 
ATOM     11  H   UNL     1      34.971 -25.176 -12.902  0.00  0.00    +0.148 HD
ENDROOT
BRANCH   1  12
ATOM     12  C   UNL     1      36.426 -24.339 -14.176  0.00  0.00    +0.070 C 
ATOM     13  C   UNL     1      37.188 -23.570 -13.091  0.00  0.00    +0.020 C 
ATOM     14  C   UNL     1      37.152 -25.630 -14.566  0.00  0.00    +0.020 C 
ATOM     15  C   UNL     1      37.547 -24.444 -11.889  0.00  0.00    +0.002 C 
ATOM     16  C   UNL     1      37.509 -26.496 -13.358  0.00  0.00    +0.002 C 
ATOM     17  C   UNL     1      38.289 -25.707 -12.311  0.00  0.00    +0.000 C 
ENDBRANCH   1  12
BRANCH  10  18
ATOM     18  C   UNL     1      33.854 -21.932 -17.989  0.00  0.00    +0.038 C 
ATOM     19  C   UNL     1      33.598 -21.073 -19.058  0.00  0.00    +0.007 C 
ATOM     20  C   UNL     1      35.164 -22.309 -17.695  0.00  0.00    +0.003 C 
ATOM     21  C   UNL     1      34.652 -20.592 -19.833  0.00  0.00    +0.072 C 
ATOM     22  C   UNL     1      36.219 -21.829 -18.471  0.00  0.00    +0.000 C 
ATOM     23  C   UNL     1      35.963 -20.969 -19.540  0.00  0.00    +0.004 C 
BRANCH  21  27
ATOM     24  F   UNL     1      35.134 -19.937 -22.083  0.00  0.00    -0.166 F 
ATOM     25  F   UNL     1      33.086 -19.706 -21.408  0.00  0.00    -0.166 F 
ATOM     26  F   UNL     1      34.630 -18.365 -20.667  0.00  0.00    -0.166 F 
ATOM     27  C   UNL     1      34.381 -19.672 -20.975  0.00  0.00    +0.419 C 
ENDBRANCH  21  27
ENDBRANCH  10  18
TORSDOF 3
ENDMDL
MODEL 2
REMARK VINA RESULT:     -11.1      3.265      5.294
REMARK  Name = 10361208
REMARK  3 active torsions:
REMARK  status: ('A' for Active; 'I' for Inactive)
REMARK    1  A    between atoms: N_1  and  C_12
REMARK    2  A    between atoms: C_10  and  C_18
REMARK    3  A    between atoms: C_21  and  C_27
REMARK                            x       y       z     vdW  Elec       q    Type
REMARK                         _______ _______ _______ _____ _____    ______ ____
ROOT
ATOM      1  N   UNL     1      36.915 -22.787 -14.174  0.00  0.00    -0.318 N 
ATOM      2  N   UNL     1      34.977 -22.794 -15.407  0.00  0.00    -0.147 NA
ATOM      3  N   UNL     1      34.430 -22.547 -16.624  0.00  0.00    -0.190 N 
ATOM      4  N   UNL     1      34.192 -21.987 -18.733  0.00  0.00    -0.127 NA
ATOM      5  N   UNL     1      32.959 -22.359 -18.238  0.00  0.00    -0.127 NA
ATOM      6  C   UNL     1      36.270 -22.576 -15.332  0.00  0.00    +0.149 C 
ATOM      7  C   UNL     1      37.076 -22.090 -16.507  0.00  0.00    +0.039 C 
ATOM      8  C   UNL     1      35.068 -22.105 -17.757  0.00  0.00    +0.187 A 
ATOM      9  C   UNL     1      36.453 -21.872 -17.671  0.00  0.00    +0.044 C 
ATOM     10  C   UNL     1      33.120 -22.689 -16.976  0.00  0.00    +0.187 A 
ATOM     11  H   UNL     1      37.882 -22.602 -14.134  0.00  0.00    +0.148 HD
ENDROOT
BRANCH   1  12
ATOM     12  C   UNL     1      36.251 -23.275 -12.980  0.00  0.00    +0.070 C 
ATOM     13  C   UNL     1      35.841 -24.739 -13.167  0.00  0.00    +0.020 C 
ATOM     14  C   UNL     1      37.162 -23.096 -11.761  0.00  0.00    +0.020 C 
ATOM     15  C   UNL     1      37.037 -25.692 -13.168  0.00  0.00    +0.002 C 
ATOM     16  C   UNL     1      38.353 -24.055 -11.768  0.00  0.00    +0.002 C 
ATOM     17  C   UNL     1      37.907 -25.505 -11.930  0.00  0.00    +0.000 C 
ENDBRANCH   1  12
BRANCH  10  18
ATOM     18  C   UNL     1      32.086 -23.140 -16.076  0.00  0.00    +0.038 C 
ATOM     19  C   UNL     1      30.744 -23.011 -16.433  0.00  0.00    +0.007 C 
ATOM     20  C   UNL     1      32.430 -23.704 -14.848  0.00  0.00    +0.003 C 
ATOM     21  C   UNL     1      29.746 -23.446 -15.562  0.00  0.00    +0.072 C 
ATOM     22  C   UNL     1      31.432 -24.139 -13.975  0.00  0.00    +0.000 C 
ATOM     23  C   UNL     1      30.089 -24.010 -14.333  0.00  0.00    +0.004 C 
BRANCH  21  27
ATOM     24  F   UNL     1      27.494 -22.995 -14.895  0.00  0.00    -0.166 F 
ATOM     25  F   UNL     1      28.082 -22.342 -16.878  0.00  0.00    -0.166 F 
ATOM     26  F   UNL     1      27.798 -24.460 -16.473  0.00  0.00    -0.166 F 
ATOM     27  C   UNL     1      28.310 -23.311 -15.943  0.00  0.00    +0.419 C 
ENDBRANCH  21  27
ENDBRANCH  10  18
TORSDOF 3
ENDMDL
MODEL 3
REMARK VINA RESULT:     -10.6      1.936      2.496
REMARK  Name = 10361208
REMARK  3 active torsions:
REMARK  status: ('A' for Active; 'I' for Inactive)
REMARK    1  A    between atoms: N_1  and  C_12
REMARK    2  A    between atoms: C_10  and  C_18
REMARK    3  A    between atoms: C_21  and  C_27
REMARK                            x       y       z     vdW  Elec       q    Type
REMARK                         _______ _______ _______ _____ _____    ______ ____
ROOT
ATOM      1  N   UNL     1      34.753 -24.692 -13.231  0.00  0.00    -0.318 N 
ATOM      2  N   UNL     1      33.528 -23.732 -14.922  0.00  0.00    -0.147 NA
ATOM      3  N   UNL     1      32.280 -23.496 -15.397  0.00  0.00    -0.190 N 
ATOM      4  N   UNL     1      30.094 -23.458 -15.602  0.00  0.00    -0.127 NA
ATOM      5  N   UNL     1      30.645 -22.794 -16.679  0.00  0.00    -0.127 NA
ATOM      6  C   UNL     1      33.568 -24.402 -13.793  0.00  0.00    +0.149 C 
ATOM      7  C   UNL     1      32.323 -24.868 -13.087  0.00  0.00    +0.039 C 
ATOM      8  C   UNL     1      31.083 -23.873 -14.839  0.00  0.00    +0.187 A 
ATOM      9  C   UNL     1      31.132 -24.591 -13.629  0.00  0.00    +0.044 C 
ATOM     10  C   UNL     1      31.952 -22.828 -16.541  0.00  0.00    +0.187 A 
ATOM     11  H   UNL     1      34.762 -25.209 -12.393  0.00  0.00    +0.148 HD
ENDROOT
BRANCH   1  12
ATOM     12  C   UNL     1      36.018 -24.277 -13.806  0.00  0.00    +0.070 C 
ATOM     13  C   UNL     1      36.881 -23.594 -12.740  0.00  0.00    +0.020 C 
ATOM     14  C   UNL     1      36.735 -25.483 -14.423  0.00  0.00    +0.020 C 
ATOM     15  C   UNL     1      37.415 -24.574 -11.694  0.00  0.00    +0.002 C 
ATOM     16  C   UNL     1      37.270 -26.455 -13.371  0.00  0.00    +0.002 C 
ATOM     17  C   UNL     1      38.144 -25.747 -12.341  0.00  0.00    +0.000 C 
ENDBRANCH   1  12
BRANCH  10  18
ATOM     18  C   UNL     1      32.919 -22.253 -17.445  0.00  0.00    +0.038 C 
ATOM     19  C   UNL     1      34.276 -22.280 -17.125  0.00  0.00    +0.007 C 
ATOM     20  C   UNL     1      32.494 -21.668 -18.637  0.00  0.00    +0.003 C 
ATOM     21  C   UNL     1      35.209 -21.723 -17.999  0.00  0.00    +0.072 C 
ATOM     22  C   UNL     1      33.427 -21.110 -19.512  0.00  0.00    +0.000 C 
ATOM     23  C   UNL     1      34.786 -21.138 -19.192  0.00  0.00    +0.004 C 
BRANCH  21  27
ATOM     24  F   UNL     1      37.148 -20.552 -17.230  0.00  0.00    -0.166 F 
ATOM     25  F   UNL     1      36.973 -22.639 -16.668  0.00  0.00    -0.166 F 
ATOM     26  F   UNL     1      37.442 -22.106 -18.723  0.00  0.00    -0.166 F 
ATOM     27  C   UNL     1      36.661 -21.753 -17.659  0.00  0.00    +0.419 C 
ENDBRANCH  21  27
ENDBRANCH  10  18
TORSDOF 3
ENDMDL
MODEL 4
REMARK VINA RESULT:     -10.5      3.801      5.667
REMARK  Name = 10361208
REMARK  3 active torsions:
REMARK  status: ('A' for Active; 'I' for Inactive)
REMARK    1  A    between atoms: N_1  and  C_12
REMARK    2  A    between atoms: C_10  and  C_18
REMARK    3  A    between atoms: C_21  and  C_27
REMARK                            x       y       z     vdW  Elec       q    Type
REMARK                         _______ _______ _______ _____ _____    ______ ____
ROOT
ATOM      1  N   UNL     1      36.720 -22.851 -14.603  0.00  0.00    -0.318 N 
ATOM      2  N   UNL     1      34.770 -22.684 -15.806  0.00  0.00    -0.147 NA
ATOM      3  N   UNL     1      34.225 -22.364 -17.006  0.00  0.00    -0.190 N 
ATOM      4  N   UNL     1      34.000 -21.727 -19.095  0.00  0.00    -0.127 NA
ATOM      5  N   UNL     1      32.750 -22.025 -18.592  0.00  0.00    -0.127 NA
ATOM      6  C   UNL     1      36.075 -22.560 -15.745  0.00  0.00    +0.149 C 
ATOM      7  C   UNL     1      36.898 -22.099 -16.918  0.00  0.00    +0.039 C 
ATOM      8  C   UNL     1      34.877 -21.935 -18.137  0.00  0.00    +0.187 A 
ATOM      9  C   UNL     1      36.277 -21.803 -18.065  0.00  0.00    +0.044 C 
ATOM     10  C   UNL     1      32.903 -22.402 -17.342  0.00  0.00    +0.187 A 
ATOM     11  H   UNL     1      37.698 -22.736 -14.572  0.00  0.00    +0.148 HD
ENDROOT
BRANCH   1  12
ATOM     12  C   UNL     1      36.039 -23.325 -13.413  0.00  0.00    +0.070 C 
ATOM     13  C   UNL     1      35.664 -24.801 -13.575  0.00  0.00    +0.020 C 
ATOM     14  C   UNL     1      36.918 -23.099 -12.179  0.00  0.00    +0.020 C 
ATOM     15  C   UNL     1      36.879 -25.729 -13.526  0.00  0.00    +0.002 C 
ATOM     16  C   UNL     1      38.128 -24.032 -12.135  0.00  0.00    +0.002 C 
ATOM     17  C   UNL     1      37.717 -25.495 -12.273  0.00  0.00    +0.000 C 
ENDBRANCH   1  12
BRANCH  10  18
ATOM     18  C   UNL     1      31.852 -22.805 -16.439  0.00  0.00    +0.038 C 
ATOM     19  C   UNL     1      32.171 -23.359 -15.199  0.00  0.00    +0.007 C 
ATOM     20  C   UNL     1      30.518 -22.642 -16.808  0.00  0.00    +0.003 C 
ATOM     21  C   UNL     1      31.155 -23.748 -14.328  0.00  0.00    +0.072 C 
ATOM     22  C   UNL     1      29.500 -23.032 -15.936  0.00  0.00    +0.000 C 
ATOM     23  C   UNL     1      29.820 -23.585 -14.695  0.00  0.00    +0.004 C 
BRANCH  21  27
ATOM     24  F   UNL     1      30.457 -24.321 -12.113  0.00  0.00    -0.166 F 
ATOM     25  F   UNL     1      31.885 -25.646 -13.067  0.00  0.00    -0.166 F 
ATOM     26  F   UNL     1      32.518 -23.682 -12.380  0.00  0.00    -0.166 F 
ATOM     27  C   UNL     1      31.494 -24.339 -13.001  0.00  0.00    +0.419 C 
ENDBRANCH  21  27
ENDBRANCH  10  18
TORSDOF 3
ENDMDL
MODEL 5
REMARK VINA RESULT:     -10.4      1.771      4.624
REMARK  Name = 10361208
REMARK  3 active torsions:
REMARK  status: ('A' for Active; 'I' for Inactive)
REMARK    1  A    between atoms: N_1  and  C_12
REMARK    2  A    between atoms: C_10  and  C_18
REMARK    3  A    between atoms: C_21  and  C_27
REMARK                            x       y       z     vdW  Elec       q    Type
REMARK                         _______ _______ _______ _____ _____    ______ ____
ROOT
ATOM      1  N   UNL     1      32.774 -24.211 -14.364  0.00  0.00    -0.318 N 
ATOM      2  N   UNL     1      34.368 -23.183 -15.660  0.00  0.00    -0.147 NA
ATOM      3  N   UNL     1      35.687 -22.888 -15.779  0.00  0.00    -0.190 N 
ATOM      4  N   UNL     1      37.841 -22.753 -15.381  0.00  0.00    -0.127 NA
ATOM      5  N   UNL     1      37.575 -22.105 -16.570  0.00  0.00    -0.127 NA
ATOM      6  C   UNL     1      34.052 -23.865 -14.583  0.00  0.00    +0.149 C 
ATOM      7  C   UNL     1      35.078 -24.286 -13.565  0.00  0.00    +0.039 C 
ATOM      8  C   UNL     1      36.702 -23.220 -14.915  0.00  0.00    +0.187 A 
ATOM      9  C   UNL     1      36.358 -23.951 -13.763  0.00  0.00    +0.044 C 
ATOM     10  C   UNL     1      36.282 -22.195 -16.791  0.00  0.00    +0.187 A 
ATOM     11  H   UNL     1      32.555 -24.709 -13.542  0.00  0.00    +0.148 HD
ENDROOT
BRANCH   1  12
ATOM     12  C   UNL     1      31.700 -23.882 -15.283  0.00  0.00    +0.070 C 
ATOM     13  C   UNL     1      30.832 -25.118 -15.540  0.00  0.00    +0.020 C 
ATOM     14  C   UNL     1      30.873 -22.717 -14.729  0.00  0.00    +0.020 C 
ATOM     15  C   UNL     1      29.983 -25.507 -14.329  0.00  0.00    +0.002 C 
ATOM     16  C   UNL     1      30.025 -23.116 -13.521  0.00  0.00    +0.002 C 
ATOM     17  C   UNL     1      29.154 -24.332 -13.821  0.00  0.00    +0.000 C 
ENDBRANCH   1  12
BRANCH  10  18
ATOM     18  C   UNL     1      35.573 -21.654 -17.926  0.00  0.00    +0.038 C 
ATOM     19  C   UNL     1      36.194 -20.723 -18.758  0.00  0.00    +0.007 C 
ATOM     20  C   UNL     1      34.267 -22.064 -18.189  0.00  0.00    +0.003 C 
ATOM     21  C   UNL     1      35.507 -20.201 -19.854  0.00  0.00    +0.072 C 
ATOM     22  C   UNL     1      33.579 -21.541 -19.285  0.00  0.00    +0.000 C 
ATOM     23  C   UNL     1      34.200 -20.609 -20.118  0.00  0.00    +0.004 C 
BRANCH  21  27
ATOM     24  F   UNL     1      37.534 -19.264 -20.712  0.00  0.00    -0.166 F 
ATOM     25  F   UNL     1      35.840 -19.347 -22.063  0.00  0.00    -0.166 F 
ATOM     26  F   UNL     1      35.850 -17.918 -20.424  0.00  0.00    -0.166 F 
ATOM     27  C   UNL     1      36.170 -19.206 -20.745  0.00  0.00    +0.419 C 
ENDBRANCH  21  27
ENDBRANCH  10  18
TORSDOF 3
ENDMDL
MODEL 6
REMARK VINA RESULT:      -9.9     12.240     15.219
REMARK  Name = 10361208
REMARK  3 active torsions:
REMARK  status: ('A' for Active; 'I' for Inactive)
REMARK    1  A    between atoms: N_1  and  C_12
REMARK    2  A    between atoms: C_10  and  C_18
REMARK    3  A    between atoms: C_21  and  C_27
REMARK                            x       y       z     vdW  Elec       q    Type
REMARK                         _______ _______ _______ _____ _____    ______ ____
ROOT
ATOM      1  N   UNL     1      31.742  -7.975 -20.901  0.00  0.00    -0.318 N 
ATOM      2  N   UNL     1      32.318 -10.091 -21.588  0.00  0.00    -0.147 NA
ATOM      3  N   UNL     1      32.409 -11.394 -21.223  0.00  0.00    -0.190 N 
ATOM      4  N   UNL     1      32.320 -13.246 -20.047  0.00  0.00    -0.127 NA
ATOM      5  N   UNL     1      32.790 -13.551 -21.308  0.00  0.00    -0.127 NA
ATOM      6  C   UNL     1      31.872  -9.288 -20.649  0.00  0.00    +0.149 C 
ATOM      7  C   UNL     1      31.494  -9.781 -19.278  0.00  0.00    +0.039 C 
ATOM      8  C   UNL     1      32.094 -11.950 -20.007  0.00  0.00    +0.187 A 
ATOM      9  C   UNL     1      31.618 -11.085 -19.005  0.00  0.00    +0.044 C 
ATOM     10  C   UNL     1      32.838 -12.433 -21.997  0.00  0.00    +0.187 A 
ATOM     11  H   UNL     1      31.422  -7.387 -20.179  0.00  0.00    +0.148 HD
ENDROOT
BRANCH   1  12
ATOM     12  C   UNL     1      32.053  -7.387 -22.190  0.00  0.00    +0.070 C 
ATOM     13  C   UNL     1      30.791  -6.776 -22.807  0.00  0.00    +0.020 C 
ATOM     14  C   UNL     1      33.166  -6.345 -22.036  0.00  0.00    +0.020 C 
ATOM     15  C   UNL     1      30.332  -5.509 -22.083  0.00  0.00    +0.002 C 
ATOM     16  C   UNL     1      32.698  -5.081 -21.315  0.00  0.00    +0.002 C 
ATOM     17  C   UNL     1      31.456  -4.485 -21.971  0.00  0.00    +0.000 C 
ENDBRANCH   1  12
BRANCH  10  18
ATOM     18  C   UNL     1      33.272 -12.294 -23.366  0.00  0.00    +0.038 C 
ATOM     19  C   UNL     1      34.127 -11.252 -23.726  0.00  0.00    +0.007 C 
ATOM     20  C   UNL     1      32.834 -13.201 -24.330  0.00  0.00    +0.003 C 
ATOM     21  C   UNL     1      34.544 -11.119 -25.049  0.00  0.00    +0.072 C 
ATOM     22  C   UNL     1      33.251 -13.068 -25.655  0.00  0.00    +0.000 C 
ATOM     23  C   UNL     1      34.107 -12.026 -26.014  0.00  0.00    +0.004 C 
BRANCH  21  27
ATOM     24  F   UNL     1      34.932  -8.765 -25.223  0.00  0.00    -0.166 F 
ATOM     25  F   UNL     1      36.644 -10.011 -24.754  0.00  0.00    -0.166 F 
ATOM     26  F   UNL     1      35.798 -10.040 -26.757  0.00  0.00    -0.166 F 
ATOM     27  C   UNL     1      35.460 -10.006 -25.435  0.00  0.00    +0.419 C 
ENDBRANCH  21  27
ENDBRANCH  10  18
TORSDOF 3
ENDMDL
MODEL 7
REMARK VINA RESULT:      -9.8      2.232      5.111
REMARK  Name = 10361208
REMARK  3 active torsions:
REMARK  status: ('A' for Active; 'I' for Inactive)
REMARK    1  A    between atoms: N_1  and  C_12
REMARK    2  A    between atoms: C_10  and  C_18
REMARK    3  A    between atoms: C_21  and  C_27
REMARK                            x       y       z     vdW  Elec       q    Type
REMARK                         _______ _______ _______ _____ _____    ______ ____
ROOT
ATOM      1  N   UNL     1      32.237 -24.529 -13.709  0.00  0.00    -0.318 N 
ATOM      2  N   UNL     1      34.225 -23.596 -14.385  0.00  0.00    -0.147 NA
ATOM      3  N   UNL     1      35.498 -23.301 -14.021  0.00  0.00    -0.190 N 
ATOM      4  N   UNL     1      37.346 -23.115 -12.851  0.00  0.00    -0.127 NA
ATOM      5  N   UNL     1      37.562 -22.568 -14.100  0.00  0.00    -0.127 NA
ATOM      6  C   UNL     1      33.512 -24.191 -13.457  0.00  0.00    +0.149 C 
ATOM      7  C   UNL     1      34.069 -24.518 -12.097  0.00  0.00    +0.039 C 
ATOM      8  C   UNL     1      36.106 -23.552 -12.814  0.00  0.00    +0.187 A 
ATOM      9  C   UNL     1      35.336 -24.189 -11.823  0.00  0.00    +0.044 C 
ATOM     10  C   UNL     1      36.447 -22.687 -14.785  0.00  0.00    +0.187 A 
ATOM     11  H   UNL     1      31.714 -24.960 -12.995  0.00  0.00    +0.148 HD
ENDROOT
BRANCH   1  12
ATOM     12  C   UNL     1      31.597 -24.285 -14.988  0.00  0.00    +0.070 C 
ATOM     13  C   UNL     1      30.478 -25.306 -15.218  0.00  0.00    +0.020 C 
ATOM     14  C   UNL     1      31.069 -22.848 -15.047  0.00  0.00    +0.020 C 
ATOM     15  C   UNL     1      29.269 -25.074 -14.311  0.00  0.00    +0.002 C 
ATOM     16  C   UNL     1      29.858 -22.625 -14.139  0.00  0.00    +0.002 C 
ATOM     17  C   UNL     1      28.754 -23.642 -14.413  0.00  0.00    +0.000 C 
ENDBRANCH   1  12
BRANCH  10  18
ATOM     18  C   UNL     1      36.230 -22.248 -16.142  0.00  0.00    +0.038 C 
ATOM     19  C   UNL     1      35.020 -22.521 -16.780  0.00  0.00    +0.007 C 
ATOM     20  C   UNL     1      37.232 -21.550 -16.816  0.00  0.00    +0.003 C 
ATOM     21  C   UNL     1      34.812 -22.097 -18.091  0.00  0.00    +0.072 C 
ATOM     22  C   UNL     1      37.024 -21.125 -18.129  0.00  0.00    +0.000 C 
ATOM     23  C   UNL     1      35.813 -21.399 -18.766  0.00  0.00    +0.004 C 
BRANCH  21  27
ATOM     24  F   UNL     1      32.458 -22.485 -17.919  0.00  0.00    -0.166 F 
ATOM     25  F   UNL     1      33.155 -21.436 -19.685  0.00  0.00    -0.166 F 
ATOM     26  F   UNL     1      33.542 -23.565 -19.465  0.00  0.00    -0.166 F 
ATOM     27  C   UNL     1      33.518 -22.387 -18.774  0.00  0.00    +0.419 C 
ENDBRANCH  21  27
ENDBRANCH  10  18
TORSDOF 3
ENDMDL
MODEL 8
REMARK VINA RESULT:      -9.7     11.246     14.708
REMARK  Name = 10361208
REMARK  3 active torsions:
REMARK  status: ('A' for Active; 'I' for Inactive)
REMARK    1  A    between atoms: N_1  and  C_12
REMARK    2  A    between atoms: C_10  and  C_18
REMARK    3  A    between atoms: C_21  and  C_27
REMARK                            x       y       z     vdW  Elec       q    Type
REMARK                         _______ _______ _______ _____ _____    ______ ____
ROOT
ATOM      1  N   UNL     1      31.747  -7.905 -21.801  0.00  0.00    -0.318 N 
ATOM      2  N   UNL     1      32.227 -10.152 -21.781  0.00  0.00    -0.147 NA
ATOM      3  N   UNL     1      32.282 -11.273 -21.019  0.00  0.00    -0.190 N 
ATOM      4  N   UNL     1      32.161 -12.645 -19.309  0.00  0.00    -0.127 NA
ATOM      5  N   UNL     1      32.583 -13.358 -20.413  0.00  0.00    -0.127 NA
ATOM      6  C   UNL     1      31.838  -9.072 -21.143  0.00  0.00    +0.149 C 
ATOM      7  C   UNL     1      31.482  -9.083 -19.680  0.00  0.00    +0.039 C 
ATOM      8  C   UNL     1      31.982 -11.395 -19.684  0.00  0.00    +0.187 A 
ATOM      9  C   UNL     1      31.566 -10.235 -19.005  0.00  0.00    +0.044 C 
ATOM     10  C   UNL     1      32.651 -12.522 -21.425  0.00  0.00    +0.187 A 
ATOM     11  H   UNL     1      31.469  -7.103 -21.301  0.00  0.00    +0.148 HD
ENDROOT
BRANCH   1  12
ATOM     12  C   UNL     1      32.043  -7.774 -23.215  0.00  0.00    +0.070 C 
ATOM     13  C   UNL     1      31.043  -6.818 -23.874  0.00  0.00    +0.020 C 
ATOM     14  C   UNL     1      33.487  -7.299 -23.409  0.00  0.00    +0.020 C 
ATOM     15  C   UNL     1      31.256  -5.361 -23.461  0.00  0.00    +0.002 C 
ATOM     16  C   UNL     1      33.691  -5.841 -22.997  0.00  0.00    +0.002 C 
ATOM     17  C   UNL     1      32.696  -4.915 -23.691  0.00  0.00    +0.000 C 
ENDBRANCH   1  12
BRANCH  10  18
ATOM     18  C   UNL     1      33.050 -12.847 -22.773  0.00  0.00    +0.038 C 
ATOM     19  C   UNL     1      33.354 -14.165 -23.112  0.00  0.00    +0.007 C 
ATOM     20  C   UNL     1      33.132 -11.842 -23.736  0.00  0.00    +0.003 C 
ATOM     21  C   UNL     1      33.740 -14.479 -24.415  0.00  0.00    +0.072 C 
ATOM     22  C   UNL     1      33.519 -12.155 -25.039  0.00  0.00    +0.000 C 
ATOM     23  C   UNL     1      33.822 -13.474 -25.379  0.00  0.00    +0.004 C 
BRANCH  21  27
ATOM     24  F   UNL     1      33.094 -16.498 -25.523  0.00  0.00    -0.166 F 
ATOM     25  F   UNL     1      35.208 -16.014 -25.513  0.00  0.00    -0.166 F 
ATOM     26  F   UNL     1      34.241 -16.686 -23.685  0.00  0.00    -0.166 F 
ATOM     27  C   UNL     1      34.063 -15.888 -24.779  0.00  0.00    +0.419 C 
ENDBRANCH  21  27
ENDBRANCH  10  18
TORSDOF 3
ENDMDL
MODEL 9
REMARK VINA RESULT:      -9.5      8.379     12.577
REMARK  Name = 10361208
REMARK  3 active torsions:
REMARK  status: ('A' for Active; 'I' for Inactive)
REMARK    1  A    between atoms: N_1  and  C_12
REMARK    2  A    between atoms: C_10  and  C_18
REMARK    3  A    between atoms: C_21  and  C_27
REMARK                            x       y       z     vdW  Elec       q    Type
REMARK                         _______ _______ _______ _____ _____    ______ ____
ROOT
ATOM      1  N   UNL     1      33.032 -10.818 -23.265  0.00  0.00    -0.318 N 
ATOM      2  N   UNL     1      33.684 -13.007 -23.508  0.00  0.00    -0.147 NA
ATOM      3  N   UNL     1      33.880 -14.020 -24.389  0.00  0.00    -0.190 N 
ATOM      4  N   UNL     1      33.988 -15.178 -26.251  0.00  0.00    -0.127 NA
ATOM      5  N   UNL     1      34.385 -15.990 -25.209  0.00  0.00    -0.127 NA
ATOM      6  C   UNL     1      33.260 -11.886 -24.046  0.00  0.00    +0.149 C 
ATOM      7  C   UNL     1      33.015 -11.742 -25.524  0.00  0.00    +0.039 C 
ATOM      8  C   UNL     1      33.689 -13.998 -25.750  0.00  0.00    +0.187 A 
ATOM      9  C   UNL     1      33.234 -12.795 -26.320  0.00  0.00    +0.044 C 
ATOM     10  C   UNL     1      34.313 -15.282 -24.104  0.00  0.00    +0.187 A 
ATOM     11  H   UNL     1      32.700  -9.991 -23.685  0.00  0.00    +0.148 HD
ENDROOT
BRANCH   1  12
ATOM     12  C   UNL     1      33.253 -10.828 -21.832  0.00  0.00    +0.070 C 
ATOM     13  C   UNL     1      32.918  -9.456 -21.238  0.00  0.00    +0.020 C 
ATOM     14  C   UNL     1      32.425 -11.941 -21.180  0.00  0.00    +0.020 C 
ATOM     15  C   UNL     1      31.417  -9.164 -21.235  0.00  0.00    +0.002 C 
ATOM     16  C   UNL     1      30.927 -11.639 -21.178  0.00  0.00    +0.002 C 
ATOM     17  C   UNL     1      30.627 -10.278 -20.557  0.00  0.00    +0.000 C 
ENDBRANCH   1  12
BRANCH  10  18
ATOM     18  C   UNL     1      34.639 -15.741 -22.775  0.00  0.00    +0.038 C 
ATOM     19  C   UNL     1      35.035 -17.063 -22.571  0.00  0.00    +0.007 C 
ATOM     20  C   UNL     1      34.556 -14.863 -21.695  0.00  0.00    +0.003 C 
ATOM     21  C   UNL     1      35.349 -17.506 -21.287  0.00  0.00    +0.072 C 
ATOM     22  C   UNL     1      34.870 -15.306 -20.410  0.00  0.00    +0.000 C 
ATOM     23  C   UNL     1      35.267 -16.629 -20.206  0.00  0.00    +0.004 C 
BRANCH  21  27
ATOM     24  F   UNL     1      37.121 -19.063 -20.884  0.00  0.00    -0.166 F 
ATOM     25  F   UNL     1      35.202 -19.498 -19.971  0.00  0.00    -0.166 F 
ATOM     26  F   UNL     1      35.459 -19.731 -22.118  0.00  0.00    -0.166 F 
ATOM     27  C   UNL     1      35.775 -18.919 -21.067  0.00  0.00    +0.419 C 
ENDBRANCH  21  27
ENDBRANCH  10  18
TORSDOF 3
ENDMDL
