MODEL 1
REMARK VINA RESULT:     -11.9      0.000      0.000
REMARK  Name = 24779724
REMARK  3 active torsions:
REMARK  status: ('A' for Active; 'I' for Inactive)
REMARK    1  A    between atoms: C_5  and  C_12
REMARK    2  A    between atoms: C_7  and  S_16
REMARK    3  A    between atoms: S_16  and  C_19
REMARK                            x       y       z     vdW  Elec       q    Type
REMARK                         _______ _______ _______ _____ _____    ______ ____
ROOT
ATOM      1  N   UNL     1      34.596 -21.680 -18.346  0.00  0.00    -0.186 N 
ATOM      2  N   UNL     1      35.567 -22.057 -17.478  0.00  0.00    -0.162 NA
ATOM      3  N   UNL     1      32.641 -21.439 -19.318  0.00  0.00    -0.126 NA
ATOM      4  N   UNL     1      33.582 -20.742 -20.048  0.00  0.00    -0.120 NA
ATOM      5  C   UNL     1      35.137 -22.802 -16.499  0.00  0.00    +0.104 C 
ATOM      6  C   UNL     1      33.259 -21.998 -18.299  0.00  0.00    +0.187 A 
ATOM      7  C   UNL     1      34.744 -20.898 -19.455  0.00  0.00    +0.217 A 
ATOM      8  C   UNL     1      33.713 -23.242 -16.330  0.00  0.00    +0.024 C 
ATOM      9  C   UNL     1      32.826 -22.819 -17.239  0.00  0.00    +0.042 C 
ENDROOT
BRANCH   5  12
ATOM     10  N   UNL     1      37.045 -24.387 -13.847  0.00  0.00    -0.208 N 
ATOM     11  N   UNL     1      37.980 -23.484 -14.188  0.00  0.00    -0.176 NA
ATOM     12  C   UNL     1      36.105 -23.276 -15.477  0.00  0.00    +0.056 C 
ATOM     13  C   UNL     1      35.902 -24.304 -14.588  0.00  0.00    +0.087 C 
ATOM     14  C   UNL     1      37.401 -22.809 -15.184  0.00  0.00    +0.121 C 
ATOM     15  C   UNL     1      37.307 -25.322 -12.780  0.00  0.00    +0.140 C 
ENDBRANCH   5  12
BRANCH   7  16
ATOM     16  S   UNL     1      36.308 -20.211 -19.976  0.00  0.00    -0.051 S 
BRANCH  16  19
ATOM     17  N   UNL     1      34.514 -15.635 -23.326  0.00  0.00    -0.248 NA
ATOM     18  C   UNL     1      35.126 -16.503 -21.163  0.00  0.00    -0.003 C 
ATOM     19  C   UNL     1      35.772 -18.834 -20.970  0.00  0.00    +0.011 C 
ATOM     20  C   UNL     1      34.920 -16.657 -22.550  0.00  0.00    +0.060 C 
ATOM     21  C   UNL     1      35.550 -17.592 -20.383  0.00  0.00    +0.060 C 
ATOM     22  C   UNL     1      35.570 -18.993 -22.335  0.00  0.00    -0.017 C 
ATOM     23  C   UNL     1      35.148 -17.911 -23.110  0.00  0.00    +0.072 C 
ATOM     24  C   UNL     1      34.896 -15.241 -20.599  0.00  0.00    -0.001 C 
ATOM     25  C   UNL     1      34.478 -14.185 -21.395  0.00  0.00    +0.020 C 
ATOM     26  C   UNL     1      34.303 -14.433 -22.742  0.00  0.00    +0.098 C 
ENDBRANCH  16  19
ENDBRANCH   7  16
TORSDOF 3
ENDMDL
MODEL 2
REMARK VINA RESULT:     -11.9      1.128      1.878
REMARK  Name = 24779724
REMARK  3 active torsions:
REMARK  status: ('A' for Active; 'I' for Inactive)
REMARK    1  A    between atoms: C_5  and  C_12
REMARK    2  A    between atoms: C_7  and  S_16
REMARK    3  A    between atoms: S_16  and  C_19
REMARK                            x       y       z     vdW  Elec       q    Type
REMARK                         _______ _______ _______ _____ _____    ______ ____
ROOT
ATOM      1  N   UNL     1      34.497 -22.071 -17.872  0.00  0.00    -0.186 N 
ATOM      2  N   UNL     1      35.473 -22.473 -17.021  0.00  0.00    -0.162 NA
ATOM      3  N   UNL     1      32.527 -21.741 -18.786  0.00  0.00    -0.126 NA
ATOM      4  N   UNL     1      33.485 -21.149 -19.584  0.00  0.00    -0.120 NA
ATOM      5  C   UNL     1      35.031 -23.137 -15.990  0.00  0.00    +0.104 C 
ATOM      6  C   UNL     1      33.145 -22.291 -17.762  0.00  0.00    +0.187 A 
ATOM      7  C   UNL     1      34.656 -21.357 -19.025  0.00  0.00    +0.217 A 
ATOM      8  C   UNL     1      33.588 -23.466 -15.748  0.00  0.00    +0.024 C 
ATOM      9  C   UNL     1      32.697 -23.027 -16.646  0.00  0.00    +0.042 C 
ENDROOT
BRANCH   5  12
ATOM     10  N   UNL     1      37.058 -24.877 -13.530  0.00  0.00    -0.208 N 
ATOM     11  N   UNL     1      37.764 -23.733 -13.528  0.00  0.00    -0.176 NA
ATOM     12  C   UNL     1      36.003 -23.627 -14.979  0.00  0.00    +0.056 C 
ATOM     13  C   UNL     1      35.992 -24.864 -14.383  0.00  0.00    +0.087 C 
ATOM     14  C   UNL     1      37.115 -22.974 -14.414  0.00  0.00    +0.121 C 
ATOM     15  C   UNL     1      37.460 -25.970 -12.677  0.00  0.00    +0.140 C 
ENDBRANCH   5  12
BRANCH   7  16
ATOM     16  S   UNL     1      36.243 -20.810 -19.636  0.00  0.00    -0.051 S 
BRANCH  16  19
ATOM     17  N   UNL     1      34.650 -16.329 -23.209  0.00  0.00    -0.248 NA
ATOM     18  C   UNL     1      34.749 -18.697 -22.776  0.00  0.00    -0.003 C 
ATOM     19  C   UNL     1      35.761 -19.476 -20.712  0.00  0.00    +0.011 C 
ATOM     20  C   UNL     1      35.001 -17.357 -22.415  0.00  0.00    +0.060 C 
ATOM     21  C   UNL     1      35.130 -19.746 -21.923  0.00  0.00    +0.060 C 
ATOM     22  C   UNL     1      36.013 -18.159 -20.350  0.00  0.00    -0.017 C 
ATOM     23  C   UNL     1      35.635 -17.115 -21.198  0.00  0.00    +0.072 C 
ATOM     24  C   UNL     1      34.112 -18.940 -24.000  0.00  0.00    -0.001 C 
ATOM     25  C   UNL     1      33.748 -17.883 -24.821  0.00  0.00    +0.020 C 
ATOM     26  C   UNL     1      34.037 -16.606 -24.382  0.00  0.00    +0.098 C 
ENDBRANCH  16  19
ENDBRANCH   7  16
TORSDOF 3
ENDMDL
MODEL 3
REMARK VINA RESULT:     -11.2      2.486      9.279
REMARK  Name = 24779724
REMARK  3 active torsions:
REMARK  status: ('A' for Active; 'I' for Inactive)
REMARK    1  A    between atoms: C_5  and  C_12
REMARK    2  A    between atoms: C_7  and  S_16
REMARK    3  A    between atoms: S_16  and  C_19
REMARK                            x       y       z     vdW  Elec       q    Type
REMARK                         _______ _______ _______ _____ _____    ______ ____
ROOT
ATOM      1  N   UNL     1      35.279 -20.046 -20.273  0.00  0.00    -0.186 N 
ATOM      2  N   UNL     1      34.582 -19.514 -21.307  0.00  0.00    -0.162 NA
ATOM      3  N   UNL     1      36.899 -20.509 -18.864  0.00  0.00    -0.126 NA
ATOM      4  N   UNL     1      35.777 -21.222 -18.492  0.00  0.00    -0.120 NA
ATOM      5  C   UNL     1      35.273 -18.681 -22.034  0.00  0.00    +0.104 C 
ATOM      6  C   UNL     1      36.590 -19.807 -19.934  0.00  0.00    +0.187 A 
ATOM      7  C   UNL     1      34.820 -20.935 -19.344  0.00  0.00    +0.217 A 
ATOM      8  C   UNL     1      36.713 -18.339 -21.794  0.00  0.00    +0.024 C 
ATOM      9  C   UNL     1      37.317 -18.916 -20.748  0.00  0.00    +0.042 C 
ENDROOT
BRANCH   5  12
ATOM     10  N   UNL     1      33.952 -16.543 -24.655  0.00  0.00    -0.208 N 
ATOM     11  N   UNL     1      33.383 -17.681 -25.086  0.00  0.00    -0.176 NA
ATOM     12  C   UNL     1      34.618 -18.026 -23.196  0.00  0.00    +0.056 C 
ATOM     13  C   UNL     1      34.702 -16.696 -23.525  0.00  0.00    +0.087 C 
ATOM     14  C   UNL     1      33.794 -18.584 -24.192  0.00  0.00    +0.121 C 
ATOM     15  C   UNL     1      33.736 -15.313 -25.379  0.00  0.00    +0.140 C 
ENDBRANCH   5  12
BRANCH   7  16
ATOM     16  S   UNL     1      33.154 -21.579 -19.334  0.00  0.00    -0.051 S 
BRANCH  16  19
ATOM     17  N   UNL     1      32.948 -24.105 -13.952  0.00  0.00    -0.248 NA
ATOM     18  C   UNL     1      31.808 -23.008 -15.770  0.00  0.00    -0.003 C 
ATOM     19  C   UNL     1      33.081 -22.334 -17.723  0.00  0.00    +0.011 C 
ATOM     20  C   UNL     1      32.972 -23.530 -15.169  0.00  0.00    +0.060 C 
ATOM     21  C   UNL     1      31.870 -22.414 -17.041  0.00  0.00    +0.060 C 
ATOM     22  C   UNL     1      34.232 -22.845 -17.137  0.00  0.00    -0.017 C 
ATOM     23  C   UNL     1      34.170 -23.436 -15.873  0.00  0.00    +0.072 C 
ATOM     24  C   UNL     1      30.602 -23.102 -15.061  0.00  0.00    -0.001 C 
ATOM     25  C   UNL     1      30.573 -23.694 -13.807  0.00  0.00    +0.020 C 
ATOM     26  C   UNL     1      31.764 -24.176 -13.302  0.00  0.00    +0.098 C 
ENDBRANCH  16  19
ENDBRANCH   7  16
TORSDOF 3
ENDMDL
MODEL 4
REMARK VINA RESULT:     -10.9      2.498      3.931
REMARK  Name = 24779724
REMARK  3 active torsions:
REMARK  status: ('A' for Active; 'I' for Inactive)
REMARK    1  A    between atoms: C_5  and  C_12
REMARK    2  A    between atoms: C_7  and  S_16
REMARK    3  A    between atoms: S_16  and  C_19
REMARK                            x       y       z     vdW  Elec       q    Type
REMARK                         _______ _______ _______ _____ _____    ______ ____
ROOT
ATOM      1  N   UNL     1      33.817 -23.687 -15.519  0.00  0.00    -0.186 N 
ATOM      2  N   UNL     1      35.028 -24.267 -15.333  0.00  0.00    -0.162 NA
ATOM      3  N   UNL     1      31.883 -22.719 -15.135  0.00  0.00    -0.126 NA
ATOM      4  N   UNL     1      32.036 -22.866 -16.499  0.00  0.00    -0.120 NA
ATOM      5  C   UNL     1      35.378 -24.363 -14.081  0.00  0.00    +0.104 C 
ATOM      6  C   UNL     1      32.956 -23.215 -14.556  0.00  0.00    +0.187 A 
ATOM      7  C   UNL     1      33.195 -23.447 -16.711  0.00  0.00    +0.217 A 
ATOM      8  C   UNL     1      34.536 -23.909 -12.928  0.00  0.00    +0.024 C 
ATOM      9  C   UNL     1      33.353 -23.348 -13.211  0.00  0.00    +0.042 C 
ENDROOT
BRANCH   5  12
ATOM     10  N   UNL     1      38.811 -25.498 -13.741  0.00  0.00    -0.208 N 
ATOM     11  N   UNL     1      38.303 -26.249 -12.749  0.00  0.00    -0.176 NA
ATOM     12  C   UNL     1      36.689 -24.977 -13.746  0.00  0.00    +0.056 C 
ATOM     13  C   UNL     1      37.885 -24.718 -14.370  0.00  0.00    +0.087 C 
ATOM     14  C   UNL     1      37.008 -25.926 -12.756  0.00  0.00    +0.121 C 
ATOM     15  C   UNL     1      40.220 -25.571 -14.047  0.00  0.00    +0.140 C 
ENDBRANCH   5  12
BRANCH   7  16
ATOM     16  S   UNL     1      33.900 -23.877 -18.295  0.00  0.00    -0.051 S 
BRANCH  16  19
ATOM     17  N   UNL     1      34.577 -18.500 -20.749  0.00  0.00    -0.248 NA
ATOM     18  C   UNL     1      35.566 -20.492 -19.820  0.00  0.00    -0.003 C 
ATOM     19  C   UNL     1      34.114 -22.269 -19.030  0.00  0.00    +0.011 C 
ATOM     20  C   UNL     1      34.446 -19.719 -20.193  0.00  0.00    +0.060 C 
ATOM     21  C   UNL     1      35.392 -21.760 -19.242  0.00  0.00    +0.060 C 
ATOM     22  C   UNL     1      33.007 -21.513 -19.393  0.00  0.00    -0.017 C 
ATOM     23  C   UNL     1      33.179 -20.252 -19.969  0.00  0.00    +0.072 C 
ATOM     24  C   UNL     1      36.841 -19.956 -20.046  0.00  0.00    -0.001 C 
ATOM     25  C   UNL     1      36.980 -18.700 -20.619  0.00  0.00    +0.020 C 
ATOM     26  C   UNL     1      35.825 -18.020 -20.950  0.00  0.00    +0.098 C 
ENDBRANCH  16  19
ENDBRANCH   7  16
TORSDOF 3
ENDMDL
MODEL 5
REMARK VINA RESULT:     -10.7      3.564      6.058
REMARK  Name = 24779724
REMARK  3 active torsions:
REMARK  status: ('A' for Active; 'I' for Inactive)
REMARK    1  A    between atoms: C_5  and  C_12
REMARK    2  A    between atoms: C_7  and  S_16
REMARK    3  A    between atoms: S_16  and  C_19
REMARK                            x       y       z     vdW  Elec       q    Type
REMARK                         _______ _______ _______ _____ _____    ______ ____
ROOT
ATOM      1  N   UNL     1      32.765 -23.159 -15.878  0.00  0.00    -0.186 N 
ATOM      2  N   UNL     1      31.475 -23.095 -16.292  0.00  0.00    -0.162 NA
ATOM      3  N   UNL     1      34.551 -23.174 -14.599  0.00  0.00    -0.126 NA
ATOM      4  N   UNL     1      34.948 -23.352 -15.909  0.00  0.00    -0.120 NA
ATOM      5  C   UNL     1      30.620 -22.924 -15.323  0.00  0.00    +0.104 C 
ATOM      6  C   UNL     1      33.239 -23.060 -14.591  0.00  0.00    +0.187 A 
ATOM      7  C   UNL     1      33.870 -23.339 -16.659  0.00  0.00    +0.217 A 
ATOM      8  C   UNL     1      30.993 -22.782 -13.878  0.00  0.00    +0.024 C 
ATOM      9  C   UNL     1      32.293 -22.858 -13.567  0.00  0.00    +0.042 C 
ENDROOT
BRANCH   5  12
ATOM     10  N   UNL     1      27.039 -22.377 -15.576  0.00  0.00    -0.208 N 
ATOM     11  N   UNL     1      27.160 -23.115 -16.694  0.00  0.00    -0.176 NA
ATOM     12  C   UNL     1      29.173 -22.844 -15.647  0.00  0.00    +0.056 C 
ATOM     13  C   UNL     1      28.216 -22.187 -14.913  0.00  0.00    +0.087 C 
ATOM     14  C   UNL     1      28.465 -23.396 -16.732  0.00  0.00    +0.121 C 
ATOM     15  C   UNL     1      25.745 -21.873 -15.187  0.00  0.00    +0.140 C 
ENDBRANCH   5  12
BRANCH   7  16
ATOM     16  S   UNL     1      33.804 -23.526 -18.434  0.00  0.00    -0.051 S 
BRANCH  16  19
ATOM     17  N   UNL     1      36.938 -18.790 -20.204  0.00  0.00    -0.248 NA
ATOM     18  C   UNL     1      34.931 -20.116 -20.348  0.00  0.00    -0.003 C 
ATOM     19  C   UNL     1      34.733 -22.105 -18.970  0.00  0.00    +0.011 C 
ATOM     20  C   UNL     1      36.212 -19.855 -19.817  0.00  0.00    +0.060 C 
ATOM     21  C   UNL     1      34.202 -21.238 -19.921  0.00  0.00    +0.060 C 
ATOM     22  C   UNL     1      35.994 -21.854 -18.444  0.00  0.00    -0.017 C 
ATOM     23  C   UNL     1      36.720 -20.739 -18.868  0.00  0.00    +0.072 C 
ATOM     24  C   UNL     1      34.420 -19.227 -21.303  0.00  0.00    -0.001 C 
ATOM     25  C   UNL     1      35.166 -18.128 -21.703  0.00  0.00    +0.020 C 
ATOM     26  C   UNL     1      36.408 -17.956 -21.128  0.00  0.00    +0.098 C 
ENDBRANCH  16  19
ENDBRANCH   7  16
TORSDOF 3
ENDMDL
MODEL 6
REMARK VINA RESULT:     -10.6      3.347     10.413
REMARK  Name = 24779724
REMARK  3 active torsions:
REMARK  status: ('A' for Active; 'I' for Inactive)
REMARK    1  A    between atoms: C_5  and  C_12
REMARK    2  A    between atoms: C_7  and  S_16
REMARK    3  A    between atoms: S_16  and  C_19
REMARK                            x       y       z     vdW  Elec       q    Type
REMARK                         _______ _______ _______ _____ _____    ______ ____
ROOT
ATOM      1  N   UNL     1      34.382 -15.312 -23.550  0.00  0.00    -0.186 N 
ATOM      2  N   UNL     1      34.340 -14.014 -23.159  0.00  0.00    -0.162 NA
ATOM      3  N   UNL     1      34.210 -17.134 -24.764  0.00  0.00    -0.126 NA
ATOM      4  N   UNL     1      34.702 -17.480 -23.522  0.00  0.00    -0.120 NA
ATOM      5  C   UNL     1      33.905 -13.201 -24.080  0.00  0.00    +0.104 C 
ATOM      6  C   UNL     1      34.021 -15.831 -24.771  0.00  0.00    +0.187 A 
ATOM      7  C   UNL     1      34.797 -16.380 -22.809  0.00  0.00    +0.217 A 
ATOM      8  C   UNL     1      33.461 -13.627 -25.447  0.00  0.00    +0.024 C 
ATOM      9  C   UNL     1      33.539 -14.931 -25.741  0.00  0.00    +0.042 C 
ENDROOT
BRANCH   5  12
ATOM     10  N   UNL     1      33.249  -9.830 -22.900  0.00  0.00    -0.208 N 
ATOM     11  N   UNL     1      34.172  -9.493 -23.817  0.00  0.00    -0.176 NA
ATOM     12  C   UNL     1      33.817 -11.749 -23.775  0.00  0.00    +0.056 C 
ATOM     13  C   UNL     1      33.000 -11.170 -22.835  0.00  0.00    +0.087 C 
ATOM     14  C   UNL     1      34.516 -10.669 -24.348  0.00  0.00    +0.121 C 
ATOM     15  C   UNL     1      32.626  -8.803 -22.098  0.00  0.00    +0.140 C 
ENDBRANCH   5  12
BRANCH   7  16
ATOM     16  S   UNL     1      35.377 -16.246 -21.125  0.00  0.00    -0.051 S 
BRANCH  16  19
ATOM     17  N   UNL     1      35.596 -21.964 -19.498  0.00  0.00    -0.248 NA
ATOM     18  C   UNL     1      34.293 -19.988 -19.948  0.00  0.00    -0.003 C 
ATOM     19  C   UNL     1      35.431 -17.958 -20.638  0.00  0.00    +0.011 C 
ATOM     20  C   UNL     1      35.524 -20.671 -19.865  0.00  0.00    +0.060 C 
ATOM     21  C   UNL     1      34.255 -18.638 -20.334  0.00  0.00    +0.060 C 
ATOM     22  C   UNL     1      36.647 -18.624 -20.557  0.00  0.00    -0.017 C 
ATOM     23  C   UNL     1      36.685 -19.967 -20.173  0.00  0.00    +0.072 C 
ATOM     24  C   UNL     1      33.125 -20.696 -19.637  0.00  0.00    -0.001 C 
ATOM     25  C   UNL     1      33.195 -22.029 -19.259  0.00  0.00    +0.020 C 
ATOM     26  C   UNL     1      34.445 -22.611 -19.206  0.00  0.00    +0.098 C 
ENDBRANCH  16  19
ENDBRANCH   7  16
TORSDOF 3
ENDMDL
MODEL 7
REMARK VINA RESULT:     -10.6      6.416     12.285
REMARK  Name = 24779724
REMARK  3 active torsions:
REMARK  status: ('A' for Active; 'I' for Inactive)
REMARK    1  A    between atoms: C_5  and  C_12
REMARK    2  A    between atoms: C_7  and  S_16
REMARK    3  A    between atoms: S_16  and  C_19
REMARK                            x       y       z     vdW  Elec       q    Type
REMARK                         _______ _______ _______ _____ _____    ______ ____
ROOT
ATOM      1  N   UNL     1      32.526 -11.361 -21.807  0.00  0.00    -0.186 N 
ATOM      2  N   UNL     1      32.654 -10.171 -22.444  0.00  0.00    -0.162 NA
ATOM      3  N   UNL     1      31.952 -12.898 -20.347  0.00  0.00    -0.126 NA
ATOM      4  N   UNL     1      32.715 -13.493 -21.332  0.00  0.00    -0.120 NA
ATOM      5  C   UNL     1      32.039  -9.188 -21.849  0.00  0.00    +0.104 C 
ATOM      6  C   UNL     1      31.845 -11.619 -20.641  0.00  0.00    +0.187 A 
ATOM      7  C   UNL     1      33.051 -12.560 -22.195  0.00  0.00    +0.217 A 
ATOM      8  C   UNL     1      31.274  -9.318 -20.567  0.00  0.00    +0.024 C 
ATOM      9  C   UNL     1      31.204 -10.534 -20.011  0.00  0.00    +0.042 C 
ENDROOT
BRANCH   5  12
ATOM     10  N   UNL     1      31.578  -5.816 -23.117  0.00  0.00    -0.208 N 
ATOM     11  N   UNL     1      32.845  -5.966 -23.540  0.00  0.00    -0.176 NA
ATOM     12  C   UNL     1      32.099  -7.831 -22.453  0.00  0.00    +0.056 C 
ATOM     13  C   UNL     1      31.084  -6.906 -22.461  0.00  0.00    +0.087 C 
ATOM     14  C   UNL     1      33.158  -7.198 -23.131  0.00  0.00    +0.121 C 
ATOM     15  C   UNL     1      30.876  -4.582 -23.376  0.00  0.00    +0.140 C 
ENDBRANCH   5  12
BRANCH   7  16
ATOM     16  S   UNL     1      34.038 -12.775 -23.668  0.00  0.00    -0.051 S 
BRANCH  16  19
ATOM     17  N   UNL     1      34.301 -18.705 -24.061  0.00  0.00    -0.248 NA
ATOM     18  C   UNL     1      34.902 -16.678 -22.905  0.00  0.00    -0.003 C 
ATOM     19  C   UNL     1      34.122 -14.551 -23.776  0.00  0.00    +0.011 C 
ATOM     20  C   UNL     1      34.253 -17.364 -23.953  0.00  0.00    +0.060 C 
ATOM     21  C   UNL     1      34.832 -15.277 -22.824  0.00  0.00    +0.060 C 
ATOM     22  C   UNL     1      33.482 -15.220 -24.811  0.00  0.00    -0.017 C 
ATOM     23  C   UNL     1      33.551 -16.613 -24.892  0.00  0.00    +0.072 C 
ATOM     24  C   UNL     1      35.609 -17.434 -21.961  0.00  0.00    -0.001 C 
ATOM     25  C   UNL     1      35.660 -18.816 -22.068  0.00  0.00    +0.020 C 
ATOM     26  C   UNL     1      34.994 -19.398 -23.128  0.00  0.00    +0.098 C 
ENDBRANCH  16  19
ENDBRANCH   7  16
TORSDOF 3
ENDMDL
MODEL 8
REMARK VINA RESULT:     -10.0      6.290     12.453
REMARK  Name = 24779724
REMARK  3 active torsions:
REMARK  status: ('A' for Active; 'I' for Inactive)
REMARK    1  A    between atoms: C_5  and  C_12
REMARK    2  A    between atoms: C_7  and  S_16
REMARK    3  A    between atoms: S_16  and  C_19
REMARK                            x       y       z     vdW  Elec       q    Type
REMARK                         _______ _______ _______ _____ _____    ______ ____
ROOT
ATOM      1  N   UNL     1      32.461 -11.135 -21.785  0.00  0.00    -0.186 N 
ATOM      2  N   UNL     1      32.788 -10.005 -22.459  0.00  0.00    -0.162 NA
ATOM      3  N   UNL     1      31.628 -12.507 -20.285  0.00  0.00    -0.126 NA
ATOM      4  N   UNL     1      32.294 -13.251 -21.237  0.00  0.00    -0.120 NA
ATOM      5  C   UNL     1      32.335  -8.914 -21.906  0.00  0.00    +0.104 C 
ATOM      6  C   UNL     1      31.734 -11.238 -20.622  0.00  0.00    +0.187 A 
ATOM      7  C   UNL     1      32.787 -12.417 -22.125  0.00  0.00    +0.217 A 
ATOM      8  C   UNL     1      31.546  -8.873 -20.632  0.00  0.00    +0.024 C 
ATOM      9  C   UNL     1      31.273 -10.042 -20.039  0.00  0.00    +0.042 C 
ENDROOT
BRANCH   5  12
ATOM     10  N   UNL     1      32.438  -5.771 -23.721  0.00  0.00    -0.208 N 
ATOM     11  N   UNL     1      33.683  -5.698 -23.220  0.00  0.00    -0.176 NA
ATOM     12  C   UNL     1      32.622  -7.608 -22.553  0.00  0.00    +0.056 C 
ATOM     13  C   UNL     1      31.761  -6.896 -23.352  0.00  0.00    +0.087 C 
ATOM     14  C   UNL     1      33.789  -6.822 -22.507  0.00  0.00    +0.121 C 
ATOM     15  C   UNL     1      31.941  -4.711 -24.566  0.00  0.00    +0.140 C 
ENDBRANCH   5  12
BRANCH   7  16
ATOM     16  S   UNL     1      33.741 -12.841 -23.574  0.00  0.00    -0.051 S 
BRANCH  16  19
ATOM     17  N   UNL     1      35.343 -18.425 -22.295  0.00  0.00    -0.248 NA
ATOM     18  C   UNL     1      34.240 -16.875 -23.773  0.00  0.00    -0.003 C 
ATOM     19  C   UNL     1      34.216 -14.516 -23.201  0.00  0.00    +0.011 C 
ATOM     20  C   UNL     1      34.971 -17.169 -22.603  0.00  0.00    +0.060 C 
ATOM     21  C   UNL     1      33.868 -15.552 -24.063  0.00  0.00    +0.060 C 
ATOM     22  C   UNL     1      34.936 -14.799 -22.047  0.00  0.00    -0.017 C 
ATOM     23  C   UNL     1      35.306 -16.114 -21.758  0.00  0.00    +0.072 C 
ATOM     24  C   UNL     1      33.902 -17.936 -24.623  0.00  0.00    -0.001 C 
ATOM     25  C   UNL     1      34.284 -19.232 -24.309  0.00  0.00    +0.020 C 
ATOM     26  C   UNL     1      34.998 -19.421 -23.142  0.00  0.00    +0.098 C 
ENDBRANCH  16  19
ENDBRANCH   7  16
TORSDOF 3
ENDMDL
MODEL 9
REMARK VINA RESULT:      -9.9      3.715      6.806
REMARK  Name = 24779724
REMARK  3 active torsions:
REMARK  status: ('A' for Active; 'I' for Inactive)
REMARK    1  A    between atoms: C_5  and  C_12
REMARK    2  A    between atoms: C_7  and  S_16
REMARK    3  A    between atoms: S_16  and  C_19
REMARK                            x       y       z     vdW  Elec       q    Type
REMARK                         _______ _______ _______ _____ _____    ______ ____
ROOT
ATOM      1  N   UNL     1      34.417 -16.853 -23.805  0.00  0.00    -0.186 N 
ATOM      2  N   UNL     1      35.152 -17.263 -22.741  0.00  0.00    -0.162 NA
ATOM      3  N   UNL     1      33.038 -16.849 -25.514  0.00  0.00    -0.126 NA
ATOM      4  N   UNL     1      33.540 -15.573 -25.353  0.00  0.00    -0.120 NA
ATOM      5  C   UNL     1      35.002 -18.526 -22.454  0.00  0.00    +0.104 C 
ATOM      6  C   UNL     1      33.570 -17.609 -24.580  0.00  0.00    +0.187 A 
ATOM      7  C   UNL     1      34.364 -15.594 -24.329  0.00  0.00    +0.217 A 
ATOM      8  C   UNL     1      34.128 -19.472 -23.221  0.00  0.00    +0.024 C 
ATOM      9  C   UNL     1      33.441 -18.974 -24.257  0.00  0.00    +0.042 C 
ENDROOT
BRANCH   5  12
ATOM     10  N   UNL     1      36.338 -20.330 -19.600  0.00  0.00    -0.208 N 
ATOM     11  N   UNL     1      37.353 -19.457 -19.716  0.00  0.00    -0.176 NA
ATOM     12  C   UNL     1      35.751 -19.096 -21.305  0.00  0.00    +0.056 C 
ATOM     13  C   UNL     1      35.352 -20.156 -20.527  0.00  0.00    +0.087 C 
ATOM     14  C   UNL     1      36.989 -18.706 -20.759  0.00  0.00    +0.121 C 
ATOM     15  C   UNL     1      36.367 -21.330 -18.559  0.00  0.00    +0.140 C 
ENDBRANCH   5  12
BRANCH   7  16
ATOM     16  S   UNL     1      35.293 -14.214 -23.680  0.00  0.00    -0.051 S 
BRANCH  16  19
ATOM     17  N   UNL     1      31.129 -11.431 -20.471  0.00  0.00    -0.248 NA
ATOM     18  C   UNL     1      32.754 -11.374 -22.249  0.00  0.00    -0.003 C 
ATOM     19  C   UNL     1      34.048 -13.372 -22.726  0.00  0.00    +0.011 C 
ATOM     20  C   UNL     1      32.074 -12.042 -21.210  0.00  0.00    +0.060 C 
ATOM     21  C   UNL     1      33.735 -12.044 -22.999  0.00  0.00    +0.060 C 
ATOM     22  C   UNL     1      33.382 -14.035 -21.703  0.00  0.00    -0.017 C 
ATOM     23  C   UNL     1      32.406 -13.371 -20.957  0.00  0.00    +0.072 C 
ATOM     24  C   UNL     1      32.419 -10.038 -22.504  0.00  0.00    -0.001 C 
ATOM     25  C   UNL     1      31.446  -9.405 -21.745  0.00  0.00    +0.020 C 
ATOM     26  C   UNL     1      30.835 -10.140 -20.749  0.00  0.00    +0.098 C 
ENDBRANCH  16  19
ENDBRANCH   7  16
TORSDOF 3
ENDMDL
