MODEL 1
REMARK VINA RESULT:     -11.1      0.000      0.000
REMARK  Name = 9887812
REMARK  11 active torsions:
REMARK  status: ('A' for Active; 'I' for Inactive)
REMARK    1  A    between atoms: N_1  and  C_3
REMARK    2  A    between atoms: N_1  and  C_19
REMARK    3  A    between atoms: C_4  and  C_9
REMARK    4  A    between atoms: C_12  and  C_16
REMARK    5  A    between atoms: C_16  and  O_17
REMARK    6  A    between atoms: C_19  and  C_20
REMARK    7  A    between atoms: C_20  and  N_21
REMARK    8  A    between atoms: N_21  and  C_24
REMARK    9  A    between atoms: C_24  and  C_25
REMARK   10  A    between atoms: C_25  and  C_27
REMARK   11  A    between atoms: C_25  and  O_33
REMARK                            x       y       z     vdW  Elec       q    Type
REMARK                         _______ _______ _______ _____ _____    ______ ____
ROOT
ATOM      1  N   UNL     1      32.770 -22.144 -18.260  0.00  0.00    -0.335 N 
ATOM      2  H   UNL     1      31.908 -21.904 -18.669  0.00  0.00    +0.147 HD
ENDROOT
BRANCH   1   3
ATOM      3  C   UNL     1      33.947 -21.568 -18.782  0.00  0.00    +0.045 C 
ATOM      4  C   UNL     1      35.029 -20.024 -20.292  0.00  0.00    +0.001 C 
ATOM      5  C   UNL     1      33.865 -20.594 -19.776  0.00  0.00    +0.014 C 
ATOM      6  C   UNL     1      35.193 -21.973 -18.304  0.00  0.00    +0.014 C 
ATOM      7  C   UNL     1      36.276 -20.429 -19.814  0.00  0.00    +0.000 C 
ATOM      8  C   UNL     1      36.357 -21.405 -18.820  0.00  0.00    +0.001 C 
BRANCH   4   9
ATOM      9  C   UNL     1      34.944 -19.014 -21.324  0.00  0.00    +0.000 C 
ATOM     10  C   UNL     1      35.012 -17.662 -20.985  0.00  0.00    +0.006 C 
ATOM     11  C   UNL     1      34.794 -19.391 -22.658  0.00  0.00    +0.000 C 
ATOM     12  C   UNL     1      34.929 -16.689 -21.980  0.00  0.00    +0.075 C 
ATOM     13  C   UNL     1      34.711 -18.417 -23.654  0.00  0.00    +0.000 C 
ATOM     14  C   UNL     1      34.778 -17.065 -23.315  0.00  0.00    +0.006 C 
BRANCH  12  16
ATOM     15  O   UNL     1      34.952 -14.825 -20.480  0.00  0.00    -0.245 OA
ATOM     16  C   UNL     1      35.000 -15.279 -21.628  0.00  0.00    +0.338 C 
BRANCH  16  17
ATOM     17  O   UNL     1      35.128 -14.475 -22.719  0.00  0.00    -0.477 OA
ATOM     18  H   UNL     1      34.440 -14.433 -23.353  0.00  0.00    +0.295 HD
ENDBRANCH  16  17
ENDBRANCH  12  16
ENDBRANCH   4   9
ENDBRANCH   1   3
BRANCH   1  19
ATOM     19  C   UNL     1      32.775 -23.061 -17.161  0.00  0.00    +0.064 C 
BRANCH  19  20
ATOM     20  C   UNL     1      31.568 -22.798 -16.271  0.00  0.00    -0.060 C 
BRANCH  20  21
ATOM     21  N   UNL     1      31.619 -23.642 -15.084  0.00  0.00    +0.387 N 
ATOM     22  H   UNL     1      30.724 -23.588 -14.597  0.00  0.00    -0.084 HD
ATOM     23  H   UNL     1      31.809 -24.601 -15.374  0.00  0.00    -0.084 HD
BRANCH  21  24
ATOM     24  C   UNL     1      32.679 -23.208 -14.184  0.00  0.00    -0.047 C 
BRANCH  24  25
ATOM     25  C   UNL     1      33.607 -24.378 -13.831  0.00  0.00    +0.112 C 
BRANCH  25  27
ATOM     26 CL   UNL     1      38.540 -25.983 -14.186  0.00  0.00    -0.082 Cl
ATOM     27  C   UNL     1      35.045 -24.068 -14.181  0.00  0.00    +0.003 C 
ATOM     28  C   UNL     1      36.004 -25.056 -14.035  0.00  0.00    +0.009 C 
ATOM     29  C   UNL     1      35.372 -22.804 -14.643  0.00  0.00    -0.002 C 
ATOM     30  C   UNL     1      37.331 -24.770 -14.360  0.00  0.00    +0.057 C 
ATOM     31  C   UNL     1      36.698 -22.519 -14.966  0.00  0.00    +0.001 C 
ATOM     32  C   UNL     1      37.677 -23.502 -14.825  0.00  0.00    +0.011 C 
ENDBRANCH  25  27
BRANCH  25  33
ATOM     33  O   UNL     1      33.538 -24.659 -12.434  0.00  0.00    -0.382 OA
ATOM     34  H   UNL     1      33.303 -23.850 -11.952  0.00  0.00    +0.211 HD
ENDBRANCH  25  33
ENDBRANCH  24  25
ENDBRANCH  21  24
ENDBRANCH  20  21
ENDBRANCH  19  20
ENDBRANCH   1  19
TORSDOF 11
ENDMDL
MODEL 2
REMARK VINA RESULT:     -11.0      2.955      4.337
REMARK  Name = 9887812
REMARK  11 active torsions:
REMARK  status: ('A' for Active; 'I' for Inactive)
REMARK    1  A    between atoms: N_1  and  C_3
REMARK    2  A    between atoms: N_1  and  C_19
REMARK    3  A    between atoms: C_4  and  C_9
REMARK    4  A    between atoms: C_12  and  C_16
REMARK    5  A    between atoms: C_16  and  O_17
REMARK    6  A    between atoms: C_19  and  C_20
REMARK    7  A    between atoms: C_20  and  N_21
REMARK    8  A    between atoms: N_21  and  C_24
REMARK    9  A    between atoms: C_24  and  C_25
REMARK   10  A    between atoms: C_25  and  C_27
REMARK   11  A    between atoms: C_25  and  O_33
REMARK                            x       y       z     vdW  Elec       q    Type
REMARK                         _______ _______ _______ _____ _____    ______ ____
ROOT
ATOM      1  N   UNL     1      33.004 -22.200 -18.746  0.00  0.00    -0.335 N 
ATOM      2  H   UNL     1      32.443 -22.601 -19.448  0.00  0.00    +0.147 HD
ENDROOT
BRANCH   1   3
ATOM      3  C   UNL     1      34.160 -21.490 -19.131  0.00  0.00    +0.045 C 
ATOM      4  C   UNL     1      35.193 -19.665 -20.331  0.00  0.00    +0.001 C 
ATOM      5  C   UNL     1      34.049 -20.367 -19.950  0.00  0.00    +0.014 C 
ATOM      6  C   UNL     1      35.416 -21.912 -18.694  0.00  0.00    +0.014 C 
ATOM      7  C   UNL     1      36.449 -20.087 -19.894  0.00  0.00    +0.000 C 
ATOM      8  C   UNL     1      36.560 -21.211 -19.075  0.00  0.00    +0.001 C 
BRANCH   4   9
ATOM      9  C   UNL     1      35.076 -18.499 -21.180  0.00  0.00    +0.000 C 
ATOM     10  C   UNL     1      34.604 -18.632 -22.487  0.00  0.00    +0.006 C 
ATOM     11  C   UNL     1      35.437 -17.243 -20.693  0.00  0.00    +0.000 C 
ATOM     12  C   UNL     1      34.493 -17.508 -23.305  0.00  0.00    +0.075 C 
ATOM     13  C   UNL     1      35.326 -16.119 -21.512  0.00  0.00    +0.000 C 
ATOM     14  C   UNL     1      34.853 -16.252 -22.818  0.00  0.00    +0.006 C 
BRANCH  12  16
ATOM     15  O   UNL     1      33.296 -18.571 -25.083  0.00  0.00    -0.245 OA
ATOM     16  C   UNL     1      34.000 -17.645 -24.666  0.00  0.00    +0.338 C 
BRANCH  16  17
ATOM     17  O   UNL     1      34.399 -16.621 -25.470  0.00  0.00    -0.477 OA
ATOM     18  H   UNL     1      34.992 -15.974 -25.144  0.00  0.00    +0.295 HD
ENDBRANCH  16  17
ENDBRANCH  12  16
ENDBRANCH   4   9
ENDBRANCH   1   3
BRANCH   1  19
ATOM     19  C   UNL     1      32.610 -22.361 -17.380  0.00  0.00    +0.064 C 
BRANCH  19  20
ATOM     20  C   UNL     1      33.404 -23.497 -16.749  0.00  0.00    -0.060 C 
BRANCH  20  21
ATOM     21  N   UNL     1      34.079 -23.034 -15.543  0.00  0.00    +0.387 N 
ATOM     22  H   UNL     1      35.081 -23.199 -15.638  0.00  0.00    -0.084 HD
ATOM     23  H   UNL     1      33.892 -22.039 -15.426  0.00  0.00    -0.084 HD
BRANCH  21  24
ATOM     24  C   UNL     1      33.588 -23.742 -14.369  0.00  0.00    -0.047 C 
BRANCH  24  25
ATOM     25  C   UNL     1      32.418 -22.987 -13.727  0.00  0.00    +0.112 C 
BRANCH  25  27
ATOM     26 CL   UNL     1      27.602 -22.381 -15.593  0.00  0.00    -0.082 Cl
ATOM     27  C   UNL     1      31.089 -23.604 -14.101  0.00  0.00    +0.003 C 
ATOM     28  C   UNL     1      30.087 -22.796 -14.611  0.00  0.00    +0.009 C 
ATOM     29  C   UNL     1      30.903 -24.965 -13.927  0.00  0.00    -0.002 C 
ATOM     30  C   UNL     1      28.862 -23.366 -14.957  0.00  0.00    +0.057 C 
ATOM     31  C   UNL     1      29.678 -25.535 -14.272  0.00  0.00    +0.001 C 
ATOM     32  C   UNL     1      28.657 -24.736 -14.787  0.00  0.00    +0.011 C 
ENDBRANCH  25  27
BRANCH  25  33
ATOM     33  O   UNL     1      32.536 -23.009 -12.305  0.00  0.00    -0.382 OA
ATOM     34  H   UNL     1      33.136 -22.303 -12.019  0.00  0.00    +0.211 HD
ENDBRANCH  25  33
ENDBRANCH  24  25
ENDBRANCH  21  24
ENDBRANCH  20  21
ENDBRANCH  19  20
ENDBRANCH   1  19
TORSDOF 11
ENDMDL
MODEL 3
REMARK VINA RESULT:     -11.0      3.370     10.042
REMARK  Name = 9887812
REMARK  11 active torsions:
REMARK  status: ('A' for Active; 'I' for Inactive)
REMARK    1  A    between atoms: N_1  and  C_3
REMARK    2  A    between atoms: N_1  and  C_19
REMARK    3  A    between atoms: C_4  and  C_9
REMARK    4  A    between atoms: C_12  and  C_16
REMARK    5  A    between atoms: C_16  and  O_17
REMARK    6  A    between atoms: C_19  and  C_20
REMARK    7  A    between atoms: C_20  and  N_21
REMARK    8  A    between atoms: N_21  and  C_24
REMARK    9  A    between atoms: C_24  and  C_25
REMARK   10  A    between atoms: C_25  and  C_27
REMARK   11  A    between atoms: C_25  and  O_33
REMARK                            x       y       z     vdW  Elec       q    Type
REMARK                         _______ _______ _______ _____ _____    ______ ____
ROOT
ATOM      1  N   UNL     1      32.980 -22.803 -18.135  0.00  0.00    -0.335 N 
ATOM      2  H   UNL     1      32.615 -23.460 -18.771  0.00  0.00    +0.147 HD
ENDROOT
BRANCH   1   3
ATOM      3  C   UNL     1      32.810 -23.036 -16.755  0.00  0.00    +0.045 C 
ATOM      4  C   UNL     1      33.704 -23.750 -14.626  0.00  0.00    +0.001 C 
ATOM      5  C   UNL     1      33.873 -23.519 -15.992  0.00  0.00    +0.014 C 
ATOM      6  C   UNL     1      31.577 -22.785 -16.152  0.00  0.00    +0.014 C 
ATOM      7  C   UNL     1      32.471 -23.498 -14.023  0.00  0.00    +0.000 C 
ATOM      8  C   UNL     1      31.408 -23.016 -14.787  0.00  0.00    +0.001 C 
BRANCH   4   9
ATOM      9  C   UNL     1      34.807 -24.251 -13.836  0.00  0.00    +0.000 C 
ATOM     10  C   UNL     1      34.935 -23.875 -12.498  0.00  0.00    +0.006 C 
ATOM     11  C   UNL     1      35.743 -25.109 -14.412  0.00  0.00    +0.000 C 
ATOM     12  C   UNL     1      35.999 -24.358 -11.737  0.00  0.00    +0.075 C 
ATOM     13  C   UNL     1      36.808 -25.592 -13.650  0.00  0.00    +0.000 C 
ATOM     14  C   UNL     1      36.935 -25.217 -12.312  0.00  0.00    +0.006 C 
BRANCH  12  16
ATOM     15  O   UNL     1      35.466 -24.421  -9.405  0.00  0.00    -0.245 OA
ATOM     16  C   UNL     1      36.132 -23.968 -10.342  0.00  0.00    +0.338 C 
BRANCH  16  17
ATOM     17  O   UNL     1      37.093 -23.022 -10.155  0.00  0.00    -0.477 OA
ATOM     18  H   UNL     1      37.930 -23.266  -9.813  0.00  0.00    +0.295 HD
ENDBRANCH  16  17
ENDBRANCH  12  16
ENDBRANCH   4   9
ENDBRANCH   1   3
BRANCH   1  19
ATOM     19  C   UNL     1      33.663 -21.657 -18.651  0.00  0.00    +0.064 C 
BRANCH  19  20
ATOM     20  C   UNL     1      35.151 -21.957 -18.766  0.00  0.00    -0.060 C 
BRANCH  20  21
ATOM     21  N   UNL     1      35.874 -20.773 -19.215  0.00  0.00    +0.387 N 
ATOM     22  H   UNL     1      36.008 -20.144 -18.423  0.00  0.00    -0.084 HD
ATOM     23  H   UNL     1      36.775 -21.065 -19.594  0.00  0.00    -0.084 HD
BRANCH  21  24
ATOM     24  C   UNL     1      35.133 -20.076 -20.258  0.00  0.00    -0.047 C 
BRANCH  24  25
ATOM     25  C   UNL     1      36.003 -18.998 -20.917  0.00  0.00    +0.112 C 
BRANCH  25  27
ATOM     26 CL   UNL     1      34.601 -14.820 -23.677  0.00  0.00    -0.082 Cl
ATOM     27  C   UNL     1      35.336 -18.425 -22.148  0.00  0.00    +0.003 C 
ATOM     28  C   UNL     1      35.287 -17.052 -22.314  0.00  0.00    +0.009 C 
ATOM     29  C   UNL     1      34.791 -19.288 -23.084  0.00  0.00    -0.002 C 
ATOM     30  C   UNL     1      34.673 -16.525 -23.450  0.00  0.00    +0.057 C 
ATOM     31  C   UNL     1      34.176 -18.760 -24.219  0.00  0.00    +0.001 C 
ATOM     32  C   UNL     1      34.118 -17.379 -24.403  0.00  0.00    +0.011 C 
ENDBRANCH  25  27
BRANCH  25  33
ATOM     33  O   UNL     1      36.243 -17.930 -20.002  0.00  0.00    -0.382 OA
ATOM     34  H   UNL     1      35.482 -17.835 -19.408  0.00  0.00    +0.211 HD
ENDBRANCH  25  33
ENDBRANCH  24  25
ENDBRANCH  21  24
ENDBRANCH  20  21
ENDBRANCH  19  20
ENDBRANCH   1  19
TORSDOF 11
ENDMDL
MODEL 4
REMARK VINA RESULT:     -10.9      2.662      4.112
REMARK  Name = 9887812
REMARK  11 active torsions:
REMARK  status: ('A' for Active; 'I' for Inactive)
REMARK    1  A    between atoms: N_1  and  C_3
REMARK    2  A    between atoms: N_1  and  C_19
REMARK    3  A    between atoms: C_4  and  C_9
REMARK    4  A    between atoms: C_12  and  C_16
REMARK    5  A    between atoms: C_16  and  O_17
REMARK    6  A    between atoms: C_19  and  C_20
REMARK    7  A    between atoms: C_20  and  N_21
REMARK    8  A    between atoms: N_21  and  C_24
REMARK    9  A    between atoms: C_24  and  C_25
REMARK   10  A    between atoms: C_25  and  C_27
REMARK   11  A    between atoms: C_25  and  O_33
REMARK                            x       y       z     vdW  Elec       q    Type
REMARK                         _______ _______ _______ _____ _____    ______ ____
ROOT
ATOM      1  N   UNL     1      36.697 -22.107 -17.642  0.00  0.00    -0.335 N 
ATOM      2  H   UNL     1      37.150 -22.931 -17.932  0.00  0.00    +0.147 HD
ENDROOT
BRANCH   1   3
ATOM      3  C   UNL     1      35.609 -21.632 -18.404  0.00  0.00    +0.045 C 
ATOM      4  C   UNL     1      34.731 -20.168 -20.113  0.00  0.00    +0.001 C 
ATOM      5  C   UNL     1      35.808 -20.637 -19.360  0.00  0.00    +0.014 C 
ATOM      6  C   UNL     1      34.333 -22.158 -18.200  0.00  0.00    +0.014 C 
ATOM      7  C   UNL     1      33.455 -20.693 -19.910  0.00  0.00    +0.000 C 
ATOM      8  C   UNL     1      33.256 -21.689 -18.952  0.00  0.00    +0.001 C 
BRANCH   4   9
ATOM      9  C   UNL     1      34.938 -19.135 -21.105  0.00  0.00    +0.000 C 
ATOM     10  C   UNL     1      34.208 -19.152 -22.294  0.00  0.00    +0.006 C 
ATOM     11  C   UNL     1      35.868 -18.122 -20.872  0.00  0.00    +0.000 C 
ATOM     12  C   UNL     1      34.409 -18.157 -23.249  0.00  0.00    +0.075 C 
ATOM     13  C   UNL     1      36.068 -17.126 -21.828  0.00  0.00    +0.000 C 
ATOM     14  C   UNL     1      35.339 -17.143 -23.017  0.00  0.00    +0.006 C 
BRANCH  12  16
ATOM     15  O   UNL     1      32.777 -18.999 -24.783  0.00  0.00    -0.245 OA
ATOM     16  C   UNL     1      33.648 -18.173 -24.489  0.00  0.00    +0.338 C 
BRANCH  16  17
ATOM     17  O   UNL     1      33.996 -17.158 -25.328  0.00  0.00    -0.477 OA
ATOM     18  H   UNL     1      33.560 -16.332 -25.269  0.00  0.00    +0.295 HD
ENDBRANCH  16  17
ENDBRANCH  12  16
ENDBRANCH   4   9
ENDBRANCH   1   3
BRANCH   1  19
ATOM     19  C   UNL     1      37.169 -21.445 -16.465  0.00  0.00    +0.064 C 
BRANCH  19  20
ATOM     20  C   UNL     1      37.337 -22.458 -15.341  0.00  0.00    -0.060 C 
BRANCH  20  21
ATOM     21  N   UNL     1      36.225 -23.400 -15.337  0.00  0.00    +0.387 N 
ATOM     22  H   UNL     1      35.892 -23.527 -16.293  0.00  0.00    -0.084 HD
ATOM     23  H   UNL     1      36.550 -24.287 -14.953  0.00  0.00    -0.084 HD
BRANCH  21  24
ATOM     24  C   UNL     1      35.131 -22.909 -14.512  0.00  0.00    -0.047 C 
BRANCH  24  25
ATOM     25  C   UNL     1      34.505 -24.050 -13.700  0.00  0.00    +0.112 C 
BRANCH  25  27
ATOM     26 CL   UNL     1      30.314 -22.532 -16.378  0.00  0.00    -0.082 Cl
ATOM     27  C   UNL     1      33.009 -24.126 -13.914  0.00  0.00    +0.003 C 
ATOM     28  C   UNL     1      32.432 -23.380 -14.927  0.00  0.00    +0.009 C 
ATOM     29  C   UNL     1      32.250 -24.942 -13.093  0.00  0.00    -0.002 C 
ATOM     30  C   UNL     1      31.053 -23.451 -15.124  0.00  0.00    +0.057 C 
ATOM     31  C   UNL     1      30.871 -25.013 -13.290  0.00  0.00    +0.001 C 
ATOM     32  C   UNL     1      30.273 -24.268 -14.306  0.00  0.00    +0.011 C 
ENDBRANCH  25  27
BRANCH  25  33
ATOM     33  O   UNL     1      35.074 -25.300 -14.084  0.00  0.00    -0.382 OA
ATOM     34  H   UNL     1      35.290 -25.280 -15.030  0.00  0.00    +0.211 HD
ENDBRANCH  25  33
ENDBRANCH  24  25
ENDBRANCH  21  24
ENDBRANCH  20  21
ENDBRANCH  19  20
ENDBRANCH   1  19
TORSDOF 11
ENDMDL
MODEL 5
REMARK VINA RESULT:     -10.9      6.554     11.810
REMARK  Name = 9887812
REMARK  11 active torsions:
REMARK  status: ('A' for Active; 'I' for Inactive)
REMARK    1  A    between atoms: N_1  and  C_3
REMARK    2  A    between atoms: N_1  and  C_19
REMARK    3  A    between atoms: C_4  and  C_9
REMARK    4  A    between atoms: C_12  and  C_16
REMARK    5  A    between atoms: C_16  and  O_17
REMARK    6  A    between atoms: C_19  and  C_20
REMARK    7  A    between atoms: C_20  and  N_21
REMARK    8  A    between atoms: N_21  and  C_24
REMARK    9  A    between atoms: C_24  and  C_25
REMARK   10  A    between atoms: C_25  and  C_27
REMARK   11  A    between atoms: C_25  and  O_33
REMARK                            x       y       z     vdW  Elec       q    Type
REMARK                         _______ _______ _______ _____ _____    ______ ____
ROOT
ATOM      1  N   UNL     1      35.297 -15.283 -22.880  0.00  0.00    -0.335 N 
ATOM      2  H   UNL     1      36.026 -14.924 -23.437  0.00  0.00    +0.147 HD
ENDROOT
BRANCH   1   3
ATOM      3  C   UNL     1      35.004 -16.660 -22.960  0.00  0.00    +0.045 C 
ATOM      4  C   UNL     1      34.975 -18.855 -21.952  0.00  0.00    +0.001 C 
ATOM      5  C   UNL     1      35.265 -17.493 -21.872  0.00  0.00    +0.014 C 
ATOM      6  C   UNL     1      34.453 -17.190 -24.127  0.00  0.00    +0.014 C 
ATOM      7  C   UNL     1      34.425 -19.385 -23.119  0.00  0.00    +0.000 C 
ATOM      8  C   UNL     1      34.164 -18.551 -24.207  0.00  0.00    +0.001 C 
BRANCH   4   9
ATOM      9  C   UNL     1      35.247 -19.719 -20.823  0.00  0.00    +0.000 C 
ATOM     10  C   UNL     1      34.223 -20.492 -20.274  0.00  0.00    +0.006 C 
ATOM     11  C   UNL     1      36.532 -19.778 -20.285  0.00  0.00    +0.000 C 
ATOM     12  C   UNL     1      34.486 -21.324 -19.186  0.00  0.00    +0.075 C 
ATOM     13  C   UNL     1      36.794 -20.610 -19.196  0.00  0.00    +0.000 C 
ATOM     14  C   UNL     1      35.771 -21.384 -18.647  0.00  0.00    +0.006 C 
BRANCH  12  16
ATOM     15  O   UNL     1      32.293 -21.722 -18.314  0.00  0.00    -0.245 OA
ATOM     16  C   UNL     1      33.420 -22.131 -18.613  0.00  0.00    +0.338 C 
BRANCH  16  17
ATOM     17  O   UNL     1      33.792 -23.429 -18.428  0.00  0.00    -0.477 OA
ATOM     18  H   UNL     1      34.291 -23.670 -17.674  0.00  0.00    +0.295 HD
ENDBRANCH  16  17
ENDBRANCH  12  16
ENDBRANCH   4   9
ENDBRANCH   1   3
BRANCH   1  19
ATOM     19  C   UNL     1      34.585 -14.384 -22.025  0.00  0.00    +0.064 C 
BRANCH  19  20
ATOM     20  C   UNL     1      33.429 -13.756 -22.792  0.00  0.00    -0.060 C 
BRANCH  20  21
ATOM     21  N   UNL     1      32.486 -13.135 -21.870  0.00  0.00    +0.387 N 
ATOM     22  H   UNL     1      31.539 -13.423 -22.116  0.00  0.00    -0.084 HD
ATOM     23  H   UNL     1      32.713 -13.432 -20.921  0.00  0.00    -0.084 HD
BRANCH  21  24
ATOM     24  C   UNL     1      32.575 -11.683 -21.937  0.00  0.00    -0.047 C 
BRANCH  24  25
ATOM     25  C   UNL     1      31.735 -11.034 -20.830  0.00  0.00    +0.112 C 
BRANCH  25  27
ATOM     26 CL   UNL     1      30.855  -6.743 -23.632  0.00  0.00    -0.082 Cl
ATOM     27  C   UNL     1      31.762  -9.524 -20.927  0.00  0.00    +0.003 C 
ATOM     28  C   UNL     1      31.345  -8.915 -22.097  0.00  0.00    +0.009 C 
ATOM     29  C   UNL     1      32.201  -8.785 -19.842  0.00  0.00    -0.002 C 
ATOM     30  C   UNL     1      31.369  -7.522 -22.186  0.00  0.00    +0.057 C 
ATOM     31  C   UNL     1      32.225  -7.394 -19.931  0.00  0.00    +0.001 C 
ATOM     32  C   UNL     1      31.809  -6.762 -21.102  0.00  0.00    +0.011 C 
ENDBRANCH  25  27
BRANCH  25  33
ATOM     33  O   UNL     1      30.378 -11.462 -20.924  0.00  0.00    -0.382 OA
ATOM     34  H   UNL     1      29.842 -10.987 -20.270  0.00  0.00    +0.211 HD
ENDBRANCH  25  33
ENDBRANCH  24  25
ENDBRANCH  21  24
ENDBRANCH  20  21
ENDBRANCH  19  20
ENDBRANCH   1  19
TORSDOF 11
ENDMDL
MODEL 6
REMARK VINA RESULT:     -10.8      6.354     12.058
REMARK  Name = 9887812
REMARK  11 active torsions:
REMARK  status: ('A' for Active; 'I' for Inactive)
REMARK    1  A    between atoms: N_1  and  C_3
REMARK    2  A    between atoms: N_1  and  C_19
REMARK    3  A    between atoms: C_4  and  C_9
REMARK    4  A    between atoms: C_12  and  C_16
REMARK    5  A    between atoms: C_16  and  O_17
REMARK    6  A    between atoms: C_19  and  C_20
REMARK    7  A    between atoms: C_20  and  N_21
REMARK    8  A    between atoms: N_21  and  C_24
REMARK    9  A    between atoms: C_24  and  C_25
REMARK   10  A    between atoms: C_25  and  C_27
REMARK   11  A    between atoms: C_25  and  O_33
REMARK                            x       y       z     vdW  Elec       q    Type
REMARK                         _______ _______ _______ _____ _____    ______ ____
ROOT
ATOM      1  N   UNL     1      35.229 -15.244 -22.475  0.00  0.00    -0.335 N 
ATOM      2  H   UNL     1      35.791 -14.781 -23.138  0.00  0.00    +0.147 HD
ENDROOT
BRANCH   1   3
ATOM      3  C   UNL     1      34.997 -16.625 -22.636  0.00  0.00    +0.045 C 
ATOM      4  C   UNL     1      35.019 -18.870 -21.741  0.00  0.00    +0.001 C 
ATOM      5  C   UNL     1      35.248 -17.503 -21.581  0.00  0.00    +0.014 C 
ATOM      6  C   UNL     1      34.518 -17.116 -23.851  0.00  0.00    +0.014 C 
ATOM      7  C   UNL     1      34.540 -19.360 -22.956  0.00  0.00    +0.000 C 
ATOM      8  C   UNL     1      34.290 -18.482 -24.012  0.00  0.00    +0.001 C 
BRANCH   4   9
ATOM      9  C   UNL     1      35.280 -19.779 -20.647  0.00  0.00    +0.000 C 
ATOM     10  C   UNL     1      34.257 -20.589 -20.153  0.00  0.00    +0.006 C 
ATOM     11  C   UNL     1      36.555 -19.846 -20.086  0.00  0.00    +0.000 C 
ATOM     12  C   UNL     1      34.509 -21.465 -19.098  0.00  0.00    +0.075 C 
ATOM     13  C   UNL     1      36.807 -20.722 -19.030  0.00  0.00    +0.000 C 
ATOM     14  C   UNL     1      35.784 -21.532 -18.536  0.00  0.00    +0.006 C 
BRANCH  12  16
ATOM     15  O   UNL     1      32.357 -21.910 -18.151  0.00  0.00    -0.245 OA
ATOM     16  C   UNL     1      33.443 -22.310 -18.583  0.00  0.00    +0.338 C 
BRANCH  16  17
ATOM     17  O   UNL     1      33.764 -23.633 -18.621  0.00  0.00    -0.477 OA
ATOM     18  H   UNL     1      34.588 -23.905 -18.973  0.00  0.00    +0.295 HD
ENDBRANCH  16  17
ENDBRANCH  12  16
ENDBRANCH   4   9
ENDBRANCH   1   3
BRANCH   1  19
ATOM     19  C   UNL     1      34.686 -14.486 -21.390  0.00  0.00    +0.064 C 
BRANCH  19  20
ATOM     20  C   UNL     1      33.757 -13.408 -21.934  0.00  0.00    -0.060 C 
BRANCH  20  21
ATOM     21  N   UNL     1      34.433 -12.629 -22.965  0.00  0.00    +0.387 N 
ATOM     22  H   UNL     1      35.088 -11.985 -22.520  0.00  0.00    -0.084 HD
ATOM     23  H   UNL     1      34.928 -13.269 -23.585  0.00  0.00    -0.084 HD
BRANCH  21  24
ATOM     24  C   UNL     1      33.473 -11.867 -23.752  0.00  0.00    -0.047 C 
BRANCH  24  25
ATOM     25  C   UNL     1      33.939 -10.415 -23.921  0.00  0.00    +0.112 C 
BRANCH  25  27
ATOM     26 CL   UNL     1      33.098  -5.578 -22.208  0.00  0.00    -0.082 Cl
ATOM     27  C   UNL     1      33.201  -9.485 -22.983  0.00  0.00    +0.003 C 
ATOM     28  C   UNL     1      33.466  -8.127 -23.030  0.00  0.00    +0.009 C 
ATOM     29  C   UNL     1      32.276 -10.011 -22.098  0.00  0.00    -0.002 C 
ATOM     30  C   UNL     1      32.785  -7.270 -22.166  0.00  0.00    +0.057 C 
ATOM     31  C   UNL     1      31.595  -9.154 -21.234  0.00  0.00    +0.001 C 
ATOM     32  C   UNL     1      31.849  -7.784 -21.268  0.00  0.00    +0.011 C 
ENDBRANCH  25  27
BRANCH  25  33
ATOM     33  O   UNL     1      35.335 -10.308 -23.648  0.00  0.00    -0.382 OA
ATOM     34  H   UNL     1      35.809 -11.021 -24.104  0.00  0.00    +0.211 HD
ENDBRANCH  25  33
ENDBRANCH  24  25
ENDBRANCH  21  24
ENDBRANCH  20  21
ENDBRANCH  19  20
ENDBRANCH   1  19
TORSDOF 11
ENDMDL
MODEL 7
REMARK VINA RESULT:     -10.8      3.589     10.097
REMARK  Name = 9887812
REMARK  11 active torsions:
REMARK  status: ('A' for Active; 'I' for Inactive)
REMARK    1  A    between atoms: N_1  and  C_3
REMARK    2  A    between atoms: N_1  and  C_19
REMARK    3  A    between atoms: C_4  and  C_9
REMARK    4  A    between atoms: C_12  and  C_16
REMARK    5  A    between atoms: C_16  and  O_17
REMARK    6  A    between atoms: C_19  and  C_20
REMARK    7  A    between atoms: C_20  and  N_21
REMARK    8  A    between atoms: N_21  and  C_24
REMARK    9  A    between atoms: C_24  and  C_25
REMARK   10  A    between atoms: C_25  and  C_27
REMARK   11  A    between atoms: C_25  and  O_33
REMARK                            x       y       z     vdW  Elec       q    Type
REMARK                         _______ _______ _______ _____ _____    ______ ____
ROOT
ATOM      1  N   UNL     1      32.626 -22.455 -18.012  0.00  0.00    -0.335 N 
ATOM      2  H   UNL     1      31.834 -22.474 -18.596  0.00  0.00    +0.147 HD
ENDROOT
BRANCH   1   3
ATOM      3  C   UNL     1      32.480 -22.850 -16.666  0.00  0.00    +0.045 C 
ATOM      4  C   UNL     1      33.425 -23.763 -14.638  0.00  0.00    +0.001 C 
ATOM      5  C   UNL     1      33.570 -23.372 -15.970  0.00  0.00    +0.014 C 
ATOM      6  C   UNL     1      31.245 -22.719 -16.031  0.00  0.00    +0.014 C 
ATOM      7  C   UNL     1      32.190 -23.632 -14.003  0.00  0.00    +0.000 C 
ATOM      8  C   UNL     1      31.099 -23.111 -14.700  0.00  0.00    +0.001 C 
BRANCH   4   9
ATOM      9  C   UNL     1      34.556 -24.305 -13.916  0.00  0.00    +0.000 C 
ATOM     10  C   UNL     1      35.443 -25.170 -14.557  0.00  0.00    +0.006 C 
ATOM     11  C   UNL     1      34.758 -23.961 -12.580  0.00  0.00    +0.000 C 
ATOM     12  C   UNL     1      36.532 -25.692 -13.860  0.00  0.00    +0.075 C 
ATOM     13  C   UNL     1      35.848 -24.484 -11.883  0.00  0.00    +0.000 C 
ATOM     14  C   UNL     1      36.736 -25.350 -12.524  0.00  0.00    +0.006 C 
BRANCH  12  16
ATOM     15  O   UNL     1      38.612 -26.837 -14.158  0.00  0.00    -0.245 OA
ATOM     16  C   UNL     1      37.458 -26.594 -14.527  0.00  0.00    +0.338 C 
BRANCH  16  17
ATOM     17  O   UNL     1      36.918 -27.168 -15.638  0.00  0.00    -0.477 OA
ATOM     18  H   UNL     1      36.081 -26.886 -15.950  0.00  0.00    +0.295 HD
ENDBRANCH  16  17
ENDBRANCH  12  16
ENDBRANCH   4   9
ENDBRANCH   1   3
BRANCH   1  19
ATOM     19  C   UNL     1      33.875 -22.030 -18.566  0.00  0.00    +0.064 C 
BRANCH  19  20
ATOM     20  C   UNL     1      33.644 -20.850 -19.501  0.00  0.00    -0.060 C 
BRANCH  20  21
ATOM     21  N   UNL     1      34.909 -20.195 -19.814  0.00  0.00    +0.387 N 
ATOM     22  H   UNL     1      35.067 -19.440 -19.147  0.00  0.00    -0.084 HD
ATOM     23  H   UNL     1      35.657 -20.886 -19.754  0.00  0.00    -0.084 HD
BRANCH  21  24
ATOM     24  C   UNL     1      34.889 -19.645 -21.162  0.00  0.00    -0.047 C 
BRANCH  24  25
ATOM     25  C   UNL     1      36.004 -18.607 -21.343  0.00  0.00    +0.112 C 
BRANCH  25  27
ATOM     26 CL   UNL     1      34.305 -15.514 -25.162  0.00  0.00    -0.082 Cl
ATOM     27  C   UNL     1      35.449 -17.267 -21.771  0.00  0.00    +0.003 C 
ATOM     28  C   UNL     1      35.171 -17.047 -23.109  0.00  0.00    +0.009 C 
ATOM     29  C   UNL     1      35.228 -16.290 -20.815  0.00  0.00    -0.002 C 
ATOM     30  C   UNL     1      34.657 -15.811 -23.503  0.00  0.00    +0.057 C 
ATOM     31  C   UNL     1      34.715 -15.055 -21.210  0.00  0.00    +0.001 C 
ATOM     32  C   UNL     1      34.429 -14.815 -22.553  0.00  0.00    +0.011 C 
ENDBRANCH  25  27
BRANCH  25  33
ATOM     33  O   UNL     1      36.713 -18.425 -20.119  0.00  0.00    -0.382 OA
ATOM     34  H   UNL     1      37.263 -17.628 -20.178  0.00  0.00    +0.211 HD
ENDBRANCH  25  33
ENDBRANCH  24  25
ENDBRANCH  21  24
ENDBRANCH  20  21
ENDBRANCH  19  20
ENDBRANCH   1  19
TORSDOF 11
ENDMDL
MODEL 8
REMARK VINA RESULT:     -10.8      1.723      2.276
REMARK  Name = 9887812
REMARK  11 active torsions:
REMARK  status: ('A' for Active; 'I' for Inactive)
REMARK    1  A    between atoms: N_1  and  C_3
REMARK    2  A    between atoms: N_1  and  C_19
REMARK    3  A    between atoms: C_4  and  C_9
REMARK    4  A    between atoms: C_12  and  C_16
REMARK    5  A    between atoms: C_16  and  O_17
REMARK    6  A    between atoms: C_19  and  C_20
REMARK    7  A    between atoms: C_20  and  N_21
REMARK    8  A    between atoms: N_21  and  C_24
REMARK    9  A    between atoms: C_24  and  C_25
REMARK   10  A    between atoms: C_25  and  C_27
REMARK   11  A    between atoms: C_25  and  O_33
REMARK                            x       y       z     vdW  Elec       q    Type
REMARK                         _______ _______ _______ _____ _____    ______ ____
ROOT
ATOM      1  N   UNL     1      32.820 -22.120 -18.366  0.00  0.00    -0.335 N 
ATOM      2  H   UNL     1      31.984 -21.971 -18.863  0.00  0.00    +0.147 HD
ENDROOT
BRANCH   1   3
ATOM      3  C   UNL     1      34.005 -21.527 -18.849  0.00  0.00    +0.045 C 
ATOM      4  C   UNL     1      35.111 -19.881 -20.229  0.00  0.00    +0.001 C 
ATOM      5  C   UNL     1      33.938 -20.467 -19.752  0.00  0.00    +0.014 C 
ATOM      6  C   UNL     1      35.246 -22.003 -18.424  0.00  0.00    +0.014 C 
ATOM      7  C   UNL     1      36.352 -20.357 -19.804  0.00  0.00    +0.000 C 
ATOM      8  C   UNL     1      36.419 -21.418 -18.901  0.00  0.00    +0.001 C 
BRANCH   4   9
ATOM      9  C   UNL     1      35.040 -18.781 -21.166  0.00  0.00    +0.000 C 
ATOM     10  C   UNL     1      34.396 -18.949 -22.393  0.00  0.00    +0.006 C 
ATOM     11  C   UNL     1      35.617 -17.553 -20.843  0.00  0.00    +0.000 C 
ATOM     12  C   UNL     1      34.329 -17.888 -23.295  0.00  0.00    +0.075 C 
ATOM     13  C   UNL     1      35.549 -16.492 -21.747  0.00  0.00    +0.000 C 
ATOM     14  C   UNL     1      34.905 -16.660 -22.973  0.00  0.00    +0.006 C 
BRANCH  12  16
ATOM     15  O   UNL     1      33.453 -17.169 -25.402  0.00  0.00    -0.245 OA
ATOM     16  C   UNL     1      33.657 -18.062 -24.573  0.00  0.00    +0.338 C 
BRANCH  16  17
ATOM     17  O   UNL     1      33.256 -19.347 -24.781  0.00  0.00    -0.477 OA
ATOM     18  H   UNL     1      32.578 -19.717 -24.252  0.00  0.00    +0.295 HD
ENDBRANCH  16  17
ENDBRANCH  12  16
ENDBRANCH   4   9
ENDBRANCH   1   3
BRANCH   1  19
ATOM     19  C   UNL     1      32.779 -22.926 -17.185  0.00  0.00    +0.064 C 
BRANCH  19  20
ATOM     20  C   UNL     1      31.454 -22.712 -16.466  0.00  0.00    -0.060 C 
BRANCH  20  21
ATOM     21  N   UNL     1      31.341 -23.619 -15.330  0.00  0.00    +0.387 N 
ATOM     22  H   UNL     1      30.378 -23.617 -14.996  0.00  0.00    -0.084 HD
ATOM     23  H   UNL     1      31.610 -24.555 -15.632  0.00  0.00    -0.084 HD
BRANCH  21  24
ATOM     24  C   UNL     1      32.223 -23.208 -14.247  0.00  0.00    -0.047 C 
BRANCH  24  25
ATOM     25  C   UNL     1      33.104 -24.376 -13.787  0.00  0.00    +0.112 C 
BRANCH  25  27
ATOM     26 CL   UNL     1      37.631 -22.552 -15.582  0.00  0.00    -0.082 Cl
ATOM     27  C   UNL     1      34.520 -23.925 -13.504  0.00  0.00    +0.003 C 
ATOM     28  C   UNL     1      35.317 -23.501 -14.554  0.00  0.00    +0.009 C 
ATOM     29  C   UNL     1      34.987 -23.943 -12.201  0.00  0.00    -0.002 C 
ATOM     30  C   UNL     1      36.622 -23.083 -14.292  0.00  0.00    +0.057 C 
ATOM     31  C   UNL     1      36.292 -23.526 -11.940  0.00  0.00    +0.001 C 
ATOM     32  C   UNL     1      37.109 -23.096 -12.985  0.00  0.00    +0.011 C 
ENDBRANCH  25  27
BRANCH  25  33
ATOM     33  O   UNL     1      32.575 -24.956 -12.596  0.00  0.00    -0.382 OA
ATOM     34  H   UNL     1      31.910 -24.361 -12.214  0.00  0.00    +0.211 HD
ENDBRANCH  25  33
ENDBRANCH  24  25
ENDBRANCH  21  24
ENDBRANCH  20  21
ENDBRANCH  19  20
ENDBRANCH   1  19
TORSDOF 11
ENDMDL
MODEL 9
REMARK VINA RESULT:     -10.8      4.052      9.931
REMARK  Name = 9887812
REMARK  11 active torsions:
REMARK  status: ('A' for Active; 'I' for Inactive)
REMARK    1  A    between atoms: N_1  and  C_3
REMARK    2  A    between atoms: N_1  and  C_19
REMARK    3  A    between atoms: C_4  and  C_9
REMARK    4  A    between atoms: C_12  and  C_16
REMARK    5  A    between atoms: C_16  and  O_17
REMARK    6  A    between atoms: C_19  and  C_20
REMARK    7  A    between atoms: C_20  and  N_21
REMARK    8  A    between atoms: N_21  and  C_24
REMARK    9  A    between atoms: C_24  and  C_25
REMARK   10  A    between atoms: C_25  and  C_27
REMARK   11  A    between atoms: C_25  and  O_33
REMARK                            x       y       z     vdW  Elec       q    Type
REMARK                         _______ _______ _______ _____ _____    ______ ____
ROOT
ATOM      1  N   UNL     1      34.634 -22.276 -18.857  0.00  0.00    -0.335 N 
ATOM      2  H   UNL     1      35.119 -22.935 -19.405  0.00  0.00    +0.147 HD
ENDROOT
BRANCH   1   3
ATOM      3  C   UNL     1      34.368 -22.587 -17.508  0.00  0.00    +0.045 C 
ATOM      4  C   UNL     1      32.805 -23.196 -15.769  0.00  0.00    +0.001 C 
ATOM      5  C   UNL     1      33.068 -22.889 -17.105  0.00  0.00    +0.014 C 
ATOM      6  C   UNL     1      35.405 -22.591 -16.575  0.00  0.00    +0.014 C 
ATOM      7  C   UNL     1      33.842 -23.201 -14.837  0.00  0.00    +0.000 C 
ATOM      8  C   UNL     1      35.143 -22.897 -15.240  0.00  0.00    +0.001 C 
BRANCH   4   9
ATOM      9  C   UNL     1      31.456 -23.510 -15.352  0.00  0.00    +0.000 C 
ATOM     10  C   UNL     1      30.369 -23.012 -16.072  0.00  0.00    +0.006 C 
ATOM     11  C   UNL     1      31.242 -24.309 -14.229  0.00  0.00    +0.000 C 
ATOM     12  C   UNL     1      29.069 -23.315 -15.668  0.00  0.00    +0.075 C 
ATOM     13  C   UNL     1      29.941 -24.611 -13.825  0.00  0.00    +0.000 C 
ATOM     14  C   UNL     1      28.854 -24.114 -14.545  0.00  0.00    +0.006 C 
BRANCH  12  16
ATOM     15  O   UNL     1      27.491 -21.647 -16.343  0.00  0.00    -0.245 OA
ATOM     16  C   UNL     1      27.935 -22.798 -16.418  0.00  0.00    +0.338 C 
BRANCH  16  17
ATOM     17  O   UNL     1      27.385 -23.733 -17.242  0.00  0.00    -0.477 OA
ATOM     18  H   UNL     1      26.580 -24.148 -17.007  0.00  0.00    +0.295 HD
ENDBRANCH  16  17
ENDBRANCH  12  16
ENDBRANCH   4   9
ENDBRANCH   1   3
BRANCH   1  19
ATOM     19  C   UNL     1      34.235 -21.044 -19.464  0.00  0.00    +0.064 C 
BRANCH  19  20
ATOM     20  C   UNL     1      35.465 -20.293 -19.956  0.00  0.00    -0.060 C 
BRANCH  20  21
ATOM     21  N   UNL     1      35.076 -19.034 -20.578  0.00  0.00    +0.387 N 
ATOM     22  H   UNL     1      34.261 -18.659 -20.092  0.00  0.00    -0.084 HD
ATOM     23  H   UNL     1      35.858 -18.383 -20.515  0.00  0.00    -0.084 HD
BRANCH  21  24
ATOM     24  C   UNL     1      34.745 -19.229 -21.983  0.00  0.00    -0.047 C 
BRANCH  24  25
ATOM     25  C   UNL     1      35.668 -18.396 -22.881  0.00  0.00    +0.112 C 
BRANCH  25  27
ATOM     26 CL   UNL     1      34.554 -13.390 -22.020  0.00  0.00    -0.082 Cl
ATOM     27  C   UNL     1      34.991 -17.123 -23.342  0.00  0.00    +0.003 C 
ATOM     28  C   UNL     1      35.080 -15.988 -22.556  0.00  0.00    +0.009 C 
ATOM     29  C   UNL     1      34.300 -17.122 -24.541  0.00  0.00    -0.002 C 
ATOM     30  C   UNL     1      34.456 -14.814 -22.982  0.00  0.00    +0.057 C 
ATOM     31  C   UNL     1      33.676 -15.949 -24.967  0.00  0.00    +0.001 C 
ATOM     32  C   UNL     1      33.755 -14.795 -24.187  0.00  0.00    +0.011 C 
ENDBRANCH  25  27
BRANCH  25  33
ATOM     33  O   UNL     1      36.854 -18.039 -22.175  0.00  0.00    -0.382 OA
ATOM     34  H   UNL     1      36.971 -17.076 -22.202  0.00  0.00    +0.211 HD
ENDBRANCH  25  33
ENDBRANCH  24  25
ENDBRANCH  21  24
ENDBRANCH  20  21
ENDBRANCH  19  20
ENDBRANCH   1  19
TORSDOF 11
ENDMDL
