MODEL 1
REMARK VINA RESULT:     -12.9      0.000      0.000
REMARK  Name = 10157080
REMARK  5 active torsions:
REMARK  status: ('A' for Active; 'I' for Inactive)
REMARK    1  A    between atoms: C_3  and  O_8
REMARK    2  A    between atoms: C_6  and  O_18
REMARK    3  A    between atoms: O_8  and  C_13
REMARK    4  A    between atoms: O_18  and  C_20
REMARK    5  A    between atoms: C_19  and  N_25
REMARK                            x       y       z     vdW  Elec       q    Type
REMARK                         _______ _______ _______ _____ _____    ______ ____
ROOT
ATOM      1  N   UNL     1      34.624 -23.139 -16.220  0.00  0.00    -0.277 NA
ATOM      2  N   UNL     1      32.253 -23.197 -16.649  0.00  0.00    -0.319 NA
ATOM      3  C   UNL     1      34.335 -23.042 -14.912  0.00  0.00    +0.278 C 
ATOM      4  C   UNL     1      33.064 -23.014 -14.390  0.00  0.00    +0.156 C 
ATOM      5  C   UNL     1      32.047 -23.096 -15.319  0.00  0.00    +0.113 C 
ATOM      6  C   UNL     1      33.547 -23.212 -17.024  0.00  0.00    +0.317 C 
ATOM      7  C   UNL     1      30.628 -23.076 -14.860  0.00  0.00    +0.063 C 
ENDROOT
BRANCH   3   8
ATOM      8  O   UNL     1      35.411 -22.967 -14.046  0.00  0.00    -0.429 OA
BRANCH   8  13
ATOM      9  O   UNL     1      39.955 -24.572 -14.205  0.00  0.00    -0.435 OA
ATOM     10  O   UNL     1      39.231 -26.870 -14.271  0.00  0.00    -0.435 OA
ATOM     11  C   UNL     1      38.600 -24.688 -14.179  0.00  0.00    +0.179 C 
ATOM     12  C   UNL     1      38.186 -26.000 -14.216  0.00  0.00    +0.177 C 
ATOM     13  C   UNL     1      36.339 -23.963 -14.103  0.00  0.00    +0.151 C 
ATOM     14  C   UNL     1      37.698 -23.645 -14.121  0.00  0.00    +0.078 C 
ATOM     15  C   UNL     1      36.849 -26.342 -14.199  0.00  0.00    +0.043 C 
ATOM     16  C   UNL     1      35.916 -25.304 -14.141  0.00  0.00    +0.041 C 
ATOM     17  C   UNL     1      40.349 -25.959 -14.262  0.00  0.00    +0.429 C 
ENDBRANCH   8  13
ENDBRANCH   3   8
BRANCH   6  18
ATOM     18  O   UNL     1      33.794 -23.310 -18.374  0.00  0.00    -0.375 OA
BRANCH  18  20
ATOM     19  C   UNL     1      34.648 -19.792 -20.404  0.00  0.00    +0.057 C 
ATOM     20  C   UNL     1      34.078 -22.142 -19.048  0.00  0.00    +0.161 C 
ATOM     21  C   UNL     1      33.323 -20.144 -20.147  0.00  0.00    +0.018 C 
ATOM     22  C   UNL     1      35.686 -20.621 -19.978  0.00  0.00    +0.018 C 
ATOM     23  C   UNL     1      33.036 -21.327 -19.465  0.00  0.00    +0.040 C 
ATOM     24  C   UNL     1      35.399 -21.802 -19.295  0.00  0.00    +0.040 C 
BRANCH  19  25
ATOM     25  N   UNL     1      34.933 -18.620 -21.081  0.00  0.00    -0.246 N 
ATOM     26  N   UNL     1      35.516 -16.496 -21.430  0.00  0.00    -0.224 NA
ATOM     27  C   UNL     1      34.887 -18.426 -22.439  0.00  0.00    +0.092 C 
ATOM     28  C   UNL     1      35.317 -17.426 -20.522  0.00  0.00    +0.172 C 
ATOM     29  C   UNL     1      35.249 -17.114 -22.626  0.00  0.00    +0.117 C 
ENDBRANCH  19  25
ENDBRANCH  18  20
ENDBRANCH   6  18
TORSDOF 5
ENDMDL
MODEL 2
REMARK VINA RESULT:     -12.3      2.558      5.630
REMARK  Name = 10157080
REMARK  5 active torsions:
REMARK  status: ('A' for Active; 'I' for Inactive)
REMARK    1  A    between atoms: C_3  and  O_8
REMARK    2  A    between atoms: C_6  and  O_18
REMARK    3  A    between atoms: O_8  and  C_13
REMARK    4  A    between atoms: O_18  and  C_20
REMARK    5  A    between atoms: C_19  and  N_25
REMARK                            x       y       z     vdW  Elec       q    Type
REMARK                         _______ _______ _______ _____ _____    ______ ____
ROOT
ATOM      1  N   UNL     1      33.294 -23.233 -16.078  0.00  0.00    -0.277 NA
ATOM      2  N   UNL     1      35.660 -22.923 -16.426  0.00  0.00    -0.319 NA
ATOM      3  C   UNL     1      33.528 -23.149 -14.758  0.00  0.00    +0.278 C 
ATOM      4  C   UNL     1      34.764 -22.959 -14.191  0.00  0.00    +0.156 C 
ATOM      5  C   UNL     1      35.809 -22.851 -15.087  0.00  0.00    +0.113 C 
ATOM      6  C   UNL     1      34.394 -23.113 -16.846  0.00  0.00    +0.317 C 
ATOM      7  C   UNL     1      37.195 -22.642 -14.577  0.00  0.00    +0.063 C 
ENDROOT
BRANCH   3   8
ATOM      8  O   UNL     1      32.427 -23.264 -13.928  0.00  0.00    -0.429 OA
BRANCH   8  13
ATOM      9  O   UNL     1      28.599 -22.036 -16.592  0.00  0.00    -0.435 OA
ATOM     10  O   UNL     1      27.597 -24.210 -16.308  0.00  0.00    -0.435 OA
ATOM     11  C   UNL     1      29.365 -22.864 -15.830  0.00  0.00    +0.179 C 
ATOM     12  C   UNL     1      28.793 -24.105 -15.668  0.00  0.00    +0.177 C 
ATOM     13  C   UNL     1      31.223 -23.531 -14.508  0.00  0.00    +0.151 C 
ATOM     14  C   UNL     1      30.582 -22.546 -15.262  0.00  0.00    +0.078 C 
ATOM     15  C   UNL     1      29.405 -25.096 -14.928  0.00  0.00    +0.043 C 
ATOM     16  C   UNL     1      30.638 -24.799 -14.343  0.00  0.00    +0.041 C 
ATOM     17  C   UNL     1      27.481 -22.897 -16.892  0.00  0.00    +0.429 C 
ENDBRANCH   8  13
ENDBRANCH   3   8
BRANCH   6  18
ATOM     18  O   UNL     1      34.204 -23.195 -18.206  0.00  0.00    -0.375 OA
BRANCH  18  20
ATOM     19  C   UNL     1      34.768 -19.725 -20.412  0.00  0.00    +0.057 C 
ATOM     20  C   UNL     1      34.392 -22.043 -18.938  0.00  0.00    +0.161 C 
ATOM     21  C   UNL     1      33.477 -20.143 -20.087  0.00  0.00    +0.018 C 
ATOM     22  C   UNL     1      35.869 -20.473 -19.995  0.00  0.00    +0.018 C 
ATOM     23  C   UNL     1      33.287 -21.309 -19.345  0.00  0.00    +0.040 C 
ATOM     24  C   UNL     1      35.680 -21.638 -19.254  0.00  0.00    +0.040 C 
BRANCH  19  25
ATOM     25  N   UNL     1      34.955 -18.569 -21.148  0.00  0.00    -0.246 N 
ATOM     26  N   UNL     1      35.048 -17.204 -22.908  0.00  0.00    -0.224 NA
ATOM     27  C   UNL     1      35.333 -17.342 -20.663  0.00  0.00    +0.092 C 
ATOM     28  C   UNL     1      34.797 -18.429 -22.505  0.00  0.00    +0.172 C 
ATOM     29  C   UNL     1      35.383 -16.522 -21.766  0.00  0.00    +0.117 C 
ENDBRANCH  19  25
ENDBRANCH  18  20
ENDBRANCH   6  18
TORSDOF 5
ENDMDL
MODEL 3
REMARK VINA RESULT:     -11.9      4.233      8.259
REMARK  Name = 10157080
REMARK  5 active torsions:
REMARK  status: ('A' for Active; 'I' for Inactive)
REMARK    1  A    between atoms: C_3  and  O_8
REMARK    2  A    between atoms: C_6  and  O_18
REMARK    3  A    between atoms: O_8  and  C_13
REMARK    4  A    between atoms: O_18  and  C_20
REMARK    5  A    between atoms: C_19  and  N_25
REMARK                            x       y       z     vdW  Elec       q    Type
REMARK                         _______ _______ _______ _____ _____    ______ ____
ROOT
ATOM      1  N   UNL     1      35.803 -17.510 -21.859  0.00  0.00    -0.277 NA
ATOM      2  N   UNL     1      34.439 -17.099 -23.804  0.00  0.00    -0.319 NA
ATOM      3  C   UNL     1      35.395 -18.788 -21.904  0.00  0.00    +0.278 C 
ATOM      4  C   UNL     1      34.530 -19.303 -22.839  0.00  0.00    +0.156 C 
ATOM      5  C   UNL     1      34.077 -18.399 -23.779  0.00  0.00    +0.113 C 
ATOM      6  C   UNL     1      35.292 -16.728 -22.829  0.00  0.00    +0.317 C 
ATOM      7  C   UNL     1      33.133 -18.853 -24.840  0.00  0.00    +0.063 C 
ENDROOT
BRANCH   3   8
ATOM      8  O   UNL     1      35.897 -19.631 -20.929  0.00  0.00    -0.429 OA
BRANCH   8  13
ATOM      9  O   UNL     1      34.751 -22.955 -17.628  0.00  0.00    -0.435 OA
ATOM     10  O   UNL     1      32.406 -22.423 -17.782  0.00  0.00    -0.435 OA
ATOM     11  C   UNL     1      34.504 -21.963 -18.526  0.00  0.00    +0.179 C 
ATOM     12  C   UNL     1      33.165 -21.659 -18.614  0.00  0.00    +0.177 C 
ATOM     13  C   UNL     1      35.002 -20.310 -20.158  0.00  0.00    +0.151 C 
ATOM     14  C   UNL     1      35.449 -21.305 -19.286  0.00  0.00    +0.078 C 
ATOM     15  C   UNL     1      32.696 -20.680 -19.467  0.00  0.00    +0.043 C 
ATOM     16  C   UNL     1      33.633 -19.999 -20.248  0.00  0.00    +0.041 C 
ATOM     17  C   UNL     1      33.417 -23.241 -17.160  0.00  0.00    +0.429 C 
ENDBRANCH   8  13
ENDBRANCH   3   8
BRANCH   6  18
ATOM     18  O   UNL     1      35.679 -15.408 -22.821  0.00  0.00    -0.375 OA
BRANCH  18  20
ATOM     19  C   UNL     1      32.999 -12.655 -21.252  0.00  0.00    +0.057 C 
ATOM     20  C   UNL     1      34.789 -14.494 -22.300  0.00  0.00    +0.161 C 
ATOM     21  C   UNL     1      33.325 -12.615 -22.607  0.00  0.00    +0.018 C 
ATOM     22  C   UNL     1      33.573 -13.620 -20.424  0.00  0.00    +0.018 C 
ATOM     23  C   UNL     1      34.226 -13.541 -23.135  0.00  0.00    +0.040 C 
ATOM     24  C   UNL     1      34.473 -14.545 -20.951  0.00  0.00    +0.040 C 
BRANCH  19  25
ATOM     25  N   UNL     1      32.107 -11.737 -20.728  0.00  0.00    -0.246 N 
ATOM     26  N   UNL     1      30.380 -10.331 -20.616  0.00  0.00    -0.224 NA
ATOM     27  C   UNL     1      32.112 -11.222 -19.456  0.00  0.00    +0.092 C 
ATOM     28  C   UNL     1      31.044 -11.166 -21.384  0.00  0.00    +0.172 C 
ATOM     29  C   UNL     1      31.042 -10.361 -19.414  0.00  0.00    +0.117 C 
ENDBRANCH  19  25
ENDBRANCH  18  20
ENDBRANCH   6  18
TORSDOF 5
ENDMDL
MODEL 4
REMARK VINA RESULT:     -11.3      3.666      7.402
REMARK  Name = 10157080
REMARK  5 active torsions:
REMARK  status: ('A' for Active; 'I' for Inactive)
REMARK    1  A    between atoms: C_3  and  O_8
REMARK    2  A    between atoms: C_6  and  O_18
REMARK    3  A    between atoms: O_8  and  C_13
REMARK    4  A    between atoms: O_18  and  C_20
REMARK    5  A    between atoms: C_19  and  N_25
REMARK                            x       y       z     vdW  Elec       q    Type
REMARK                         _______ _______ _______ _____ _____    ______ ____
ROOT
ATOM      1  N   UNL     1      34.425 -24.132 -14.079  0.00  0.00    -0.277 NA
ATOM      2  N   UNL     1      34.916 -23.780 -11.745  0.00  0.00    -0.319 NA
ATOM      3  C   UNL     1      35.632 -23.617 -14.360  0.00  0.00    +0.278 C 
ATOM      4  C   UNL     1      36.529 -23.165 -13.423  0.00  0.00    +0.156 C 
ATOM      5  C   UNL     1      36.112 -23.273 -12.112  0.00  0.00    +0.113 C 
ATOM      6  C   UNL     1      34.134 -24.184 -12.765  0.00  0.00    +0.317 C 
ATOM      7  C   UNL     1      37.011 -22.813 -11.014  0.00  0.00    +0.063 C 
ENDROOT
BRANCH   3   8
ATOM      8  O   UNL     1      35.977 -23.545 -15.698  0.00  0.00    -0.429 OA
BRANCH   8  13
ATOM      9  O   UNL     1      34.777 -20.791 -19.470  0.00  0.00    -0.435 OA
ATOM     10  O   UNL     1      32.436 -21.301 -19.207  0.00  0.00    -0.435 OA
ATOM     11  C   UNL     1      34.545 -21.629 -18.423  0.00  0.00    +0.179 C 
ATOM     12  C   UNL     1      33.208 -21.921 -18.274  0.00  0.00    +0.177 C 
ATOM     13  C   UNL     1      35.069 -23.001 -16.556  0.00  0.00    +0.151 C 
ATOM     14  C   UNL     1      35.501 -22.155 -17.580  0.00  0.00    +0.078 C 
ATOM     15  C   UNL     1      32.755 -22.754 -17.271  0.00  0.00    +0.043 C 
ATOM     16  C   UNL     1      33.703 -23.300 -16.403  0.00  0.00    +0.041 C 
ATOM     17  C   UNL     1      33.436 -20.588 -19.962  0.00  0.00    +0.429 C 
ENDBRANCH   8  13
ENDBRANCH   3   8
BRANCH   6  18
ATOM     18  O   UNL     1      32.905 -24.702 -12.428  0.00  0.00    -0.375 OA
BRANCH  18  20
ATOM     19  C   UNL     1      29.661 -23.541 -14.740  0.00  0.00    +0.057 C 
ATOM     20  C   UNL     1      31.828 -24.317 -13.195  0.00  0.00    +0.161 C 
ATOM     21  C   UNL     1      29.866 -24.891 -14.456  0.00  0.00    +0.018 C 
ATOM     22  C   UNL     1      30.544 -22.582 -14.247  0.00  0.00    +0.018 C 
ATOM     23  C   UNL     1      30.957 -25.282 -13.678  0.00  0.00    +0.040 C 
ATOM     24  C   UNL     1      31.634 -22.971 -13.469  0.00  0.00    +0.040 C 
BRANCH  19  25
ATOM     25  N   UNL     1      28.580 -23.155 -15.512  0.00  0.00    -0.246 N 
ATOM     26  N   UNL     1      27.159 -23.074 -17.228  0.00  0.00    -0.224 NA
ATOM     27  C   UNL     1      27.636 -22.213 -15.186  0.00  0.00    +0.092 C 
ATOM     28  C   UNL     1      28.245 -23.641 -16.751  0.00  0.00    +0.172 C 
ATOM     29  C   UNL     1      26.775 -22.183 -16.257  0.00  0.00    +0.117 C 
ENDBRANCH  19  25
ENDBRANCH  18  20
ENDBRANCH   6  18
TORSDOF 5
ENDMDL
MODEL 5
REMARK VINA RESULT:     -11.0      3.639      9.895
REMARK  Name = 10157080
REMARK  5 active torsions:
REMARK  status: ('A' for Active; 'I' for Inactive)
REMARK    1  A    between atoms: C_3  and  O_8
REMARK    2  A    between atoms: C_6  and  O_18
REMARK    3  A    between atoms: O_8  and  C_13
REMARK    4  A    between atoms: O_18  and  C_20
REMARK    5  A    between atoms: C_19  and  N_25
REMARK                            x       y       z     vdW  Elec       q    Type
REMARK                         _______ _______ _______ _____ _____    ______ ____
ROOT
ATOM      1  N   UNL     1      36.587 -19.790 -19.928  0.00  0.00    -0.277 NA
ATOM      2  N   UNL     1      34.762 -21.170 -19.172  0.00  0.00    -0.319 NA
ATOM      3  C   UNL     1      35.685 -19.045 -20.588  0.00  0.00    +0.278 C 
ATOM      4  C   UNL     1      34.332 -19.281 -20.600  0.00  0.00    +0.156 C 
ATOM      5  C   UNL     1      33.921 -20.373 -19.863  0.00  0.00    +0.113 C 
ATOM      6  C   UNL     1      36.062 -20.826 -19.247  0.00  0.00    +0.317 C 
ATOM      7  C   UNL     1      32.471 -20.718 -19.808  0.00  0.00    +0.063 C 
ENDROOT
BRANCH   3   8
ATOM      8  O   UNL     1      36.178 -17.966 -21.300  0.00  0.00    -0.429 OA
BRANCH   8  13
ATOM      9  O   UNL     1      34.116 -14.500 -23.945  0.00  0.00    -0.435 OA
ATOM     10  O   UNL     1      33.293 -16.098 -25.551  0.00  0.00    -0.435 OA
ATOM     11  C   UNL     1      34.463 -15.778 -23.628  0.00  0.00    +0.179 C 
ATOM     12  C   UNL     1      33.993 -16.690 -24.545  0.00  0.00    +0.177 C 
ATOM     13  C   UNL     1      35.455 -17.532 -22.370  0.00  0.00    +0.151 C 
ATOM     14  C   UNL     1      35.199 -16.168 -22.529  0.00  0.00    +0.078 C 
ATOM     15  C   UNL     1      34.232 -18.042 -24.413  0.00  0.00    +0.043 C 
ATOM     16  C   UNL     1      34.975 -18.464 -23.308  0.00  0.00    +0.041 C 
ATOM     17  C   UNL     1      33.376 -14.711 -25.165  0.00  0.00    +0.429 C 
ENDBRANCH   8  13
ENDBRANCH   3   8
BRANCH   6  18
ATOM     18  O   UNL     1      36.948 -21.620 -18.557  0.00  0.00    -0.375 OA
BRANCH  18  20
ATOM     19  C   UNL     1      35.802 -22.895 -14.778  0.00  0.00    +0.057 C 
ATOM     20  C   UNL     1      36.568 -22.044 -17.303  0.00  0.00    +0.161 C 
ATOM     21  C   UNL     1      34.879 -22.894 -15.823  0.00  0.00    +0.018 C 
ATOM     22  C   UNL     1      37.111 -22.469 -15.003  0.00  0.00    +0.018 C 
ATOM     23  C   UNL     1      35.264 -22.465 -17.094  0.00  0.00    +0.040 C 
ATOM     24  C   UNL     1      37.497 -22.041 -16.273  0.00  0.00    +0.040 C 
BRANCH  19  25
ATOM     25  N   UNL     1      35.420 -23.320 -13.518  0.00  0.00    -0.246 N 
ATOM     26  N   UNL     1      34.163 -24.202 -11.902  0.00  0.00    -0.224 NA
ATOM     27  C   UNL     1      36.159 -23.233 -12.365  0.00  0.00    +0.092 C 
ATOM     28  C   UNL     1      34.227 -23.910 -13.182  0.00  0.00    +0.172 C 
ATOM     29  C   UNL     1      35.363 -23.781 -11.388  0.00  0.00    +0.117 C 
ENDBRANCH  19  25
ENDBRANCH  18  20
ENDBRANCH   6  18
TORSDOF 5
ENDMDL
MODEL 6
REMARK VINA RESULT:     -10.9      1.928      2.931
REMARK  Name = 10157080
REMARK  5 active torsions:
REMARK  status: ('A' for Active; 'I' for Inactive)
REMARK    1  A    between atoms: C_3  and  O_8
REMARK    2  A    between atoms: C_6  and  O_18
REMARK    3  A    between atoms: O_8  and  C_13
REMARK    4  A    between atoms: O_18  and  C_20
REMARK    5  A    between atoms: C_19  and  N_25
REMARK                            x       y       z     vdW  Elec       q    Type
REMARK                         _______ _______ _______ _____ _____    ______ ____
ROOT
ATOM      1  N   UNL     1      34.838 -23.199 -16.715  0.00  0.00    -0.277 NA
ATOM      2  N   UNL     1      32.451 -22.967 -16.469  0.00  0.00    -0.319 NA
ATOM      3  C   UNL     1      34.925 -23.205 -15.375  0.00  0.00    +0.278 C 
ATOM      4  C   UNL     1      33.856 -23.098 -14.519  0.00  0.00    +0.156 C 
ATOM      5  C   UNL     1      32.625 -22.981 -15.131  0.00  0.00    +0.113 C 
ATOM      6  C   UNL     1      33.584 -23.079 -17.190  0.00  0.00    +0.317 C 
ATOM      7  C   UNL     1      31.396 -22.859 -14.294  0.00  0.00    +0.063 C 
ENDROOT
BRANCH   3   8
ATOM      8  O   UNL     1      36.195 -23.330 -14.839  0.00  0.00    -0.429 OA
BRANCH   8  13
ATOM      9  O   UNL     1      34.912 -25.130 -10.553  0.00  0.00    -0.435 OA
ATOM     10  O   UNL     1      36.533 -23.769  -9.400  0.00  0.00    -0.435 OA
ATOM     11  C   UNL     1      35.625 -24.343 -11.404  0.00  0.00    +0.179 C 
ATOM     12  C   UNL     1      36.550 -23.566 -10.746  0.00  0.00    +0.177 C 
ATOM     13  C   UNL     1      36.303 -23.416 -13.483  0.00  0.00    +0.151 C 
ATOM     14  C   UNL     1      35.477 -24.291 -12.775  0.00  0.00    +0.078 C 
ATOM     15  C   UNL     1      37.378 -22.693 -11.422  0.00  0.00    +0.043 C 
ATOM     16  C   UNL     1      37.249 -22.621 -12.811  0.00  0.00    +0.041 C 
ATOM     17  C   UNL     1      35.494 -24.762  -9.286  0.00  0.00    +0.429 C 
ENDBRANCH   8  13
ENDBRANCH   3   8
BRANCH   6  18
ATOM     18  O   UNL     1      33.445 -23.065 -18.559  0.00  0.00    -0.375 OA
BRANCH  18  20
ATOM     19  C   UNL     1      34.534 -19.583 -20.537  0.00  0.00    +0.057 C 
ATOM     20  C   UNL     1      33.806 -21.909 -19.216  0.00  0.00    +0.161 C 
ATOM     21  C   UNL     1      35.515 -20.478 -20.111  0.00  0.00    +0.018 C 
ATOM     22  C   UNL     1      33.188 -19.858 -20.299  0.00  0.00    +0.018 C 
ATOM     23  C   UNL     1      35.149 -21.649 -19.446  0.00  0.00    +0.040 C 
ATOM     24  C   UNL     1      32.821 -21.028 -19.635  0.00  0.00    +0.040 C 
BRANCH  19  25
ATOM     25  N   UNL     1      34.897 -18.422 -21.196  0.00  0.00    -0.246 N 
ATOM     26  N   UNL     1      35.370 -17.032 -22.873  0.00  0.00    -0.224 NA
ATOM     27  C   UNL     1      35.217 -17.219 -20.619  0.00  0.00    +0.092 C 
ATOM     28  C   UNL     1      35.006 -18.254 -22.554  0.00  0.00    +0.172 C 
ATOM     29  C   UNL     1      35.504 -16.383 -21.671  0.00  0.00    +0.117 C 
ENDBRANCH  19  25
ENDBRANCH  18  20
ENDBRANCH   6  18
TORSDOF 5
ENDMDL
MODEL 7
REMARK VINA RESULT:     -10.9      4.569      8.559
REMARK  Name = 10157080
REMARK  5 active torsions:
REMARK  status: ('A' for Active; 'I' for Inactive)
REMARK    1  A    between atoms: C_3  and  O_8
REMARK    2  A    between atoms: C_6  and  O_18
REMARK    3  A    between atoms: O_8  and  C_13
REMARK    4  A    between atoms: O_18  and  C_20
REMARK    5  A    between atoms: C_19  and  N_25
REMARK                            x       y       z     vdW  Elec       q    Type
REMARK                         _______ _______ _______ _____ _____    ______ ____
ROOT
ATOM      1  N   UNL     1      35.232 -17.358 -20.569  0.00  0.00    -0.277 NA
ATOM      2  N   UNL     1      34.669 -15.840 -22.355  0.00  0.00    -0.319 NA
ATOM      3  C   UNL     1      35.479 -18.289 -21.505  0.00  0.00    +0.278 C 
ATOM      4  C   UNL     1      35.350 -18.093 -22.858  0.00  0.00    +0.156 C 
ATOM      5  C   UNL     1      34.936 -16.831 -23.231  0.00  0.00    +0.113 C 
ATOM      6  C   UNL     1      34.835 -16.168 -21.059  0.00  0.00    +0.317 C 
ATOM      7  C   UNL     1      34.764 -16.511 -24.678  0.00  0.00    +0.063 C 
ENDROOT
BRANCH   3   8
ATOM      8  O   UNL     1      35.893 -19.528 -21.049  0.00  0.00    -0.429 OA
BRANCH   8  13
ATOM      9  O   UNL     1      34.908 -22.758 -17.606  0.00  0.00    -0.435 OA
ATOM     10  O   UNL     1      32.534 -22.423 -17.853  0.00  0.00    -0.435 OA
ATOM     11  C   UNL     1      34.612 -21.836 -18.563  0.00  0.00    +0.179 C 
ATOM     12  C   UNL     1      33.257 -21.645 -18.704  0.00  0.00    +0.177 C 
ATOM     13  C   UNL     1      35.030 -20.235 -20.268  0.00  0.00    +0.151 C 
ATOM     14  C   UNL     1      35.526 -21.145 -19.331  0.00  0.00    +0.078 C 
ATOM     15  C   UNL     1      32.740 -20.753 -19.621  0.00  0.00    +0.043 C 
ATOM     16  C   UNL     1      33.644 -20.040 -20.412  0.00  0.00    +0.041 C 
ATOM     17  C   UNL     1      33.586 -23.124 -17.160  0.00  0.00    +0.429 C 
ENDBRANCH   8  13
ENDBRANCH   3   8
BRANCH   6  18
ATOM     18  O   UNL     1      34.568 -15.183 -20.137  0.00  0.00    -0.375 OA
BRANCH  18  20
ATOM     19  C   UNL     1      32.911 -11.655 -21.561  0.00  0.00    +0.057 C 
ATOM     20  C   UNL     1      34.018 -14.011 -20.610  0.00  0.00    +0.161 C 
ATOM     21  C   UNL     1      32.326 -12.313 -20.480  0.00  0.00    +0.018 C 
ATOM     22  C   UNL     1      34.053 -12.182 -22.164  0.00  0.00    +0.018 C 
ATOM     23  C   UNL     1      32.883 -13.499 -20.000  0.00  0.00    +0.040 C 
ATOM     24  C   UNL     1      34.611 -13.367 -21.685  0.00  0.00    +0.040 C 
BRANCH  19  25
ATOM     25  N   UNL     1      32.358 -10.479 -22.036  0.00  0.00    -0.246 N 
ATOM     26  N   UNL     1      32.074  -8.663 -23.298  0.00  0.00    -0.224 NA
ATOM     27  C   UNL     1      31.247  -9.840 -21.547  0.00  0.00    +0.092 C 
ATOM     28  C   UNL     1      32.817  -9.728 -23.090  0.00  0.00    +0.172 C 
ATOM     29  C   UNL     1      31.095  -8.728 -22.340  0.00  0.00    +0.117 C 
ENDBRANCH  19  25
ENDBRANCH  18  20
ENDBRANCH   6  18
TORSDOF 5
ENDMDL
MODEL 8
REMARK VINA RESULT:     -10.8      5.894     11.966
REMARK  Name = 10157080
REMARK  5 active torsions:
REMARK  status: ('A' for Active; 'I' for Inactive)
REMARK    1  A    between atoms: C_3  and  O_8
REMARK    2  A    between atoms: C_6  and  O_18
REMARK    3  A    between atoms: O_8  and  C_13
REMARK    4  A    between atoms: O_18  and  C_20
REMARK    5  A    between atoms: C_19  and  N_25
REMARK                            x       y       z     vdW  Elec       q    Type
REMARK                         _______ _______ _______ _____ _____    ______ ____
ROOT
ATOM      1  N   UNL     1      34.937 -15.614 -21.859  0.00  0.00    -0.277 NA
ATOM      2  N   UNL     1      34.890 -16.076 -24.225  0.00  0.00    -0.319 NA
ATOM      3  C   UNL     1      34.080 -14.606 -22.089  0.00  0.00    +0.278 C 
ATOM      4  C   UNL     1      33.586 -14.264 -23.324  0.00  0.00    +0.156 C 
ATOM      5  C   UNL     1      34.031 -15.045 -24.371  0.00  0.00    +0.113 C 
ATOM      6  C   UNL     1      35.297 -16.301 -22.960  0.00  0.00    +0.317 C 
ATOM      7  C   UNL     1      33.555 -14.760 -25.756  0.00  0.00    +0.063 C 
ENDROOT
BRANCH   3   8
ATOM      8  O   UNL     1      33.679 -13.872 -20.987  0.00  0.00    -0.429 OA
BRANCH   8  13
ATOM      9  O   UNL     1      33.135  -9.657 -23.265  0.00  0.00    -0.435 OA
ATOM     10  O   UNL     1      31.161  -9.125 -21.989  0.00  0.00    -0.435 OA
ATOM     11  C   UNL     1      32.817 -10.634 -22.373  0.00  0.00    +0.179 C 
ATOM     12  C   UNL     1      31.690 -10.330 -21.644  0.00  0.00    +0.177 C 
ATOM     13  C   UNL     1      33.029 -12.696 -21.212  0.00  0.00    +0.151 C 
ATOM     14  C   UNL     1      33.510 -11.811 -22.180  0.00  0.00    +0.078 C 
ATOM     15  C   UNL     1      31.194 -11.187 -20.682  0.00  0.00    +0.043 C 
ATOM     16  C   UNL     1      31.877 -12.386 -20.468  0.00  0.00    +0.041 C 
ATOM     17  C   UNL     1      32.081  -8.705 -23.016  0.00  0.00    +0.429 C 
ENDBRANCH   8  13
ENDBRANCH   3   8
BRANCH   6  18
ATOM     18  O   UNL     1      36.176 -17.342 -22.774  0.00  0.00    -0.375 OA
BRANCH  18  20
ATOM     19  C   UNL     1      35.102 -20.258 -20.023  0.00  0.00    +0.057 C 
ATOM     20  C   UNL     1      35.820 -18.310 -21.861  0.00  0.00    +0.161 C 
ATOM     21  C   UNL     1      34.179 -19.822 -20.973  0.00  0.00    +0.018 C 
ATOM     22  C   UNL     1      36.387 -19.714 -19.997  0.00  0.00    +0.018 C 
ATOM     23  C   UNL     1      34.540 -18.842 -21.898  0.00  0.00    +0.040 C 
ATOM     24  C   UNL     1      36.748 -18.735 -20.922  0.00  0.00    +0.040 C 
BRANCH  19  25
ATOM     25  N   UNL     1      34.744 -21.229 -19.105  0.00  0.00    -0.246 N 
ATOM     26  N   UNL     1      34.936 -22.729 -17.467  0.00  0.00    -0.224 NA
ATOM     27  C   UNL     1      33.491 -21.756 -18.917  0.00  0.00    +0.092 C 
ATOM     28  C   UNL     1      35.575 -21.850 -18.206  0.00  0.00    +0.172 C 
ATOM     29  C   UNL     1      33.637 -22.675 -17.906  0.00  0.00    +0.117 C 
ENDBRANCH  19  25
ENDBRANCH  18  20
ENDBRANCH   6  18
TORSDOF 5
ENDMDL
MODEL 9
REMARK VINA RESULT:     -10.7      4.872     10.945
REMARK  Name = 10157080
REMARK  5 active torsions:
REMARK  status: ('A' for Active; 'I' for Inactive)
REMARK    1  A    between atoms: C_3  and  O_8
REMARK    2  A    between atoms: C_6  and  O_18
REMARK    3  A    between atoms: O_8  and  C_13
REMARK    4  A    between atoms: O_18  and  C_20
REMARK    5  A    between atoms: C_19  and  N_25
REMARK                            x       y       z     vdW  Elec       q    Type
REMARK                         _______ _______ _______ _____ _____    ______ ____
ROOT
ATOM      1  N   UNL     1      35.909 -16.530 -22.328  0.00  0.00    -0.277 NA
ATOM      2  N   UNL     1      34.974 -18.601 -23.132  0.00  0.00    -0.319 NA
ATOM      3  C   UNL     1      35.063 -15.887 -23.149  0.00  0.00    +0.278 C 
ATOM      4  C   UNL     1      34.158 -16.501 -23.980  0.00  0.00    +0.156 C 
ATOM      5  C   UNL     1      34.158 -17.880 -23.928  0.00  0.00    +0.113 C 
ATOM      6  C   UNL     1      35.813 -17.872 -22.369  0.00  0.00    +0.317 C 
ATOM      7  C   UNL     1      33.213 -18.648 -24.791  0.00  0.00    +0.063 C 
ENDROOT
BRANCH   3   8
ATOM      8  O   UNL     1      35.124 -14.505 -23.139  0.00  0.00    -0.429 OA
BRANCH   8  13
ATOM      9  O   UNL     1      32.188 -10.789 -22.227  0.00  0.00    -0.435 OA
ATOM     10  O   UNL     1      31.509 -11.734 -20.116  0.00  0.00    -0.435 OA
ATOM     11  C   UNL     1      32.796 -11.980 -21.973  0.00  0.00    +0.179 C 
ATOM     12  C   UNL     1      32.409 -12.519 -20.768  0.00  0.00    +0.177 C 
ATOM     13  C   UNL     1      34.225 -13.838 -22.362  0.00  0.00    +0.151 C 
ATOM     14  C   UNL     1      33.704 -12.616 -22.794  0.00  0.00    +0.078 C 
ATOM     15  C   UNL     1      32.908 -13.724 -20.317  0.00  0.00    +0.043 C 
ATOM     16  C   UNL     1      33.828 -14.389 -21.130  0.00  0.00    +0.041 C 
ATOM     17  C   UNL     1      31.373 -10.641 -21.046  0.00  0.00    +0.429 C 
ENDBRANCH   8  13
ENDBRANCH   3   8
BRANCH   6  18
ATOM     18  O   UNL     1      36.663 -18.575 -21.547  0.00  0.00    -0.375 OA
BRANCH  18  20
ATOM     19  C   UNL     1      34.937 -21.218 -18.853  0.00  0.00    +0.057 C 
ATOM     20  C   UNL     1      36.090 -19.453 -20.653  0.00  0.00    +0.161 C 
ATOM     21  C   UNL     1      34.130 -20.473 -19.713  0.00  0.00    +0.018 C 
ATOM     22  C   UNL     1      36.323 -21.075 -18.898  0.00  0.00    +0.018 C 
ATOM     23  C   UNL     1      34.710 -19.585 -20.619  0.00  0.00    +0.040 C 
ATOM     24  C   UNL     1      36.904 -20.187 -19.804  0.00  0.00    +0.040 C 
BRANCH  19  25
ATOM     25  N   UNL     1      34.361 -22.098 -17.955  0.00  0.00    -0.246 N 
ATOM     26  N   UNL     1      34.176 -23.511 -16.240  0.00  0.00    -0.224 NA
ATOM     27  C   UNL     1      33.050 -22.500 -17.928  0.00  0.00    +0.092 C 
ATOM     28  C   UNL     1      34.995 -22.738 -16.918  0.00  0.00    +0.172 C 
ATOM     29  C   UNL     1      32.963 -23.368 -16.865  0.00  0.00    +0.117 C 
ENDBRANCH  19  25
ENDBRANCH  18  20
ENDBRANCH   6  18
TORSDOF 5
ENDMDL
