MODEL 1
REMARK VINA RESULT:     -11.5      0.000      0.000
REMARK  Name = 176407
REMARK  5 active torsions:
REMARK  status: ('A' for Active; 'I' for Inactive)
REMARK    1  A    between atoms: N_1  and  C_20
REMARK    2  A    between atoms: C_11  and  C_16
REMARK    3  A    between atoms: C_20  and  C_21
REMARK    4  A    between atoms: C_21  and  C_22
REMARK    5  A    between atoms: C_27  and  O_28
REMARK                            x       y       z     vdW  Elec       q    Type
REMARK                         _______ _______ _______ _____ _____    ______ ____
ROOT
ATOM      1  N   UNL     1      35.959 -17.628 -22.306  0.00  0.00    -0.258 N 
ATOM      2  N   UNL     1      33.828 -14.369 -23.198  0.00  0.00    -0.059 N 
ATOM      3  N   UNL     1      34.895 -15.697 -21.584  0.00  0.00    -0.245 NA
ATOM      4  N   UNL     1      34.875 -16.269 -23.906  0.00  0.00    -0.294 NA
ATOM      5  N   UNL     1      33.116 -13.241 -23.345  0.00  0.00    -0.090 NA
ATOM      6  N   UNL     1      33.690 -13.613 -21.161  0.00  0.00    -0.267 NA
ATOM      7  N   UNL     1      33.781 -14.892 -25.496  0.00  0.00    -0.318 N 
ATOM      8  C   UNL     1      35.226 -16.496 -22.575  0.00  0.00    +0.213 C 
ATOM      9  C   UNL     1      34.172 -14.594 -21.896  0.00  0.00    +0.251 C 
ATOM     10  C   UNL     1      34.182 -15.218 -24.229  0.00  0.00    +0.282 C 
ATOM     11  C   UNL     1      33.060 -12.820 -22.079  0.00  0.00    +0.153 C 
ATOM     12  H   UNL     1      36.205 -18.224 -23.051  0.00  0.00    +0.160 HD
ATOM     13  H   UNL     1      33.257 -14.072 -25.652  0.00  0.00    +0.146 HD
ATOM     14  H   UNL     1      34.017 -15.475 -26.253  0.00  0.00    +0.146 HD
ENDROOT
BRANCH  11  16
ATOM     15  O   UNL     1      32.505 -10.391 -22.343  0.00  0.00    -0.439 OA
ATOM     16  C   UNL     1      32.363 -11.578 -21.698  0.00  0.00    +0.221 C 
ATOM     17  C   UNL     1      31.485 -11.454 -20.647  0.00  0.00    +0.052 C 
ATOM     18  C   UNL     1      31.060 -10.104 -20.646  0.00  0.00    +0.045 C 
ATOM     19  C   UNL     1      31.709  -9.499 -21.696  0.00  0.00    +0.181 C 
ENDBRANCH  11  16
BRANCH   1  20
ATOM     20  C   UNL     1      36.376 -17.965 -20.983  0.00  0.00    +0.103 C 
BRANCH  20  21
ATOM     21  C   UNL     1      36.605 -19.470 -20.849  0.00  0.00    +0.048 C 
BRANCH  21  22
ATOM     22  C   UNL     1      35.468 -20.183 -20.160  0.00  0.00    -0.020 C 
ATOM     23  C   UNL     1      34.162 -19.815 -20.446  0.00  0.00    -0.001 C 
ATOM     24  C   UNL     1      35.749 -21.193 -19.254  0.00  0.00    -0.001 C 
ATOM     25  C   UNL     1      33.112 -20.474 -19.808  0.00  0.00    +0.036 C 
ATOM     26  C   UNL     1      34.699 -21.852 -18.616  0.00  0.00    +0.036 C 
ATOM     27  C   UNL     1      33.380 -21.493 -18.894  0.00  0.00    +0.134 C 
BRANCH  27  28
ATOM     28  O   UNL     1      32.353 -22.136 -18.272  0.00  0.00    -0.506 OA
ATOM     29  H   UNL     1      31.566 -22.326 -18.743  0.00  0.00    +0.292 HD
ENDBRANCH  27  28
ENDBRANCH  21  22
ENDBRANCH  20  21
ENDBRANCH   1  20
TORSDOF 5
ENDMDL
MODEL 2
REMARK VINA RESULT:     -11.3      6.655     11.609
REMARK  Name = 176407
REMARK  5 active torsions:
REMARK  status: ('A' for Active; 'I' for Inactive)
REMARK    1  A    between atoms: N_1  and  C_20
REMARK    2  A    between atoms: C_11  and  C_16
REMARK    3  A    between atoms: C_20  and  C_21
REMARK    4  A    between atoms: C_21  and  C_22
REMARK    5  A    between atoms: C_27  and  O_28
REMARK                            x       y       z     vdW  Elec       q    Type
REMARK                         _______ _______ _______ _____ _____    ______ ____
ROOT
ATOM      1  N   UNL     1      32.460 -22.148 -18.220  0.00  0.00    -0.258 N 
ATOM      2  N   UNL     1      33.662 -23.774 -14.774  0.00  0.00    -0.059 N 
ATOM      3  N   UNL     1      34.179 -23.042 -16.943  0.00  0.00    -0.245 NA
ATOM      4  N   UNL     1      31.973 -22.894 -16.032  0.00  0.00    -0.294 NA
ATOM      5  N   UNL     1      34.208 -24.326 -13.681  0.00  0.00    -0.090 NA
ATOM      6  N   UNL     1      35.748 -24.026 -15.348  0.00  0.00    -0.267 NA
ATOM      7  N   UNL     1      31.504 -23.649 -13.833  0.00  0.00    -0.318 N 
ATOM      8  C   UNL     1      32.911 -22.710 -17.048  0.00  0.00    +0.213 C 
ATOM      9  C   UNL     1      34.578 -23.592 -15.771  0.00  0.00    +0.251 C 
ATOM     10  C   UNL     1      32.332 -23.420 -14.898  0.00  0.00    +0.282 C 
ATOM     11  C   UNL     1      35.475 -24.461 -14.080  0.00  0.00    +0.153 C 
ATOM     12  H   UNL     1      31.510 -21.901 -18.294  0.00  0.00    +0.160 HD
ATOM     13  H   UNL     1      31.862 -24.053 -13.009  0.00  0.00    +0.146 HD
ATOM     14  H   UNL     1      30.552 -23.408 -13.889  0.00  0.00    +0.146 HD
ENDROOT
BRANCH  11  16
ATOM     15  O   UNL     1      36.266 -25.640 -12.015  0.00  0.00    -0.439 OA
ATOM     16  C   UNL     1      36.513 -25.039 -13.209  0.00  0.00    +0.221 C 
ATOM     17  C   UNL     1      37.862 -25.048 -13.482  0.00  0.00    +0.052 C 
ATOM     18  C   UNL     1      38.482 -25.695 -12.386  0.00  0.00    +0.045 C 
ATOM     19  C   UNL     1      37.468 -26.036 -11.522  0.00  0.00    +0.181 C 
ENDBRANCH  11  16
BRANCH   1  20
ATOM     20  C   UNL     1      33.327 -21.911 -19.330  0.00  0.00    +0.103 C 
BRANCH  20  21
ATOM     21  C   UNL     1      33.188 -20.475 -19.834  0.00  0.00    +0.048 C 
BRANCH  21  22
ATOM     22  C   UNL     1      34.495 -19.881 -20.296  0.00  0.00    -0.020 C 
ATOM     23  C   UNL     1      34.490 -18.922 -21.298  0.00  0.00    -0.001 C 
ATOM     24  C   UNL     1      35.678 -20.303 -19.711  0.00  0.00    -0.001 C 
ATOM     25  C   UNL     1      35.698 -18.374 -21.726  0.00  0.00    +0.036 C 
ATOM     26  C   UNL     1      36.887 -19.754 -20.139  0.00  0.00    +0.036 C 
ATOM     27  C   UNL     1      36.897 -18.789 -21.146  0.00  0.00    +0.134 C 
BRANCH  27  28
ATOM     28  O   UNL     1      38.076 -18.252 -21.564  0.00  0.00    -0.506 OA
ATOM     29  H   UNL     1      38.729 -18.800 -21.951  0.00  0.00    +0.292 HD
ENDBRANCH  27  28
ENDBRANCH  21  22
ENDBRANCH  20  21
ENDBRANCH   1  20
TORSDOF 5
ENDMDL
MODEL 3
REMARK VINA RESULT:     -11.1      5.315     10.030
REMARK  Name = 176407
REMARK  5 active torsions:
REMARK  status: ('A' for Active; 'I' for Inactive)
REMARK    1  A    between atoms: N_1  and  C_20
REMARK    2  A    between atoms: C_11  and  C_16
REMARK    3  A    between atoms: C_20  and  C_21
REMARK    4  A    between atoms: C_21  and  C_22
REMARK    5  A    between atoms: C_27  and  O_28
REMARK                            x       y       z     vdW  Elec       q    Type
REMARK                         _______ _______ _______ _____ _____    ______ ____
ROOT
ATOM      1  N   UNL     1      36.034 -20.961 -19.412  0.00  0.00    -0.258 N 
ATOM      2  N   UNL     1      34.125 -22.858 -16.460  0.00  0.00    -0.059 N 
ATOM      3  N   UNL     1      34.035 -21.715 -18.507  0.00  0.00    -0.245 NA
ATOM      4  N   UNL     1      36.090 -22.116 -17.353  0.00  0.00    -0.294 NA
ATOM      5  N   UNL     1      33.353 -23.467 -15.548  0.00  0.00    -0.090 NA
ATOM      6  N   UNL     1      32.125 -22.633 -17.290  0.00  0.00    -0.267 NA
ATOM      7  N   UNL     1      36.125 -23.277 -15.285  0.00  0.00    -0.318 N 
ATOM      8  C   UNL     1      35.343 -21.608 -18.415  0.00  0.00    +0.213 C 
ATOM      9  C   UNL     1      33.396 -22.360 -17.501  0.00  0.00    +0.251 C 
ATOM     10  C   UNL     1      35.499 -22.739 -16.375  0.00  0.00    +0.282 C 
ATOM     11  C   UNL     1      32.147 -23.303 -16.098  0.00  0.00    +0.153 C 
ATOM     12  H   UNL     1      37.013 -20.883 -19.339  0.00  0.00    +0.160 HD
ATOM     13  H   UNL     1      35.598 -23.734 -14.589  0.00  0.00    +0.146 HD
ATOM     14  H   UNL     1      37.103 -23.210 -15.195  0.00  0.00    +0.146 HD
ENDROOT
BRANCH  11  16
ATOM     15  O   UNL     1      30.891 -24.819 -14.549  0.00  0.00    -0.439 OA
ATOM     16  C   UNL     1      30.920 -23.812 -15.460  0.00  0.00    +0.221 C 
ATOM     17  C   UNL     1      29.649 -23.343 -15.702  0.00  0.00    +0.052 C 
ATOM     18  C   UNL     1      28.784 -24.111 -14.886  0.00  0.00    +0.045 C 
ATOM     19  C   UNL     1      29.588 -24.994 -14.204  0.00  0.00    +0.181 C 
ENDBRANCH  11  16
BRANCH   1  20
ATOM     20  C   UNL     1      35.378 -20.400 -20.549  0.00  0.00    +0.103 C 
BRANCH  20  21
ATOM     21  C   UNL     1      35.966 -19.035 -20.902  0.00  0.00    +0.048 C 
BRANCH  21  22
ATOM     22  C   UNL     1      35.338 -18.417 -22.127  0.00  0.00    -0.020 C 
ATOM     23  C   UNL     1      35.489 -17.058 -22.356  0.00  0.00    -0.001 C 
ATOM     24  C   UNL     1      34.622 -19.219 -23.000  0.00  0.00    -0.001 C 
ATOM     25  C   UNL     1      34.908 -16.487 -23.487  0.00  0.00    +0.036 C 
ATOM     26  C   UNL     1      34.041 -18.649 -24.132  0.00  0.00    +0.036 C 
ATOM     27  C   UNL     1      34.184 -17.282 -24.376  0.00  0.00    +0.134 C 
BRANCH  27  28
ATOM     28  O   UNL     1      33.617 -16.724 -25.481  0.00  0.00    -0.506 OA
ATOM     29  H   UNL     1      32.984 -17.204 -25.976  0.00  0.00    +0.292 HD
ENDBRANCH  27  28
ENDBRANCH  21  22
ENDBRANCH  20  21
ENDBRANCH   1  20
TORSDOF 5
ENDMDL
MODEL 4
REMARK VINA RESULT:     -10.7      5.172     10.510
REMARK  Name = 176407
REMARK  5 active torsions:
REMARK  status: ('A' for Active; 'I' for Inactive)
REMARK    1  A    between atoms: N_1  and  C_20
REMARK    2  A    between atoms: C_11  and  C_16
REMARK    3  A    between atoms: C_20  and  C_21
REMARK    4  A    between atoms: C_21  and  C_22
REMARK    5  A    between atoms: C_27  and  O_28
REMARK                            x       y       z     vdW  Elec       q    Type
REMARK                         _______ _______ _______ _____ _____    ______ ____
ROOT
ATOM      1  N   UNL     1      34.033 -20.626 -20.117  0.00  0.00    -0.258 N 
ATOM      2  N   UNL     1      33.725 -22.769 -16.759  0.00  0.00    -0.059 N 
ATOM      3  N   UNL     1      35.081 -21.683 -18.337  0.00  0.00    -0.245 NA
ATOM      4  N   UNL     1      32.697 -21.728 -18.511  0.00  0.00    -0.294 NA
ATOM      5  N   UNL     1      33.778 -23.482 -15.625  0.00  0.00    -0.090 NA
ATOM      6  N   UNL     1      35.862 -22.883 -16.356  0.00  0.00    -0.267 NA
ATOM      7  N   UNL     1      31.372 -22.841 -16.888  0.00  0.00    -0.318 N 
ATOM      8  C   UNL     1      33.966 -21.363 -18.958  0.00  0.00    +0.213 C 
ATOM      9  C   UNL     1      34.967 -22.409 -17.199  0.00  0.00    +0.251 C 
ATOM     10  C   UNL     1      32.562 -22.426 -17.422  0.00  0.00    +0.282 C 
ATOM     11  C   UNL     1      35.097 -23.524 -15.422  0.00  0.00    +0.153 C 
ATOM     12  H   UNL     1      33.196 -20.389 -20.579  0.00  0.00    +0.160 HD
ATOM     13  H   UNL     1      31.363 -23.367 -16.055  0.00  0.00    +0.146 HD
ATOM     14  H   UNL     1      30.526 -22.613 -17.336  0.00  0.00    +0.146 HD
ENDROOT
BRANCH  11  16
ATOM     15  O   UNL     1      35.387 -23.940 -12.968  0.00  0.00    -0.439 OA
ATOM     16  C   UNL     1      35.689 -24.217 -14.264  0.00  0.00    +0.221 C 
ATOM     17  C   UNL     1      36.620 -25.227 -14.337  0.00  0.00    +0.052 C 
ATOM     18  C   UNL     1      36.909 -25.594 -13.000  0.00  0.00    +0.045 C 
ATOM     19  C   UNL     1      36.133 -24.782 -12.206  0.00  0.00    +0.181 C 
ENDBRANCH  11  16
BRANCH   1  20
ATOM     20  C   UNL     1      35.276 -20.194 -20.671  0.00  0.00    +0.103 C 
BRANCH  20  21
ATOM     21  C   UNL     1      35.387 -18.670 -20.641  0.00  0.00    +0.048 C 
BRANCH  21  22
ATOM     22  C   UNL     1      35.057 -18.026 -21.965  0.00  0.00    -0.020 C 
ATOM     23  C   UNL     1      35.353 -16.686 -22.160  0.00  0.00    -0.001 C 
ATOM     24  C   UNL     1      34.466 -18.786 -22.961  0.00  0.00    -0.001 C 
ATOM     25  C   UNL     1      35.048 -16.090 -23.384  0.00  0.00    +0.036 C 
ATOM     26  C   UNL     1      34.160 -18.190 -24.185  0.00  0.00    +0.036 C 
ATOM     27  C   UNL     1      34.452 -16.842 -24.396  0.00  0.00    +0.134 C 
BRANCH  27  28
ATOM     28  O   UNL     1      34.155 -16.260 -25.591  0.00  0.00    -0.506 OA
ATOM     29  H   UNL     1      33.664 -16.733 -26.233  0.00  0.00    +0.292 HD
ENDBRANCH  27  28
ENDBRANCH  21  22
ENDBRANCH  20  21
ENDBRANCH   1  20
TORSDOF 5
ENDMDL
MODEL 5
REMARK VINA RESULT:     -10.4      4.507     10.052
REMARK  Name = 176407
REMARK  5 active torsions:
REMARK  status: ('A' for Active; 'I' for Inactive)
REMARK    1  A    between atoms: N_1  and  C_20
REMARK    2  A    between atoms: C_11  and  C_16
REMARK    3  A    between atoms: C_20  and  C_21
REMARK    4  A    between atoms: C_21  and  C_22
REMARK    5  A    between atoms: C_27  and  O_28
REMARK                            x       y       z     vdW  Elec       q    Type
REMARK                         _______ _______ _______ _____ _____    ______ ____
ROOT
ATOM      1  N   UNL     1      35.272 -19.890 -20.585  0.00  0.00    -0.258 N 
ATOM      2  N   UNL     1      34.948 -22.273 -17.395  0.00  0.00    -0.059 N 
ATOM      3  N   UNL     1      36.248 -20.813 -18.693  0.00  0.00    -0.245 NA
ATOM      4  N   UNL     1      33.990 -21.363 -19.257  0.00  0.00    -0.294 NA
ATOM      5  N   UNL     1      34.987 -23.033 -16.292  0.00  0.00    -0.090 NA
ATOM      6  N   UNL     1      36.969 -21.948 -16.652  0.00  0.00    -0.267 NA
ATOM      7  N   UNL     1      32.720 -22.846 -17.910  0.00  0.00    -0.318 N 
ATOM      8  C   UNL     1      35.198 -20.701 -19.477  0.00  0.00    +0.213 C 
ATOM      9  C   UNL     1      36.129 -21.623 -17.614  0.00  0.00    +0.251 C 
ATOM     10  C   UNL     1      33.852 -22.146 -18.228  0.00  0.00    +0.282 C 
ATOM     11  C   UNL     1      36.235 -22.802 -15.877  0.00  0.00    +0.153 C 
ATOM     12  H   UNL     1      34.484 -19.809 -21.170  0.00  0.00    +0.160 HD
ATOM     13  H   UNL     1      32.703 -23.417 -17.108  0.00  0.00    +0.146 HD
ATOM     14  H   UNL     1      31.922 -22.777 -18.482  0.00  0.00    +0.146 HD
ENDROOT
BRANCH  11  16
ATOM     15  O   UNL     1      36.128 -23.501 -13.473  0.00  0.00    -0.439 OA
ATOM     16  C   UNL     1      36.784 -23.427 -14.661  0.00  0.00    +0.221 C 
ATOM     17  C   UNL     1      38.025 -24.013 -14.564  0.00  0.00    +0.052 C 
ATOM     18  C   UNL     1      38.138 -24.477 -13.231  0.00  0.00    +0.045 C 
ATOM     19  C   UNL     1      36.959 -24.141 -12.609  0.00  0.00    +0.181 C 
ENDBRANCH  11  16
BRANCH   1  20
ATOM     20  C   UNL     1      36.455 -19.161 -20.914  0.00  0.00    +0.103 C 
BRANCH  20  21
ATOM     21  C   UNL     1      36.227 -18.269 -22.134  0.00  0.00    +0.048 C 
BRANCH  21  22
ATOM     22  C   UNL     1      35.573 -16.953 -21.791  0.00  0.00    -0.020 C 
ATOM     23  C   UNL     1      35.245 -16.072 -22.810  0.00  0.00    -0.001 C 
ATOM     24  C   UNL     1      35.313 -16.649 -20.465  0.00  0.00    -0.001 C 
ATOM     25  C   UNL     1      34.642 -14.855 -22.494  0.00  0.00    +0.036 C 
ATOM     26  C   UNL     1      34.710 -15.432 -20.148  0.00  0.00    +0.036 C 
ATOM     27  C   UNL     1      34.374 -14.535 -21.163  0.00  0.00    +0.134 C 
BRANCH  27  28
ATOM     28  O   UNL     1      33.784 -13.347 -20.855  0.00  0.00    -0.506 OA
ATOM     29  H   UNL     1      34.293 -12.561 -20.842  0.00  0.00    +0.292 HD
ENDBRANCH  27  28
ENDBRANCH  21  22
ENDBRANCH  20  21
ENDBRANCH   1  20
TORSDOF 5
ENDMDL
MODEL 6
REMARK VINA RESULT:     -10.4      1.312      1.841
REMARK  Name = 176407
REMARK  5 active torsions:
REMARK  status: ('A' for Active; 'I' for Inactive)
REMARK    1  A    between atoms: N_1  and  C_20
REMARK    2  A    between atoms: C_11  and  C_16
REMARK    3  A    between atoms: C_20  and  C_21
REMARK    4  A    between atoms: C_21  and  C_22
REMARK    5  A    between atoms: C_27  and  O_28
REMARK                            x       y       z     vdW  Elec       q    Type
REMARK                         _______ _______ _______ _____ _____    ______ ____
ROOT
ATOM      1  N   UNL     1      35.070 -17.691 -23.527  0.00  0.00    -0.258 N 
ATOM      2  N   UNL     1      33.850 -13.962 -24.277  0.00  0.00    -0.059 N 
ATOM      3  N   UNL     1      34.443 -15.609 -22.715  0.00  0.00    -0.245 NA
ATOM      4  N   UNL     1      34.467 -16.010 -25.073  0.00  0.00    -0.294 NA
ATOM      5  N   UNL     1      33.440 -12.688 -24.374  0.00  0.00    -0.090 NA
ATOM      6  N   UNL     1      33.739 -13.327 -22.197  0.00  0.00    -0.267 NA
ATOM      7  N   UNL     1      33.857 -14.309 -26.609  0.00  0.00    -0.318 N 
ATOM      8  C   UNL     1      34.650 -16.400 -23.746  0.00  0.00    +0.213 C 
ATOM      9  C   UNL     1      34.030 -14.347 -22.979  0.00  0.00    +0.251 C 
ATOM     10  C   UNL     1      34.070 -14.803 -25.351  0.00  0.00    +0.282 C 
ATOM     11  C   UNL     1      33.388 -12.348 -23.084  0.00  0.00    +0.153 C 
ATOM     12  H   UNL     1      35.224 -18.279 -24.301  0.00  0.00    +0.160 HD
ATOM     13  H   UNL     1      33.556 -13.378 -26.728  0.00  0.00    +0.146 HD
ATOM     14  H   UNL     1      34.005 -14.882 -27.395  0.00  0.00    +0.146 HD
ENDROOT
BRANCH  11  16
ATOM     15  O   UNL     1      32.245 -10.748 -21.532  0.00  0.00    -0.439 OA
ATOM     16  C   UNL     1      32.980 -11.001 -22.646  0.00  0.00    +0.221 C 
ATOM     17  C   UNL     1      33.282  -9.830 -23.301  0.00  0.00    +0.052 C 
ATOM     18  C   UNL     1      32.696  -8.790 -22.540  0.00  0.00    +0.045 C 
ATOM     19  C   UNL     1      32.077  -9.401 -21.475  0.00  0.00    +0.181 C 
ENDBRANCH  11  16
BRANCH   1  20
ATOM     20  C   UNL     1      35.292 -18.203 -22.213  0.00  0.00    +0.103 C 
BRANCH  20  21
ATOM     21  C   UNL     1      34.128 -19.088 -21.768  0.00  0.00    +0.048 C 
BRANCH  21  22
ATOM     22  C   UNL     1      34.483 -20.000 -20.619  0.00  0.00    -0.020 C 
ATOM     23  C   UNL     1      35.816 -20.200 -20.297  0.00  0.00    -0.001 C 
ATOM     24  C   UNL     1      33.469 -20.623 -19.908  0.00  0.00    -0.001 C 
ATOM     25  C   UNL     1      36.144 -21.044 -19.236  0.00  0.00    +0.036 C 
ATOM     26  C   UNL     1      33.797 -21.466 -18.848  0.00  0.00    +0.036 C 
ATOM     27  C   UNL     1      35.135 -21.677 -18.511  0.00  0.00    +0.134 C 
BRANCH  27  28
ATOM     28  O   UNL     1      35.456 -22.500 -17.475  0.00  0.00    -0.506 OA
ATOM     29  H   UNL     1      36.220 -22.330 -16.961  0.00  0.00    +0.292 HD
ENDBRANCH  27  28
ENDBRANCH  21  22
ENDBRANCH  20  21
ENDBRANCH   1  20
TORSDOF 5
ENDMDL
MODEL 7
REMARK VINA RESULT:     -10.4      4.123      9.632
REMARK  Name = 176407
REMARK  5 active torsions:
REMARK  status: ('A' for Active; 'I' for Inactive)
REMARK    1  A    between atoms: N_1  and  C_20
REMARK    2  A    between atoms: C_11  and  C_16
REMARK    3  A    between atoms: C_20  and  C_21
REMARK    4  A    between atoms: C_21  and  C_22
REMARK    5  A    between atoms: C_27  and  O_28
REMARK                            x       y       z     vdW  Elec       q    Type
REMARK                         _______ _______ _______ _____ _____    ______ ____
ROOT
ATOM      1  N   UNL     1      35.401 -19.946 -20.960  0.00  0.00    -0.258 N 
ATOM      2  N   UNL     1      34.569 -22.050 -17.667  0.00  0.00    -0.059 N 
ATOM      3  N   UNL     1      33.812 -20.935 -19.588  0.00  0.00    -0.245 NA
ATOM      4  N   UNL     1      36.130 -21.077 -19.019  0.00  0.00    -0.294 NA
ATOM      5  N   UNL     1      34.140 -22.745 -16.604  0.00  0.00    -0.090 NA
ATOM      6  N   UNL     1      32.409 -22.075 -17.943  0.00  0.00    -0.267 NA
ATOM      7  N   UNL     1      36.842 -22.217 -17.064  0.00  0.00    -0.318 N 
ATOM      8  C   UNL     1      35.076 -20.669 -19.836  0.00  0.00    +0.213 C 
ATOM      9  C   UNL     1      33.539 -21.649 -18.470  0.00  0.00    +0.251 C 
ATOM     10  C   UNL     1      35.893 -21.763 -17.939  0.00  0.00    +0.282 C 
ATOM     11  C   UNL     1      32.822 -22.732 -16.817  0.00  0.00    +0.153 C 
ATOM     12  H   UNL     1      36.349 -19.749 -21.141  0.00  0.00    +0.160 HD
ATOM     13  H   UNL     1      36.572 -22.732 -16.269  0.00  0.00    +0.146 HD
ATOM     14  H   UNL     1      37.794 -22.030 -17.229  0.00  0.00    +0.146 HD
ENDROOT
BRANCH  11  16
ATOM     15  O   UNL     1      32.238 -24.163 -14.845  0.00  0.00    -0.439 OA
ATOM     16  C   UNL     1      31.873 -23.385 -15.898  0.00  0.00    +0.221 C 
ATOM     17  C   UNL     1      30.502 -23.297 -15.981  0.00  0.00    +0.052 C 
ATOM     18  C   UNL     1      29.993 -24.071 -14.911  0.00  0.00    +0.045 C 
ATOM     19  C   UNL     1      31.088 -24.577 -14.251  0.00  0.00    +0.181 C 
ENDBRANCH  11  16
BRANCH   1  20
ATOM     20  C   UNL     1      34.409 -19.474 -21.871  0.00  0.00    +0.103 C 
BRANCH  20  21
ATOM     21  C   UNL     1      35.051 -18.943 -23.152  0.00  0.00    +0.048 C 
BRANCH  21  22
ATOM     22  C   UNL     1      34.723 -17.496 -23.423  0.00  0.00    -0.020 C 
ATOM     23  C   UNL     1      35.109 -16.528 -22.509  0.00  0.00    -0.001 C 
ATOM     24  C   UNL     1      34.042 -17.160 -24.583  0.00  0.00    -0.001 C 
ATOM     25  C   UNL     1      34.804 -15.191 -22.759  0.00  0.00    +0.036 C 
ATOM     26  C   UNL     1      33.738 -15.822 -24.833  0.00  0.00    +0.036 C 
ATOM     27  C   UNL     1      34.119 -14.837 -23.922  0.00  0.00    +0.134 C 
BRANCH  27  28
ATOM     28  O   UNL     1      33.824 -13.531 -24.166  0.00  0.00    -0.506 OA
ATOM     29  H   UNL     1      32.948 -13.282 -24.385  0.00  0.00    +0.292 HD
ENDBRANCH  27  28
ENDBRANCH  21  22
ENDBRANCH  20  21
ENDBRANCH   1  20
TORSDOF 5
ENDMDL
MODEL 8
REMARK VINA RESULT:     -10.1      1.797      8.337
REMARK  Name = 176407
REMARK  5 active torsions:
REMARK  status: ('A' for Active; 'I' for Inactive)
REMARK    1  A    between atoms: N_1  and  C_20
REMARK    2  A    between atoms: C_11  and  C_16
REMARK    3  A    between atoms: C_20  and  C_21
REMARK    4  A    between atoms: C_21  and  C_22
REMARK    5  A    between atoms: C_27  and  O_28
REMARK                            x       y       z     vdW  Elec       q    Type
REMARK                         _______ _______ _______ _____ _____    ______ ____
ROOT
ATOM      1  N   UNL     1      34.315 -14.512 -23.841  0.00  0.00    -0.258 N 
ATOM      2  N   UNL     1      34.686 -18.304 -22.641  0.00  0.00    -0.059 N 
ATOM      3  N   UNL     1      34.815 -16.014 -22.145  0.00  0.00    -0.245 NA
ATOM      4  N   UNL     1      34.196 -16.824 -24.308  0.00  0.00    -0.294 NA
ATOM      5  N   UNL     1      34.850 -19.519 -22.098  0.00  0.00    -0.090 NA
ATOM      6  N   UNL     1      35.274 -17.846 -20.594  0.00  0.00    -0.267 NA
ATOM      7  N   UNL     1      34.082 -19.150 -24.757  0.00  0.00    -0.318 N 
ATOM      8  C   UNL     1      34.453 -15.804 -23.392  0.00  0.00    +0.213 C 
ATOM      9  C   UNL     1      34.938 -17.303 -21.746  0.00  0.00    +0.251 C 
ATOM     10  C   UNL     1      34.308 -18.069 -23.949  0.00  0.00    +0.282 C 
ATOM     11  C   UNL     1      35.207 -19.187 -20.855  0.00  0.00    +0.153 C 
ATOM     12  H   UNL     1      34.045 -14.359 -24.776  0.00  0.00    +0.160 HD
ATOM     13  H   UNL     1      34.190 -20.062 -24.400  0.00  0.00    +0.146 HD
ATOM     14  H   UNL     1      33.810 -19.017 -25.693  0.00  0.00    +0.146 HD
ENDROOT
BRANCH  11  16
ATOM     15  O   UNL     1      36.679 -20.273 -19.143  0.00  0.00    -0.439 OA
ATOM     16  C   UNL     1      35.509 -20.202 -19.830  0.00  0.00    +0.221 C 
ATOM     17  C   UNL     1      34.656 -21.207 -19.435  0.00  0.00    +0.052 C 
ATOM     18  C   UNL     1      35.346 -21.941 -18.442  0.00  0.00    +0.045 C 
ATOM     19  C   UNL     1      36.571 -21.334 -18.300  0.00  0.00    +0.181 C 
ENDBRANCH  11  16
BRANCH   1  20
ATOM     20  C   UNL     1      34.551 -13.385 -22.996  0.00  0.00    +0.103 C 
BRANCH  20  21
ATOM     21  C   UNL     1      33.704 -12.190 -23.429  0.00  0.00    +0.048 C 
BRANCH  21  22
ATOM     22  C   UNL     1      32.908 -11.586 -22.298  0.00  0.00    -0.020 C 
ATOM     23  C   UNL     1      32.492 -12.396 -21.252  0.00  0.00    -0.001 C 
ATOM     24  C   UNL     1      32.608 -10.234 -22.325  0.00  0.00    -0.001 C 
ATOM     25  C   UNL     1      31.757 -11.838 -20.207  0.00  0.00    +0.036 C 
ATOM     26  C   UNL     1      31.872  -9.676 -21.280  0.00  0.00    +0.036 C 
ATOM     27  C   UNL     1      31.447 -10.478 -20.221  0.00  0.00    +0.134 C 
BRANCH  27  28
ATOM     28  O   UNL     1      30.729  -9.934 -19.200  0.00  0.00    -0.506 OA
ATOM     29  H   UNL     1      30.578 -10.428 -18.418  0.00  0.00    +0.292 HD
ENDBRANCH  27  28
ENDBRANCH  21  22
ENDBRANCH  20  21
ENDBRANCH   1  20
TORSDOF 5
ENDMDL
MODEL 9
REMARK VINA RESULT:     -10.0      7.288     10.360
REMARK  Name = 176407
REMARK  5 active torsions:
REMARK  status: ('A' for Active; 'I' for Inactive)
REMARK    1  A    between atoms: N_1  and  C_20
REMARK    2  A    between atoms: C_11  and  C_16
REMARK    3  A    between atoms: C_20  and  C_21
REMARK    4  A    between atoms: C_21  and  C_22
REMARK    5  A    between atoms: C_27  and  O_28
REMARK                            x       y       z     vdW  Elec       q    Type
REMARK                         _______ _______ _______ _____ _____    ______ ____
ROOT
ATOM      1  N   UNL     1      33.070 -25.024 -13.175  0.00  0.00    -0.258 N 
ATOM      2  N   UNL     1      35.197 -23.028 -15.905  0.00  0.00    -0.059 N 
ATOM      3  N   UNL     1      33.117 -23.815 -15.156  0.00  0.00    -0.245 NA
ATOM      4  N   UNL     1      35.147 -24.217 -13.958  0.00  0.00    -0.294 NA
ATOM      5  N   UNL     1      35.775 -22.334 -16.896  0.00  0.00    -0.090 NA
ATOM      6  N   UNL     1      33.513 -22.518 -17.189  0.00  0.00    -0.267 NA
ATOM      7  N   UNL     1      37.224 -23.399 -14.761  0.00  0.00    -0.318 N 
ATOM      8  C   UNL     1      33.768 -24.330 -14.135  0.00  0.00    +0.213 C 
ATOM      9  C   UNL     1      33.846 -23.140 -16.076  0.00  0.00    +0.251 C 
ATOM     10  C   UNL     1      35.868 -23.574 -14.829  0.00  0.00    +0.282 C 
ATOM     11  C   UNL     1      34.711 -22.047 -17.650  0.00  0.00    +0.153 C 
ATOM     12  H   UNL     1      33.562 -25.408 -12.413  0.00  0.00    +0.160 HD
ATOM     13  H   UNL     1      37.691 -22.895 -15.467  0.00  0.00    +0.146 HD
ATOM     14  H   UNL     1      37.732 -23.775 -14.006  0.00  0.00    +0.146 HD
ENDROOT
BRANCH  11  16
ATOM     15  O   UNL     1      33.760 -20.824 -19.619  0.00  0.00    -0.439 OA
ATOM     16  C   UNL     1      34.821 -21.271 -18.898  0.00  0.00    +0.221 C 
ATOM     17  C   UNL     1      36.003 -20.901 -19.498  0.00  0.00    +0.052 C 
ATOM     18  C   UNL     1      35.644 -20.179 -20.661  0.00  0.00    +0.045 C 
ATOM     19  C   UNL     1      34.270 -20.160 -20.690  0.00  0.00    +0.181 C 
ENDBRANCH  11  16
BRANCH   1  20
ATOM     20  C   UNL     1      31.656 -25.205 -13.249  0.00  0.00    +0.103 C 
BRANCH  20  21
ATOM     21  C   UNL     1      30.930 -23.861 -13.200  0.00  0.00    +0.048 C 
BRANCH  21  22
ATOM     22  C   UNL     1      29.917 -23.694 -14.306  0.00  0.00    -0.020 C 
ATOM     23  C   UNL     1      29.371 -22.443 -14.544  0.00  0.00    -0.001 C 
ATOM     24  C   UNL     1      29.552 -24.795 -15.064  0.00  0.00    -0.001 C 
ATOM     25  C   UNL     1      28.434 -22.289 -15.566  0.00  0.00    +0.036 C 
ATOM     26  C   UNL     1      28.616 -24.641 -16.086  0.00  0.00    +0.036 C 
ATOM     27  C   UNL     1      28.057 -23.388 -16.337  0.00  0.00    +0.134 C 
BRANCH  27  28
ATOM     28  O   UNL     1      27.143 -23.237 -17.335  0.00  0.00    -0.506 OA
ATOM     29  H   UNL     1      27.413 -22.914 -18.172  0.00  0.00    +0.292 HD
ENDBRANCH  27  28
ENDBRANCH  21  22
ENDBRANCH  20  21
ENDBRANCH   1  20
TORSDOF 5
ENDMDL
