MODEL 1
REMARK VINA RESULT:     -12.1      0.000      0.000
REMARK  Name = 25109292
REMARK  3 active torsions:
REMARK  status: ('A' for Active; 'I' for Inactive)
REMARK    1  A    between atoms: C_3  and  S_20
REMARK    2  A    between atoms: C_7  and  C_10
REMARK    3  A    between atoms: S_20  and  C_23
REMARK                            x       y       z     vdW  Elec       q    Type
REMARK                         _______ _______ _______ _____ _____    ______ ____
ROOT
ATOM      1  O   UNL     1      34.632 -22.867 -16.629  0.00  0.00    -0.425 OA
ATOM      2  N   UNL     1      36.838 -22.354 -16.535  0.00  0.00    -0.368 NA
ATOM      3  C   UNL     1      36.664 -24.549 -13.515  0.00  0.00    +0.091 C 
ATOM      4  C   UNL     1      36.515 -23.184 -15.488  0.00  0.00    +0.153 C 
ATOM      5  C   UNL     1      35.166 -23.499 -15.543  0.00  0.00    +0.174 C 
ATOM      6  C   UNL     1      37.294 -23.717 -14.451  0.00  0.00    +0.107 C 
ATOM      7  C   UNL     1      35.695 -22.205 -17.167  0.00  0.00    +0.282 C 
ATOM      8  C   UNL     1      35.297 -24.842 -13.606  0.00  0.00    +0.018 C 
ATOM      9  C   UNL     1      34.507 -24.319 -14.635  0.00  0.00    +0.041 C 
ENDROOT
BRANCH   7  10
ATOM     10  C   UNL     1      35.402 -21.438 -18.353  0.00  0.00    +0.066 C 
ATOM     11  C   UNL     1      36.129 -19.910 -20.102  0.00  0.00    +0.000 C 
ATOM     12  C   UNL     1      34.830 -19.947 -20.664  0.00  0.00    +0.000 C 
ATOM     13  C   UNL     1      36.399 -20.661 -18.947  0.00  0.00    +0.006 C 
ATOM     14  C   UNL     1      34.126 -21.474 -18.906  0.00  0.00    +0.006 C 
ATOM     15  C   UNL     1      33.840 -20.734 -20.054  0.00  0.00    +0.000 C 
ATOM     16  C   UNL     1      37.120 -19.124 -20.712  0.00  0.00    +0.000 C 
ATOM     17  C   UNL     1      34.561 -19.196 -21.819  0.00  0.00    +0.000 C 
ATOM     18  C   UNL     1      36.833 -18.384 -21.859  0.00  0.00    +0.000 C 
ATOM     19  C   UNL     1      35.557 -18.419 -22.411  0.00  0.00    +0.000 C 
ENDBRANCH   7  10
BRANCH   3  20
ATOM     20  S   UNL     1      37.604 -25.232 -12.208  0.00  0.00    +0.005 S 
ATOM     21  O   UNL     1      36.684 -25.894 -11.296  0.00  0.00    -0.169 OA
ATOM     22  O   UNL     1      38.724 -25.972 -12.771  0.00  0.00    -0.169 OA
BRANCH  20  23
ATOM     23  C   UNL     1      38.283 -23.818 -11.371  0.00  0.00    +0.156 C 
ATOM     24  C   UNL     1      37.197 -22.874 -10.907  0.00  0.00    +0.028 C 
ENDBRANCH  20  23
ENDBRANCH   3  20
TORSDOF 3
ENDMDL
MODEL 2
REMARK VINA RESULT:     -11.8      1.079      1.419
REMARK  Name = 25109292
REMARK  3 active torsions:
REMARK  status: ('A' for Active; 'I' for Inactive)
REMARK    1  A    between atoms: C_3  and  S_20
REMARK    2  A    between atoms: C_7  and  C_10
REMARK    3  A    between atoms: S_20  and  C_23
REMARK                            x       y       z     vdW  Elec       q    Type
REMARK                         _______ _______ _______ _____ _____    ______ ____
ROOT
ATOM      1  O   UNL     1      34.798 -22.738 -16.733  0.00  0.00    -0.425 OA
ATOM      2  N   UNL     1      36.956 -22.048 -16.655  0.00  0.00    -0.368 NA
ATOM      3  C   UNL     1      36.967 -24.204 -13.602  0.00  0.00    +0.091 C 
ATOM      4  C   UNL     1      36.703 -22.885 -15.595  0.00  0.00    +0.153 C 
ATOM      5  C   UNL     1      35.383 -23.309 -15.639  0.00  0.00    +0.174 C 
ATOM      6  C   UNL     1      37.526 -23.338 -14.553  0.00  0.00    +0.107 C 
ATOM      7  C   UNL     1      35.803 -22.001 -17.285  0.00  0.00    +0.282 C 
ATOM      8  C   UNL     1      35.628 -24.607 -13.683  0.00  0.00    +0.018 C 
ATOM      9  C   UNL     1      34.795 -24.165 -14.717  0.00  0.00    +0.041 C 
ENDROOT
BRANCH   7  10
ATOM     10  C   UNL     1      35.446 -21.278 -18.481  0.00  0.00    +0.066 C 
ATOM     11  C   UNL     1      36.058 -19.762 -20.283  0.00  0.00    +0.000 C 
ATOM     12  C   UNL     1      34.750 -19.872 -20.811  0.00  0.00    +0.000 C 
ATOM     13  C   UNL     1      36.391 -20.470 -19.117  0.00  0.00    +0.006 C 
ATOM     14  C   UNL     1      34.160 -21.387 -19.001  0.00  0.00    +0.006 C 
ATOM     15  C   UNL     1      33.812 -20.689 -20.158  0.00  0.00    +0.000 C 
ATOM     16  C   UNL     1      36.996 -18.945 -20.936  0.00  0.00    +0.000 C 
ATOM     17  C   UNL     1      34.418 -19.163 -21.977  0.00  0.00    +0.000 C 
ATOM     18  C   UNL     1      36.648 -18.248 -22.092  0.00  0.00    +0.000 C 
ATOM     19  C   UNL     1      35.362 -18.356 -22.612  0.00  0.00    +0.000 C 
ENDBRANCH   7  10
BRANCH   3  20
ATOM     20  S   UNL     1      37.963 -24.790 -12.289  0.00  0.00    +0.005 S 
ATOM     21  O   UNL     1      38.829 -23.699 -11.867  0.00  0.00    -0.169 OA
ATOM     22  O   UNL     1      37.112 -25.457 -11.315  0.00  0.00    -0.169 OA
BRANCH  20  23
ATOM     23  C   UNL     1      38.981 -26.041 -13.035  0.00  0.00    +0.156 C 
ATOM     24  C   UNL     1      40.226 -25.446 -13.655  0.00  0.00    +0.028 C 
ENDBRANCH  20  23
ENDBRANCH   3  20
TORSDOF 3
ENDMDL
MODEL 3
REMARK VINA RESULT:     -11.3      7.204     11.882
REMARK  Name = 25109292
REMARK  3 active torsions:
REMARK  status: ('A' for Active; 'I' for Inactive)
REMARK    1  A    between atoms: C_3  and  S_20
REMARK    2  A    between atoms: C_7  and  C_10
REMARK    3  A    between atoms: S_20  and  C_23
REMARK                            x       y       z     vdW  Elec       q    Type
REMARK                         _______ _______ _______ _____ _____    ______ ____
ROOT
ATOM      1  O   UNL     1      34.545 -17.063 -23.346  0.00  0.00    -0.425 OA
ATOM      2  N   UNL     1      34.976 -15.573 -21.693  0.00  0.00    -0.368 NA
ATOM      3  C   UNL     1      33.978 -13.150 -24.357  0.00  0.00    +0.091 C 
ATOM      4  C   UNL     1      34.575 -14.902 -22.823  0.00  0.00    +0.153 C 
ATOM      5  C   UNL     1      34.311 -15.810 -23.837  0.00  0.00    +0.174 C 
ATOM      6  C   UNL     1      34.407 -13.533 -23.078  0.00  0.00    +0.107 C 
ATOM      7  C   UNL     1      34.938 -16.835 -22.062  0.00  0.00    +0.282 C 
ATOM      8  C   UNL     1      33.722 -14.101 -25.354  0.00  0.00    +0.018 C 
ATOM      9  C   UNL     1      33.884 -15.469 -25.114  0.00  0.00    +0.041 C 
ENDROOT
BRANCH   7  10
ATOM     10  C   UNL     1      35.255 -18.018 -21.299  0.00  0.00    +0.066 C 
ATOM     11  C   UNL     1      34.523 -19.992 -20.079  0.00  0.00    +0.000 C 
ATOM     12  C   UNL     1      35.873 -20.321 -19.816  0.00  0.00    +0.000 C 
ATOM     13  C   UNL     1      34.230 -18.837 -20.822  0.00  0.00    +0.006 C 
ATOM     14  C   UNL     1      36.583 -18.342 -21.040  0.00  0.00    +0.006 C 
ATOM     15  C   UNL     1      36.892 -19.487 -20.303  0.00  0.00    +0.000 C 
ATOM     16  C   UNL     1      33.504 -20.827 -19.592  0.00  0.00    +0.000 C 
ATOM     17  C   UNL     1      36.166 -21.477 -19.073  0.00  0.00    +0.000 C 
ATOM     18  C   UNL     1      33.813 -21.970 -18.855  0.00  0.00    +0.000 C 
ATOM     19  C   UNL     1      35.141 -22.294 -18.596  0.00  0.00    +0.000 C 
ENDBRANCH   7  10
BRANCH   3  20
ATOM     20  S   UNL     1      33.758 -11.452 -24.712  0.00  0.00    +0.005 S 
ATOM     21  O   UNL     1      35.060 -10.894 -25.045  0.00  0.00    -0.169 OA
ATOM     22  O   UNL     1      32.648 -11.306 -25.643  0.00  0.00    -0.169 OA
BRANCH  20  23
ATOM     23  C   UNL     1      33.237 -10.744 -23.167  0.00  0.00    +0.156 C 
ATOM     24  C   UNL     1      33.522  -9.259 -23.113  0.00  0.00    +0.028 C 
ENDBRANCH  20  23
ENDBRANCH   3  20
TORSDOF 3
ENDMDL
MODEL 4
REMARK VINA RESULT:     -10.9      2.207      3.470
REMARK  Name = 25109292
REMARK  3 active torsions:
REMARK  status: ('A' for Active; 'I' for Inactive)
REMARK    1  A    between atoms: C_3  and  S_20
REMARK    2  A    between atoms: C_7  and  C_10
REMARK    3  A    between atoms: S_20  and  C_23
REMARK                            x       y       z     vdW  Elec       q    Type
REMARK                         _______ _______ _______ _____ _____    ______ ____
ROOT
ATOM      1  O   UNL     1      34.171 -20.985 -19.448  0.00  0.00    -0.425 OA
ATOM      2  N   UNL     1      36.343 -20.465 -19.061  0.00  0.00    -0.368 NA
ATOM      3  C   UNL     1      35.856 -22.878 -16.250  0.00  0.00    +0.091 C 
ATOM      4  C   UNL     1      35.914 -21.372 -18.122  0.00  0.00    +0.153 C 
ATOM      5  C   UNL     1      34.585 -21.692 -18.356  0.00  0.00    +0.174 C 
ATOM      6  C   UNL     1      36.577 -21.975 -17.043  0.00  0.00    +0.107 C 
ATOM      7  C   UNL     1      35.278 -20.277 -19.809  0.00  0.00    +0.282 C 
ATOM      8  C   UNL     1      34.514 -23.174 -16.520  0.00  0.00    +0.018 C 
ATOM      9  C   UNL     1      33.839 -22.582 -17.593  0.00  0.00    +0.041 C 
ENDROOT
BRANCH   7  10
ATOM     10  C   UNL     1      35.112 -19.427 -20.963  0.00  0.00    +0.066 C 
ATOM     11  C   UNL     1      35.038 -17.199 -21.939  0.00  0.00    +0.000 C 
ATOM     12  C   UNL     1      34.790 -17.772 -23.209  0.00  0.00    +0.000 C 
ATOM     13  C   UNL     1      35.196 -18.040 -20.826  0.00  0.00    +0.006 C 
ATOM     14  C   UNL     1      34.870 -19.990 -22.211  0.00  0.00    +0.006 C 
ATOM     15  C   UNL     1      34.709 -19.169 -23.329  0.00  0.00    +0.000 C 
ATOM     16  C   UNL     1      35.119 -15.803 -21.820  0.00  0.00    +0.000 C 
ATOM     17  C   UNL     1      34.632 -16.932 -24.323  0.00  0.00    +0.000 C 
ATOM     18  C   UNL     1      34.958 -14.983 -22.937  0.00  0.00    +0.000 C 
ATOM     19  C   UNL     1      34.715 -15.546 -24.185  0.00  0.00    +0.000 C 
ENDBRANCH   7  10
BRANCH   3  20
ATOM     20  S   UNL     1      36.650 -23.650 -14.895  0.00  0.00    +0.005 S 
ATOM     21  O   UNL     1      36.433 -25.084 -15.010  0.00  0.00    -0.169 OA
ATOM     22  O   UNL     1      38.005 -23.128 -14.786  0.00  0.00    -0.169 OA
BRANCH  20  23
ATOM     23  C   UNL     1      35.753 -23.072 -13.474  0.00  0.00    +0.156 C 
ATOM     24  C   UNL     1      35.010 -24.199 -12.791  0.00  0.00    +0.028 C 
ENDBRANCH  20  23
ENDBRANCH   3  20
TORSDOF 3
ENDMDL
MODEL 5
REMARK VINA RESULT:     -10.6      8.213     11.917
REMARK  Name = 25109292
REMARK  3 active torsions:
REMARK  status: ('A' for Active; 'I' for Inactive)
REMARK    1  A    between atoms: C_3  and  S_20
REMARK    2  A    between atoms: C_7  and  C_10
REMARK    3  A    between atoms: S_20  and  C_23
REMARK                            x       y       z     vdW  Elec       q    Type
REMARK                         _______ _______ _______ _____ _____    ______ ____
ROOT
ATOM      1  O   UNL     1      33.666 -13.452 -24.291  0.00  0.00    -0.425 OA
ATOM      2  N   UNL     1      34.706 -13.529 -22.279  0.00  0.00    -0.368 NA
ATOM      3  C   UNL     1      34.886 -17.166 -23.119  0.00  0.00    +0.091 C 
ATOM      4  C   UNL     1      34.645 -14.793 -22.813  0.00  0.00    +0.153 C 
ATOM      5  C   UNL     1      34.009 -14.750 -24.044  0.00  0.00    +0.174 C 
ATOM      6  C   UNL     1      35.100 -16.028 -22.327  0.00  0.00    +0.107 C 
ATOM      7  C   UNL     1      34.117 -12.787 -23.191  0.00  0.00    +0.282 C 
ATOM      8  C   UNL     1      34.238 -17.078 -24.358  0.00  0.00    +0.018 C 
ATOM      9  C   UNL     1      33.780 -15.854 -24.856  0.00  0.00    +0.041 C 
ENDROOT
BRANCH   7  10
ATOM     10  C   UNL     1      33.877 -11.364 -23.194  0.00  0.00    +0.066 C 
ATOM     11  C   UNL     1      32.608  -9.444 -22.406  0.00  0.00    +0.000 C 
ATOM     12  C   UNL     1      33.414  -8.594 -23.200  0.00  0.00    +0.000 C 
ATOM     13  C   UNL     1      32.852 -10.827 -22.414  0.00  0.00    +0.006 C 
ATOM     14  C   UNL     1      34.670 -10.528 -23.974  0.00  0.00    +0.006 C 
ATOM     15  C   UNL     1      34.441  -9.151 -23.979  0.00  0.00    +0.000 C 
ATOM     16  C   UNL     1      31.581  -8.886 -21.627  0.00  0.00    +0.000 C 
ATOM     17  C   UNL     1      33.169  -7.211 -23.192  0.00  0.00    +0.000 C 
ATOM     18  C   UNL     1      31.352  -7.510 -21.631  0.00  0.00    +0.000 C 
ATOM     19  C   UNL     1      32.144  -6.675 -22.412  0.00  0.00    +0.000 C 
ENDBRANCH   7  10
BRANCH   3  20
ATOM     20  S   UNL     1      35.440 -18.723 -22.546  0.00  0.00    +0.005 S 
ATOM     21  O   UNL     1      34.987 -19.732 -23.493  0.00  0.00    -0.169 OA
ATOM     22  O   UNL     1      36.853 -18.626 -22.212  0.00  0.00    -0.169 OA
BRANCH  20  23
ATOM     23  C   UNL     1      34.559 -18.967 -21.021  0.00  0.00    +0.156 C 
ATOM     24  C   UNL     1      35.140 -20.114 -20.224  0.00  0.00    +0.028 C 
ENDBRANCH  20  23
ENDBRANCH   3  20
TORSDOF 3
ENDMDL
MODEL 6
REMARK VINA RESULT:     -10.5     10.123     14.293
REMARK  Name = 25109292
REMARK  3 active torsions:
REMARK  status: ('A' for Active; 'I' for Inactive)
REMARK    1  A    between atoms: C_3  and  S_20
REMARK    2  A    between atoms: C_7  and  C_10
REMARK    3  A    between atoms: S_20  and  C_23
REMARK                            x       y       z     vdW  Elec       q    Type
REMARK                         _______ _______ _______ _____ _____    ______ ____
ROOT
ATOM      1  O   UNL     1      32.643 -12.442 -21.874  0.00  0.00    -0.425 OA
ATOM      2  N   UNL     1      34.052 -11.641 -23.459  0.00  0.00    -0.368 NA
ATOM      3  C   UNL     1      32.370  -8.428 -22.557  0.00  0.00    +0.091 C 
ATOM      4  C   UNL     1      33.295 -10.611 -22.955  0.00  0.00    +0.153 C 
ATOM      5  C   UNL     1      32.432 -11.098 -21.985  0.00  0.00    +0.174 C 
ATOM      6  C   UNL     1      33.272  -9.241 -23.258  0.00  0.00    +0.107 C 
ATOM      7  C   UNL     1      33.625 -12.687 -22.788  0.00  0.00    +0.282 C 
ATOM      8  C   UNL     1      31.514  -8.960 -21.585  0.00  0.00    +0.018 C 
ATOM      9  C   UNL     1      31.526 -10.324 -21.271  0.00  0.00    +0.041 C 
ENDROOT
BRANCH   7  10
ATOM     10  C   UNL     1      34.047 -14.064 -22.878  0.00  0.00    +0.066 C 
ATOM     11  C   UNL     1      34.918 -16.071 -21.813  0.00  0.00    +0.000 C 
ATOM     12  C   UNL     1      34.866 -16.744 -23.057  0.00  0.00    +0.000 C 
ATOM     13  C   UNL     1      34.505 -14.730 -21.741  0.00  0.00    +0.006 C 
ATOM     14  C   UNL     1      33.995 -14.727 -24.100  0.00  0.00    +0.006 C 
ATOM     15  C   UNL     1      34.402 -16.059 -24.191  0.00  0.00    +0.000 C 
ATOM     16  C   UNL     1      35.382 -16.756 -20.679  0.00  0.00    +0.000 C 
ATOM     17  C   UNL     1      35.279 -18.085 -23.129  0.00  0.00    +0.000 C 
ATOM     18  C   UNL     1      35.789 -18.087 -20.770  0.00  0.00    +0.000 C 
ATOM     19  C   UNL     1      35.738 -18.750 -21.992  0.00  0.00    +0.000 C 
ENDBRANCH   7  10
BRANCH   3  20
ATOM     20  S   UNL     1      32.313  -6.715 -22.908  0.00  0.00    +0.005 S 
ATOM     21  O   UNL     1      33.678  -6.260 -23.126  0.00  0.00    -0.169 OA
ATOM     22  O   UNL     1      31.300  -6.477 -23.925  0.00  0.00    -0.169 OA
BRANCH  20  23
ATOM     23  C   UNL     1      31.723  -5.978 -21.402  0.00  0.00    +0.156 C 
ATOM     24  C   UNL     1      30.399  -5.277 -21.609  0.00  0.00    +0.028 C 
ENDBRANCH  20  23
ENDBRANCH   3  20
TORSDOF 3
ENDMDL
MODEL 7
REMARK VINA RESULT:     -10.4      9.706     13.960
REMARK  Name = 25109292
REMARK  3 active torsions:
REMARK  status: ('A' for Active; 'I' for Inactive)
REMARK    1  A    between atoms: C_3  and  S_20
REMARK    2  A    between atoms: C_7  and  C_10
REMARK    3  A    between atoms: S_20  and  C_23
REMARK                            x       y       z     vdW  Elec       q    Type
REMARK                         _______ _______ _______ _____ _____    ______ ____
ROOT
ATOM      1  O   UNL     1      34.614 -12.160 -23.659  0.00  0.00    -0.425 OA
ATOM      2  N   UNL     1      32.867 -12.376 -22.231  0.00  0.00    -0.368 NA
ATOM      3  C   UNL     1      32.713  -8.674 -22.720  0.00  0.00    +0.091 C 
ATOM      4  C   UNL     1      33.022 -11.053 -22.572  0.00  0.00    +0.153 C 
ATOM      5  C   UNL     1      34.090 -10.918 -23.446  0.00  0.00    +0.174 C 
ATOM      6  C   UNL     1      32.307  -9.908 -22.192  0.00  0.00    +0.107 C 
ATOM      7  C   UNL     1      33.829 -12.974 -22.899  0.00  0.00    +0.282 C 
ATOM      8  C   UNL     1      33.799  -8.581 -23.600  0.00  0.00    +0.018 C 
ATOM      9  C   UNL     1      34.521  -9.714 -23.989  0.00  0.00    +0.041 C 
ENDROOT
BRANCH   7  10
ATOM     10  C   UNL     1      34.174 -14.374 -22.943  0.00  0.00    +0.066 C 
ATOM     11  C   UNL     1      34.955 -16.384 -21.815  0.00  0.00    +0.000 C 
ATOM     12  C   UNL     1      34.844 -17.100 -23.030  0.00  0.00    +0.000 C 
ATOM     13  C   UNL     1      34.617 -15.021 -21.788  0.00  0.00    +0.006 C 
ATOM     14  C   UNL     1      34.064 -15.079 -24.137  0.00  0.00    +0.006 C 
ATOM     15  C   UNL     1      34.397 -16.434 -24.183  0.00  0.00    +0.000 C 
ATOM     16  C   UNL     1      35.402 -17.050 -20.662  0.00  0.00    +0.000 C 
ATOM     17  C   UNL     1      35.182 -18.463 -23.057  0.00  0.00    +0.000 C 
ATOM     18  C   UNL     1      35.735 -18.404 -20.708  0.00  0.00    +0.000 C 
ATOM     19  C   UNL     1      35.626 -19.109 -21.903  0.00  0.00    +0.000 C 
ENDBRANCH   7  10
BRANCH   3  20
ATOM     20  S   UNL     1      31.846  -7.223 -22.268  0.00  0.00    +0.005 S 
ATOM     21  O   UNL     1      32.648  -6.080 -22.677  0.00  0.00    -0.169 OA
ATOM     22  O   UNL     1      30.468  -7.340 -22.720  0.00  0.00    -0.169 OA
BRANCH  20  23
ATOM     23  C   UNL     1      31.817  -7.265 -20.491  0.00  0.00    +0.156 C 
ATOM     24  C   UNL     1      33.211  -7.171 -19.911  0.00  0.00    +0.028 C 
ENDBRANCH  20  23
ENDBRANCH   3  20
TORSDOF 3
ENDMDL
MODEL 8
REMARK VINA RESULT:     -10.3      1.946      3.266
REMARK  Name = 25109292
REMARK  3 active torsions:
REMARK  status: ('A' for Active; 'I' for Inactive)
REMARK    1  A    between atoms: C_3  and  S_20
REMARK    2  A    between atoms: C_7  and  C_10
REMARK    3  A    between atoms: S_20  and  C_23
REMARK                            x       y       z     vdW  Elec       q    Type
REMARK                         _______ _______ _______ _____ _____    ______ ____
ROOT
ATOM      1  O   UNL     1      34.628 -21.291 -18.872  0.00  0.00    -0.425 OA
ATOM      2  N   UNL     1      36.771 -20.761 -18.358  0.00  0.00    -0.368 NA
ATOM      3  C   UNL     1      36.129 -23.175 -15.578  0.00  0.00    +0.091 C 
ATOM      4  C   UNL     1      36.291 -21.670 -17.445  0.00  0.00    +0.153 C 
ATOM      5  C   UNL     1      34.980 -21.996 -17.757  0.00  0.00    +0.174 C 
ATOM      6  C   UNL     1      36.892 -22.269 -16.329  0.00  0.00    +0.107 C 
ATOM      7  C   UNL     1      35.751 -20.579 -19.168  0.00  0.00    +0.282 C 
ATOM      8  C   UNL     1      34.806 -23.476 -15.927  0.00  0.00    +0.018 C 
ATOM      9  C   UNL     1      34.194 -22.887 -17.038  0.00  0.00    +0.041 C 
ENDROOT
BRANCH   7  10
ATOM     10  C   UNL     1      35.650 -19.729 -20.330  0.00  0.00    +0.066 C 
ATOM     11  C   UNL     1      34.532 -19.131 -22.406  0.00  0.00    +0.000 C 
ATOM     12  C   UNL     1      35.454 -18.074 -22.590  0.00  0.00    +0.000 C 
ATOM     13  C   UNL     1      34.644 -19.950 -21.271  0.00  0.00    +0.006 C 
ATOM     14  C   UNL     1      36.556 -18.689 -20.510  0.00  0.00    +0.006 C 
ATOM     15  C   UNL     1      36.460 -17.865 -21.633  0.00  0.00    +0.000 C 
ATOM     16  C   UNL     1      33.525 -19.340 -23.363  0.00  0.00    +0.000 C 
ATOM     17  C   UNL     1      35.342 -17.255 -23.725  0.00  0.00    +0.000 C 
ATOM     18  C   UNL     1      33.429 -18.517 -24.485  0.00  0.00    +0.000 C 
ATOM     19  C   UNL     1      34.336 -17.477 -24.666  0.00  0.00    +0.000 C 
ENDBRANCH   7  10
BRANCH   3  20
ATOM     20  S   UNL     1      36.845 -23.942 -14.178  0.00  0.00    +0.005 S 
ATOM     21  O   UNL     1      38.291 -23.869 -14.323  0.00  0.00    -0.169 OA
ATOM     22  O   UNL     1      36.210 -23.418 -12.979  0.00  0.00    -0.169 OA
BRANCH  20  23
ATOM     23  C   UNL     1      36.365 -25.648 -14.320  0.00  0.00    +0.156 C 
ATOM     24  C   UNL     1      37.557 -26.572 -14.193  0.00  0.00    +0.028 C 
ENDBRANCH  20  23
ENDBRANCH   3  20
TORSDOF 3
ENDMDL
MODEL 9
REMARK VINA RESULT:     -10.2      1.040      1.878
REMARK  Name = 25109292
REMARK  3 active torsions:
REMARK  status: ('A' for Active; 'I' for Inactive)
REMARK    1  A    between atoms: C_3  and  S_20
REMARK    2  A    between atoms: C_7  and  C_10
REMARK    3  A    between atoms: S_20  and  C_23
REMARK                            x       y       z     vdW  Elec       q    Type
REMARK                         _______ _______ _______ _____ _____    ______ ____
ROOT
ATOM      1  O   UNL     1      34.776 -22.065 -17.620  0.00  0.00    -0.425 OA
ATOM      2  N   UNL     1      36.941 -21.782 -17.009  0.00  0.00    -0.368 NA
ATOM      3  C   UNL     1      35.891 -24.060 -14.239  0.00  0.00    +0.091 C 
ATOM      4  C   UNL     1      36.315 -22.613 -16.112  0.00  0.00    +0.153 C 
ATOM      5  C   UNL     1      34.991 -22.788 -16.482  0.00  0.00    +0.174 C 
ATOM      6  C   UNL     1      36.789 -23.261 -14.962  0.00  0.00    +0.107 C 
ATOM      7  C   UNL     1      35.988 -21.494 -17.869  0.00  0.00    +0.282 C 
ATOM      8  C   UNL     1      34.559 -24.210 -14.648  0.00  0.00    +0.018 C 
ATOM      9  C   UNL     1      34.072 -23.571 -15.793  0.00  0.00    +0.041 C 
ENDROOT
BRANCH   7  10
ATOM     10  C   UNL     1      36.042 -20.657 -19.043  0.00  0.00    +0.066 C 
ATOM     11  C   UNL     1      34.962 -19.734 -21.018  0.00  0.00    +0.000 C 
ATOM     12  C   UNL     1      36.147 -19.025 -21.326  0.00  0.00    +0.000 C 
ATOM     13  C   UNL     1      34.925 -20.546 -19.873  0.00  0.00    +0.006 C 
ATOM     14  C   UNL     1      37.207 -19.959 -19.346  0.00  0.00    +0.006 C 
ATOM     15  C   UNL     1      37.261 -19.148 -20.480  0.00  0.00    +0.000 C 
ATOM     16  C   UNL     1      33.848 -19.611 -21.864  0.00  0.00    +0.000 C 
ATOM     17  C   UNL     1      36.184 -18.213 -22.472  0.00  0.00    +0.000 C 
ATOM     18  C   UNL     1      33.902 -18.800 -22.998  0.00  0.00    +0.000 C 
ATOM     19  C   UNL     1      35.067 -18.103 -23.301  0.00  0.00    +0.000 C 
ENDBRANCH   7  10
BRANCH   3  20
ATOM     20  S   UNL     1      36.446 -24.884 -12.800  0.00  0.00    +0.005 S 
ATOM     21  O   UNL     1      35.389 -24.799 -11.803  0.00  0.00    -0.169 OA
ATOM     22  O   UNL     1      36.981 -26.183 -13.178  0.00  0.00    -0.169 OA
BRANCH  20  23
ATOM     23  C   UNL     1      37.815 -23.901 -12.233  0.00  0.00    +0.156 C 
ATOM     24  C   UNL     1      37.370 -22.852 -11.238  0.00  0.00    +0.028 C 
ENDBRANCH  20  23
ENDBRANCH   3  20
TORSDOF 3
ENDMDL
