MODEL 1
REMARK VINA RESULT:     -12.5      0.000      0.000
REMARK  Name = 10407120
REMARK  4 active torsions:
REMARK  status: ('A' for Active; 'I' for Inactive)
REMARK    1  A    between atoms: N_2  and  C_19
REMARK    2  A    between atoms: C_3  and  C_6
REMARK    3  A    between atoms: C_5  and  C_16
REMARK    4  A    between atoms: C_19  and  C_21
REMARK                            x       y       z     vdW  Elec       q    Type
REMARK                         _______ _______ _______ _____ _____    ______ ____
ROOT
ATOM      1  O   UNL     1      33.263 -16.512 -25.260  0.00  0.00    -0.270 OA
ATOM      2  N   UNL     1      34.061 -14.443 -24.563  0.00  0.00    -0.267 N 
ATOM      3  C   UNL     1      33.893 -15.827 -24.454  0.00  0.00    +0.250 C 
ATOM      4  C   UNL     1      33.465 -13.738 -25.689  0.00  0.00    +0.116 C 
ENDROOT
BRANCH   3   6
ATOM      5  C   UNL     1      34.567 -17.821 -23.161  0.00  0.00    +0.006 C 
ATOM      6  C   UNL     1      34.508 -16.471 -23.255  0.00  0.00    +0.058 C 
BRANCH   5  16
ATOM      7  O   UNL     1      36.656 -22.166 -17.154  0.00  0.00    -0.275 OA
ATOM      8  N   UNL     1      36.778 -20.600 -18.829  0.00  0.00    -0.270 N 
ATOM      9  N   UNL     1      36.986 -19.035 -20.590  0.00  0.00    -0.229 NA
ATOM     10  C   UNL     1      34.042 -21.070 -19.398  0.00  0.00    +0.039 C 
ATOM     11  C   UNL     1      34.876 -20.164 -20.251  0.00  0.00    +0.010 C 
ATOM     12  C   UNL     1      34.894 -22.166 -18.779  0.00  0.00    +0.090 C 
ATOM     13  C   UNL     1      36.209 -19.920 -19.924  0.00  0.00    +0.130 C 
ATOM     14  C   UNL     1      34.326 -19.461 -21.324  0.00  0.00    +0.000 C 
ATOM     15  C   UNL     1      36.166 -21.635 -18.150  0.00  0.00    +0.227 C 
ATOM     16  C   UNL     1      35.111 -18.561 -22.037  0.00  0.00    +0.019 C 
ATOM     17  C   UNL     1      36.421 -18.384 -21.632  0.00  0.00    +0.100 C 
ATOM     18  H   UNL     1      37.672 -20.318 -18.528  0.00  0.00    +0.156 HD
ENDBRANCH   5  16
ENDBRANCH   3   6
BRANCH   2  19
ATOM     19  C   UNL     1      34.775 -13.605 -23.601  0.00  0.00    +0.158 C 
BRANCH  19  21
ATOM     20  O   UNL     1      33.057 -12.870 -22.096  0.00  0.00    -0.456 OA
ATOM     21  C   UNL     1      33.911 -12.500 -23.069  0.00  0.00    +0.139 A 
ATOM     22  C   UNL     1      33.818 -11.184 -23.377  0.00  0.00    +0.013 A 
ATOM     23  C   UNL     1      32.811 -10.665 -22.521  0.00  0.00    +0.033 A 
ATOM     24  C   UNL     1      32.374 -11.741 -21.755  0.00  0.00    +0.145 A 
ATOM     25  C   UNL     1      34.595 -10.439 -24.387  0.00  0.00    +0.034 C 
ATOM     26  C   UNL     1      32.221  -9.407 -22.311  0.00  0.00    +0.003 C 
ATOM     27  C   UNL     1      31.382 -11.655 -20.780  0.00  0.00    +0.037 C 
ATOM     28  C   UNL     1      31.218  -9.289 -21.338  0.00  0.00    +0.000 C 
ATOM     29  C   UNL     1      30.808 -10.395 -20.589  0.00  0.00    +0.003 C 
ENDBRANCH  19  21
ENDBRANCH   2  19
TORSDOF 4
ENDMDL
MODEL 2
REMARK VINA RESULT:     -12.5      1.472      2.247
REMARK  Name = 10407120
REMARK  4 active torsions:
REMARK  status: ('A' for Active; 'I' for Inactive)
REMARK    1  A    between atoms: N_2  and  C_19
REMARK    2  A    between atoms: C_3  and  C_6
REMARK    3  A    between atoms: C_5  and  C_16
REMARK    4  A    between atoms: C_19  and  C_21
REMARK                            x       y       z     vdW  Elec       q    Type
REMARK                         _______ _______ _______ _____ _____    ______ ____
ROOT
ATOM      1  O   UNL     1      33.517 -17.756 -25.127  0.00  0.00    -0.270 OA
ATOM      2  N   UNL     1      34.495 -15.781 -24.388  0.00  0.00    -0.267 N 
ATOM      3  C   UNL     1      34.219 -17.149 -24.317  0.00  0.00    +0.250 C 
ATOM      4  C   UNL     1      33.932 -14.994 -25.477  0.00  0.00    +0.116 C 
ENDROOT
BRANCH   3   6
ATOM      5  C   UNL     1      34.057 -18.760 -22.451  0.00  0.00    +0.006 C 
ATOM      6  C   UNL     1      34.808 -17.879 -23.155  0.00  0.00    +0.058 C 
BRANCH   5  16
ATOM      7  O   UNL     1      35.595 -23.009 -16.213  0.00  0.00    -0.275 OA
ATOM      8  N   UNL     1      35.913 -21.569 -17.974  0.00  0.00    -0.270 N 
ATOM      9  N   UNL     1      36.314 -20.148 -19.821  0.00  0.00    -0.229 NA
ATOM     10  C   UNL     1      33.132 -21.691 -18.509  0.00  0.00    +0.039 C 
ATOM     11  C   UNL     1      34.073 -20.957 -19.413  0.00  0.00    +0.010 C 
ATOM     12  C   UNL     1      33.833 -22.858 -17.831  0.00  0.00    +0.090 C 
ATOM     13  C   UNL     1      35.430 -20.880 -19.104  0.00  0.00    +0.130 C 
ATOM     14  C   UNL     1      33.614 -20.246 -20.523  0.00  0.00    +0.000 C 
ATOM     15  C   UNL     1      35.172 -22.472 -17.236  0.00  0.00    +0.227 C 
ATOM     16  C   UNL     1      34.506 -19.504 -21.288  0.00  0.00    +0.019 C 
ATOM     17  C   UNL     1      35.832 -19.485 -20.897  0.00  0.00    +0.100 C 
ATOM     18  H   UNL     1      36.839 -21.396 -17.692  0.00  0.00    +0.156 HD
ENDBRANCH   5  16
ENDBRANCH   3   6
BRANCH   2  19
ATOM     19  C   UNL     1      35.297 -15.034 -23.420  0.00  0.00    +0.158 C 
BRANCH  19  21
ATOM     20  O   UNL     1      33.892 -13.121 -23.060  0.00  0.00    -0.456 OA
ATOM     21  C   UNL     1      34.443 -14.214 -22.498  0.00  0.00    +0.139 A 
ATOM     22  C   UNL     1      34.110 -14.358 -21.193  0.00  0.00    +0.013 A 
ATOM     23  C   UNL     1      33.268 -13.254 -20.893  0.00  0.00    +0.033 A 
ATOM     24  C   UNL     1      33.167 -12.524 -22.073  0.00  0.00    +0.145 A 
ATOM     25  C   UNL     1      34.528 -15.431 -20.269  0.00  0.00    +0.034 C 
ATOM     26  C   UNL     1      32.583 -12.792 -19.756  0.00  0.00    +0.003 C 
ATOM     27  C   UNL     1      32.423 -11.354 -22.207  0.00  0.00    +0.037 C 
ATOM     28  C   UNL     1      31.826 -11.616 -19.859  0.00  0.00    +0.000 C 
ATOM     29  C   UNL     1      31.750 -10.912 -21.064  0.00  0.00    +0.003 C 
ENDBRANCH  19  21
ENDBRANCH   2  19
TORSDOF 4
ENDMDL
MODEL 3
REMARK VINA RESULT:     -12.4      0.800      1.565
REMARK  Name = 10407120
REMARK  4 active torsions:
REMARK  status: ('A' for Active; 'I' for Inactive)
REMARK    1  A    between atoms: N_2  and  C_19
REMARK    2  A    between atoms: C_3  and  C_6
REMARK    3  A    between atoms: C_5  and  C_16
REMARK    4  A    between atoms: C_19  and  C_21
REMARK                            x       y       z     vdW  Elec       q    Type
REMARK                         _______ _______ _______ _____ _____    ______ ____
ROOT
ATOM      1  O   UNL     1      33.323 -16.354 -25.188  0.00  0.00    -0.270 OA
ATOM      2  N   UNL     1      33.991 -14.286 -24.363  0.00  0.00    -0.267 N 
ATOM      3  C   UNL     1      33.900 -15.680 -24.333  0.00  0.00    +0.250 C 
ATOM      4  C   UNL     1      33.376 -13.553 -25.462  0.00  0.00    +0.116 C 
ENDROOT
BRANCH   3   6
ATOM      5  C   UNL     1      34.561 -17.707 -23.086  0.00  0.00    +0.006 C 
ATOM      6  C   UNL     1      34.529 -16.355 -23.159  0.00  0.00    +0.058 C 
BRANCH   5  16
ATOM      7  O   UNL     1      36.704 -22.195 -17.203  0.00  0.00    -0.275 OA
ATOM      8  N   UNL     1      36.814 -20.595 -18.847  0.00  0.00    -0.270 N 
ATOM      9  N   UNL     1      37.009 -18.995 -20.579  0.00  0.00    -0.229 NA
ATOM     10  C   UNL     1      34.065 -21.029 -19.383  0.00  0.00    +0.039 C 
ATOM     11  C   UNL     1      34.894 -20.112 -20.230  0.00  0.00    +0.010 C 
ATOM     12  C   UNL     1      34.917 -22.145 -18.800  0.00  0.00    +0.090 C 
ATOM     13  C   UNL     1      36.234 -19.888 -19.919  0.00  0.00    +0.130 C 
ATOM     14  C   UNL     1      34.334 -19.382 -21.279  0.00  0.00    +0.000 C 
ATOM     15  C   UNL     1      36.204 -21.638 -18.180  0.00  0.00    +0.227 C 
ATOM     16  C   UNL     1      35.115 -18.475 -21.986  0.00  0.00    +0.019 C 
ATOM     17  C   UNL     1      36.433 -18.318 -21.598  0.00  0.00    +0.100 C 
ATOM     18  H   UNL     1      37.715 -20.327 -18.555  0.00  0.00    +0.156 HD
ENDBRANCH   5  16
ENDBRANCH   3   6
BRANCH   2  19
ATOM     19  C   UNL     1      34.641 -13.464 -23.343  0.00  0.00    +0.158 C 
BRANCH  19  21
ATOM     20  O   UNL     1      33.951 -11.171 -23.502  0.00  0.00    -0.456 OA
ATOM     21  C   UNL     1      33.755 -12.346 -22.875  0.00  0.00    +0.139 A 
ATOM     22  C   UNL     1      32.783 -12.284 -21.935  0.00  0.00    +0.013 A 
ATOM     23  C   UNL     1      32.313 -10.945 -21.962  0.00  0.00    +0.033 A 
ATOM     24  C   UNL     1      33.064 -10.302 -22.942  0.00  0.00    +0.145 A 
ATOM     25  C   UNL     1      32.304 -13.374 -21.060  0.00  0.00    +0.034 C 
ATOM     26  C   UNL     1      31.340 -10.206 -21.269  0.00  0.00    +0.003 C 
ATOM     27  C   UNL     1      32.913  -8.960 -23.286  0.00  0.00    +0.037 C 
ATOM     28  C   UNL     1      31.165  -8.853 -21.593  0.00  0.00    +0.000 C 
ATOM     29  C   UNL     1      31.940  -8.244 -22.584  0.00  0.00    +0.003 C 
ENDBRANCH  19  21
ENDBRANCH   2  19
TORSDOF 4
ENDMDL
MODEL 4
REMARK VINA RESULT:     -12.3      2.335      9.211
REMARK  Name = 10407120
REMARK  4 active torsions:
REMARK  status: ('A' for Active; 'I' for Inactive)
REMARK    1  A    between atoms: N_2  and  C_19
REMARK    2  A    between atoms: C_3  and  C_6
REMARK    3  A    between atoms: C_5  and  C_16
REMARK    4  A    between atoms: C_19  and  C_21
REMARK                            x       y       z     vdW  Elec       q    Type
REMARK                         _______ _______ _______ _____ _____    ______ ____
ROOT
ATOM      1  O   UNL     1      33.860 -16.376 -25.509  0.00  0.00    -0.270 OA
ATOM      2  N   UNL     1      34.707 -17.195 -23.505  0.00  0.00    -0.267 N 
ATOM      3  C   UNL     1      34.241 -16.186 -24.352  0.00  0.00    +0.250 C 
ATOM      4  C   UNL     1      34.759 -18.567 -23.989  0.00  0.00    +0.116 C 
ENDROOT
BRANCH   3   6
ATOM      5  C   UNL     1      33.082 -14.151 -23.567  0.00  0.00    +0.006 C 
ATOM      6  C   UNL     1      34.248 -14.802 -23.793  0.00  0.00    +0.058 C 
BRANCH   5  16
ATOM      7  O   UNL     1      31.978  -7.323 -20.176  0.00  0.00    -0.275 OA
ATOM      8  N   UNL     1      32.675  -8.881 -21.714  0.00  0.00    -0.270 N 
ATOM      9  N   UNL     1      33.487 -10.451 -23.285  0.00  0.00    -0.229 NA
ATOM     10  C   UNL     1      31.260 -10.866 -20.269  0.00  0.00    +0.039 C 
ATOM     11  C   UNL     1      32.124 -11.216 -21.441  0.00  0.00    +0.010 C 
ATOM     12  C   UNL     1      31.789  -9.631 -19.556  0.00  0.00    +0.090 C 
ATOM     13  C   UNL     1      32.777 -10.214 -22.157  0.00  0.00    +0.130 C 
ATOM     14  C   UNL     1      32.219 -12.526 -21.912  0.00  0.00    +0.000 C 
ATOM     15  C   UNL     1      32.117  -8.500 -20.509  0.00  0.00    +0.227 C 
ATOM     16  C   UNL     1      32.960 -12.798 -23.057  0.00  0.00    +0.019 C 
ATOM     17  C   UNL     1      33.567 -11.735 -23.701  0.00  0.00    +0.100 C 
ATOM     18  H   UNL     1      33.024  -8.173 -22.302  0.00  0.00    +0.156 HD
ENDBRANCH   5  16
ENDBRANCH   3   6
BRANCH   2  19
ATOM     19  C   UNL     1      35.195 -16.989 -22.142  0.00  0.00    +0.158 C 
BRANCH  19  21
ATOM     20  O   UNL     1      33.901 -18.679 -21.033  0.00  0.00    -0.456 OA
ATOM     21  C   UNL     1      35.142 -18.250 -21.330  0.00  0.00    +0.139 A 
ATOM     22  C   UNL     1      36.110 -19.055 -20.830  0.00  0.00    +0.013 A 
ATOM     23  C   UNL     1      35.424 -20.095 -20.150  0.00  0.00    +0.033 A 
ATOM     24  C   UNL     1      34.069 -19.818 -20.304  0.00  0.00    +0.145 A 
ATOM     25  C   UNL     1      37.572 -18.893 -20.959  0.00  0.00    +0.034 C 
ATOM     26  C   UNL     1      35.797 -21.238 -19.423  0.00  0.00    +0.003 C 
ATOM     27  C   UNL     1      33.046 -20.606 -19.781  0.00  0.00    +0.037 C 
ATOM     28  C   UNL     1      34.790 -22.050 -18.884  0.00  0.00    +0.000 C 
ATOM     29  C   UNL     1      33.440 -21.737 -19.060  0.00  0.00    +0.003 C 
ENDBRANCH  19  21
ENDBRANCH   2  19
TORSDOF 4
ENDMDL
MODEL 5
REMARK VINA RESULT:     -12.0      1.148      1.361
REMARK  Name = 10407120
REMARK  4 active torsions:
REMARK  status: ('A' for Active; 'I' for Inactive)
REMARK    1  A    between atoms: N_2  and  C_19
REMARK    2  A    between atoms: C_3  and  C_6
REMARK    3  A    between atoms: C_5  and  C_16
REMARK    4  A    between atoms: C_19  and  C_21
REMARK                            x       y       z     vdW  Elec       q    Type
REMARK                         _______ _______ _______ _____ _____    ______ ____
ROOT
ATOM      1  O   UNL     1      33.570 -17.823 -25.147  0.00  0.00    -0.270 OA
ATOM      2  N   UNL     1      34.361 -15.758 -24.428  0.00  0.00    -0.267 N 
ATOM      3  C   UNL     1      34.206 -17.145 -24.338  0.00  0.00    +0.250 C 
ATOM      4  C   UNL     1      33.743 -15.041 -25.535  0.00  0.00    +0.116 C 
ENDROOT
BRANCH   3   6
ATOM      5  C   UNL     1      34.190 -18.779 -22.487  0.00  0.00    +0.006 C 
ATOM      6  C   UNL     1      34.844 -17.803 -23.159  0.00  0.00    +0.058 C 
BRANCH   5  16
ATOM      7  O   UNL     1      36.026 -22.796 -16.176  0.00  0.00    -0.275 OA
ATOM      8  N   UNL     1      36.241 -21.373 -17.965  0.00  0.00    -0.270 N 
ATOM      9  N   UNL     1      36.542 -19.963 -19.841  0.00  0.00    -0.229 NA
ATOM     10  C   UNL     1      33.474 -21.690 -18.486  0.00  0.00    +0.039 C 
ATOM     11  C   UNL     1      34.361 -20.912 -19.408  0.00  0.00    +0.010 C 
ATOM     12  C   UNL     1      34.253 -22.794 -17.790  0.00  0.00    +0.090 C 
ATOM     13  C   UNL     1      35.711 -20.739 -19.106  0.00  0.00    +0.130 C 
ATOM     14  C   UNL     1      33.852 -20.255 -20.529  0.00  0.00    +0.000 C 
ATOM     15  C   UNL     1      35.565 -22.308 -17.208  0.00  0.00    +0.227 C 
ATOM     16  C   UNL     1      34.690 -19.469 -21.312  0.00  0.00    +0.019 C 
ATOM     17  C   UNL     1      36.014 -19.355 -20.926  0.00  0.00    +0.100 C 
ATOM     18  H   UNL     1      37.155 -21.133 -17.690  0.00  0.00    +0.156 HD
ENDBRANCH   5  16
ENDBRANCH   3   6
BRANCH   2  19
ATOM     19  C   UNL     1      35.082 -14.929 -23.464  0.00  0.00    +0.158 C 
BRANCH  19  21
ATOM     20  O   UNL     1      33.568 -14.185 -21.756  0.00  0.00    -0.456 OA
ATOM     21  C   UNL     1      34.212 -13.850 -22.890  0.00  0.00    +0.139 A 
ATOM     22  C   UNL     1      33.941 -12.585 -23.292  0.00  0.00    +0.013 A 
ATOM     23  C   UNL     1      33.041 -12.064 -22.326  0.00  0.00    +0.033 A 
ATOM     24  C   UNL     1      32.843 -13.087 -21.404  0.00  0.00    +0.145 A 
ATOM     25  C   UNL     1      34.466 -11.886 -24.483  0.00  0.00    +0.034 C 
ATOM     26  C   UNL     1      32.373 -10.843 -22.129  0.00  0.00    +0.003 C 
ATOM     27  C   UNL     1      32.019 -12.982 -20.285  0.00  0.00    +0.037 C 
ATOM     28  C   UNL     1      31.536 -10.708 -21.013  0.00  0.00    +0.000 C 
ATOM     29  C   UNL     1      31.363 -11.760 -20.109  0.00  0.00    +0.003 C 
ENDBRANCH  19  21
ENDBRANCH   2  19
TORSDOF 4
ENDMDL
MODEL 6
REMARK VINA RESULT:     -12.0      1.892      2.998
REMARK  Name = 10407120
REMARK  4 active torsions:
REMARK  status: ('A' for Active; 'I' for Inactive)
REMARK    1  A    between atoms: N_2  and  C_19
REMARK    2  A    between atoms: C_3  and  C_6
REMARK    3  A    between atoms: C_5  and  C_16
REMARK    4  A    between atoms: C_19  and  C_21
REMARK                            x       y       z     vdW  Elec       q    Type
REMARK                         _______ _______ _______ _____ _____    ______ ____
ROOT
ATOM      1  O   UNL     1      33.683 -18.328 -24.898  0.00  0.00    -0.270 OA
ATOM      2  N   UNL     1      34.756 -16.463 -24.018  0.00  0.00    -0.267 N 
ATOM      3  C   UNL     1      34.330 -17.794 -23.996  0.00  0.00    +0.250 C 
ATOM      4  C   UNL     1      34.430 -15.628 -25.166  0.00  0.00    +0.116 C 
ENDROOT
BRANCH   3   6
ATOM      5  C   UNL     1      33.717 -19.258 -22.103  0.00  0.00    +0.006 C 
ATOM      6  C   UNL     1      34.677 -18.575 -22.772  0.00  0.00    +0.058 C 
BRANCH   5  16
ATOM      7  O   UNL     1      35.695 -23.183 -15.777  0.00  0.00    -0.275 OA
ATOM      8  N   UNL     1      34.382 -22.246 -17.412  0.00  0.00    -0.270 N 
ATOM      9  N   UNL     1      32.977 -21.232 -19.022  0.00  0.00    -0.229 NA
ATOM     10  C   UNL     1      36.735 -21.459 -18.780  0.00  0.00    +0.039 C 
ATOM     11  C   UNL     1      35.376 -21.047 -19.256  0.00  0.00    +0.010 C 
ATOM     12  C   UNL     1      36.750 -21.632 -17.270  0.00  0.00    +0.090 C 
ATOM     13  C   UNL     1      34.234 -21.482 -18.586  0.00  0.00    +0.130 C 
ATOM     14  C   UNL     1      35.206 -20.312 -20.431  0.00  0.00    +0.000 C 
ATOM     15  C   UNL     1      35.583 -22.455 -16.763  0.00  0.00    +0.227 C 
ATOM     16  C   UNL     1      33.925 -20.025 -20.888  0.00  0.00    +0.019 C 
ATOM     17  C   UNL     1      32.855 -20.506 -20.156  0.00  0.00    +0.100 C 
ATOM     18  H   UNL     1      33.575 -22.659 -17.028  0.00  0.00    +0.156 HD
ENDBRANCH   5  16
ENDBRANCH   3   6
BRANCH   2  19
ATOM     19  C   UNL     1      35.495 -15.800 -22.945  0.00  0.00    +0.158 C 
BRANCH  19  21
ATOM     20  O   UNL     1      34.105 -13.843 -22.911  0.00  0.00    -0.456 OA
ATOM     21  C   UNL     1      34.631 -14.842 -22.178  0.00  0.00    +0.139 A 
ATOM     22  C   UNL     1      34.269 -14.783 -20.874  0.00  0.00    +0.013 A 
ATOM     23  C   UNL     1      33.434 -13.639 -20.763  0.00  0.00    +0.033 A 
ATOM     24  C   UNL     1      33.366 -13.097 -22.043  0.00  0.00    +0.145 A 
ATOM     25  C   UNL     1      34.655 -15.706 -19.789  0.00  0.00    +0.034 C 
ATOM     26  C   UNL     1      32.731 -13.004 -19.726  0.00  0.00    +0.003 C 
ATOM     27  C   UNL     1      32.639 -11.954 -22.370  0.00  0.00    +0.037 C 
ATOM     28  C   UNL     1      31.990 -11.852 -20.024  0.00  0.00    +0.000 C 
ATOM     29  C   UNL     1      31.947 -11.338 -21.323  0.00  0.00    +0.003 C 
ENDBRANCH  19  21
ENDBRANCH   2  19
TORSDOF 4
ENDMDL
MODEL 7
REMARK VINA RESULT:     -11.8      2.419      9.495
REMARK  Name = 10407120
REMARK  4 active torsions:
REMARK  status: ('A' for Active; 'I' for Inactive)
REMARK    1  A    between atoms: N_2  and  C_19
REMARK    2  A    between atoms: C_3  and  C_6
REMARK    3  A    between atoms: C_5  and  C_16
REMARK    4  A    between atoms: C_19  and  C_21
REMARK                            x       y       z     vdW  Elec       q    Type
REMARK                         _______ _______ _______ _____ _____    ______ ____
ROOT
ATOM      1  O   UNL     1      34.468 -16.598 -25.446  0.00  0.00    -0.270 OA
ATOM      2  N   UNL     1      34.910 -17.385 -23.304  0.00  0.00    -0.267 N 
ATOM      3  C   UNL     1      34.623 -16.389 -24.242  0.00  0.00    +0.250 C 
ATOM      4  C   UNL     1      35.041 -18.766 -23.746  0.00  0.00    +0.116 C 
ENDROOT
BRANCH   3   6
ATOM      5  C   UNL     1      33.329 -14.430 -23.476  0.00  0.00    +0.006 C 
ATOM      6  C   UNL     1      34.536 -14.995 -23.715  0.00  0.00    +0.058 C 
BRANCH   5  16
ATOM      7  O   UNL     1      32.749  -6.986 -21.578  0.00  0.00    -0.275 OA
ATOM      8  N   UNL     1      32.431  -9.260 -21.513  0.00  0.00    -0.270 N 
ATOM      9  N   UNL     1      32.003 -11.586 -21.453  0.00  0.00    -0.229 NA
ATOM     10  C   UNL     1      34.342  -9.535 -23.588  0.00  0.00    +0.039 C 
ATOM     11  C   UNL     1      33.564 -10.709 -23.077  0.00  0.00    +0.010 C 
ATOM     12  C   UNL     1      33.536  -8.253 -23.455  0.00  0.00    +0.090 C 
ATOM     13  C   UNL     1      32.659 -10.551 -22.029  0.00  0.00    +0.130 C 
ATOM     14  C   UNL     1      33.793 -12.000 -23.555  0.00  0.00    +0.000 C 
ATOM     15  C   UNL     1      32.905  -8.097 -22.086  0.00  0.00    +0.227 C 
ATOM     16  C   UNL     1      33.116 -13.077 -22.994  0.00  0.00    +0.019 C 
ATOM     17  C   UNL     1      32.242 -12.818 -21.954  0.00  0.00    +0.100 C 
ATOM     18  H   UNL     1      31.898  -9.182 -20.690  0.00  0.00    +0.156 HD
ENDBRANCH   5  16
ENDBRANCH   3   6
BRANCH   2  19
ATOM     19  C   UNL     1      35.132 -17.156 -21.877  0.00  0.00    +0.158 C 
BRANCH  19  21
ATOM     20  O   UNL     1      33.856 -18.884 -20.806  0.00  0.00    -0.456 OA
ATOM     21  C   UNL     1      35.093 -18.434 -21.091  0.00  0.00    +0.139 A 
ATOM     22  C   UNL     1      36.069 -19.238 -20.605  0.00  0.00    +0.013 A 
ATOM     23  C   UNL     1      35.394 -20.300 -19.948  0.00  0.00    +0.033 A 
ATOM     24  C   UNL     1      34.036 -20.035 -20.100  0.00  0.00    +0.145 A 
ATOM     25  C   UNL     1      37.529 -19.056 -20.727  0.00  0.00    +0.034 C 
ATOM     26  C   UNL     1      35.778 -21.453 -19.243  0.00  0.00    +0.003 C 
ATOM     27  C   UNL     1      33.021 -20.846 -19.596  0.00  0.00    +0.037 C 
ATOM     28  C   UNL     1      34.780 -22.288 -18.724  0.00  0.00    +0.000 C 
ATOM     29  C   UNL     1      33.426 -21.987 -18.897  0.00  0.00    +0.003 C 
ENDBRANCH  19  21
ENDBRANCH   2  19
TORSDOF 4
ENDMDL
MODEL 8
REMARK VINA RESULT:     -11.1      5.837     12.583
REMARK  Name = 10407120
REMARK  4 active torsions:
REMARK  status: ('A' for Active; 'I' for Inactive)
REMARK    1  A    between atoms: N_2  and  C_19
REMARK    2  A    between atoms: C_3  and  C_6
REMARK    3  A    between atoms: C_5  and  C_16
REMARK    4  A    between atoms: C_19  and  C_21
REMARK                            x       y       z     vdW  Elec       q    Type
REMARK                         _______ _______ _______ _____ _____    ______ ____
ROOT
ATOM      1  O   UNL     1      30.662 -24.517 -15.722  0.00  0.00    -0.270 OA
ATOM      2  N   UNL     1      31.918 -24.013 -13.832  0.00  0.00    -0.267 N 
ATOM      3  C   UNL     1      31.552 -23.866 -15.173  0.00  0.00    +0.250 C 
ATOM      4  C   UNL     1      31.223 -24.990 -13.005  0.00  0.00    +0.116 C 
ENDROOT
BRANCH   3   6
ATOM      5  C   UNL     1      33.239 -23.279 -16.879  0.00  0.00    +0.006 C 
ATOM      6  C   UNL     1      32.332 -22.866 -15.962  0.00  0.00    +0.058 C 
BRANCH   5  16
ATOM      7  O   UNL     1      36.928 -18.383 -21.543  0.00  0.00    -0.275 OA
ATOM      8  N   UNL     1      36.584 -19.970 -19.918  0.00  0.00    -0.270 N 
ATOM      9  N   UNL     1      36.277 -21.543 -18.179  0.00  0.00    -0.229 NA
ATOM     10  C   UNL     1      33.840 -20.025 -20.626  0.00  0.00    +0.039 C 
ATOM     11  C   UNL     1      34.364 -20.800 -19.457  0.00  0.00    +0.010 C 
ATOM     12  C   UNL     1      34.664 -18.768 -20.855  0.00  0.00    +0.090 C 
ATOM     13  C   UNL     1      35.725 -20.785 -19.156  0.00  0.00    +0.130 C 
ATOM     14  C   UNL     1      33.536 -21.635 -18.704  0.00  0.00    +0.000 C 
ATOM     15  C   UNL     1      36.156 -19.034 -20.840  0.00  0.00    +0.227 C 
ATOM     16  C   UNL     1      34.077 -22.406 -17.682  0.00  0.00    +0.019 C 
ATOM     17  C   UNL     1      35.440 -22.327 -17.464  0.00  0.00    +0.100 C 
ATOM     18  H   UNL     1      37.553 -20.073 -19.786  0.00  0.00    +0.156 HD
ENDBRANCH   5  16
ENDBRANCH   3   6
BRANCH   2  19
ATOM     19  C   UNL     1      32.992 -23.276 -13.169  0.00  0.00    +0.158 C 
BRANCH  19  21
ATOM     20  O   UNL     1      34.517 -24.770 -14.266  0.00  0.00    -0.456 OA
ATOM     21  C   UNL     1      34.278 -24.050 -13.154  0.00  0.00    +0.139 A 
ATOM     22  C   UNL     1      35.261 -24.169 -12.230  0.00  0.00    +0.013 A 
ATOM     23  C   UNL     1      36.217 -25.047 -12.805  0.00  0.00    +0.033 A 
ATOM     24  C   UNL     1      35.712 -25.388 -14.056  0.00  0.00    +0.145 A 
ATOM     25  C   UNL     1      35.333 -23.526 -10.903  0.00  0.00    +0.034 C 
ATOM     26  C   UNL     1      37.450 -25.591 -12.407  0.00  0.00    +0.003 C 
ATOM     27  C   UNL     1      36.354 -26.241 -14.952  0.00  0.00    +0.037 C 
ATOM     28  C   UNL     1      38.120 -26.453 -13.287  0.00  0.00    +0.000 C 
ATOM     29  C   UNL     1      37.579 -26.771 -14.535  0.00  0.00    +0.003 C 
ENDBRANCH  19  21
ENDBRANCH   2  19
TORSDOF 4
ENDMDL
MODEL 9
REMARK VINA RESULT:     -11.0      3.827      7.240
REMARK  Name = 10407120
REMARK  4 active torsions:
REMARK  status: ('A' for Active; 'I' for Inactive)
REMARK    1  A    between atoms: N_2  and  C_19
REMARK    2  A    between atoms: C_3  and  C_6
REMARK    3  A    between atoms: C_5  and  C_16
REMARK    4  A    between atoms: C_19  and  C_21
REMARK                            x       y       z     vdW  Elec       q    Type
REMARK                         _______ _______ _______ _____ _____    ______ ____
ROOT
ATOM      1  O   UNL     1      32.254 -21.814 -18.368  0.00  0.00    -0.270 OA
ATOM      2  N   UNL     1      33.642 -20.606 -19.789  0.00  0.00    -0.267 N 
ATOM      3  C   UNL     1      33.384 -21.521 -18.764  0.00  0.00    +0.250 C 
ATOM      4  C   UNL     1      32.527 -19.941 -20.451  0.00  0.00    +0.116 C 
ENDROOT
BRANCH   3   6
ATOM      5  C   UNL     1      34.559 -22.440 -16.796  0.00  0.00    +0.006 C 
ATOM      6  C   UNL     1      34.579 -22.137 -18.116  0.00  0.00    +0.058 C 
BRANCH   5  16
ATOM      7  O   UNL     1      39.882 -26.157 -12.650  0.00  0.00    -0.275 OA
ATOM      8  N   UNL     1      38.901 -24.528 -13.937  0.00  0.00    -0.270 N 
ATOM      9  N   UNL     1      37.967 -22.860 -15.330  0.00  0.00    -0.229 NA
ATOM     10  C   UNL     1      36.453 -25.947 -13.777  0.00  0.00    +0.039 C 
ATOM     11  C   UNL     1      36.597 -24.726 -14.633  0.00  0.00    +0.010 C 
ATOM     12  C   UNL     1      37.776 -26.688 -13.665  0.00  0.00    +0.090 C 
ATOM     13  C   UNL     1      37.802 -24.025 -14.661  0.00  0.00    +0.130 C 
ATOM     14  C   UNL     1      35.515 -24.196 -15.338  0.00  0.00    +0.000 C 
ATOM     15  C   UNL     1      38.935 -25.770 -13.335  0.00  0.00    +0.227 C 
ATOM     16  C   UNL     1      35.665 -23.011 -16.049  0.00  0.00    +0.019 C 
ATOM     17  C   UNL     1      36.899 -22.387 -16.011  0.00  0.00    +0.100 C 
ATOM     18  H   UNL     1      39.697 -23.956 -13.856  0.00  0.00    +0.156 HD
ENDBRANCH   5  16
ENDBRANCH   3   6
BRANCH   2  19
ATOM     19  C   UNL     1      34.973 -20.218 -20.253  0.00  0.00    +0.158 C 
BRANCH  19  21
ATOM     20  O   UNL     1      34.961 -17.820 -20.164  0.00  0.00    -0.456 OA
ATOM     21  C   UNL     1      34.955 -18.899 -20.968  0.00  0.00    +0.139 A 
ATOM     22  C   UNL     1      34.935 -18.573 -22.283  0.00  0.00    +0.013 A 
ATOM     23  C   UNL     1      34.927 -17.154 -22.323  0.00  0.00    +0.033 A 
ATOM     24  C   UNL     1      34.943 -16.740 -20.994  0.00  0.00    +0.145 A 
ATOM     25  C   UNL     1      34.924 -19.493 -23.438  0.00  0.00    +0.034 C 
ATOM     26  C   UNL     1      34.908 -16.176 -23.331  0.00  0.00    +0.003 C 
ATOM     27  C   UNL     1      34.942 -15.406 -20.592  0.00  0.00    +0.037 C 
ATOM     28  C   UNL     1      34.906 -14.825 -22.958  0.00  0.00    +0.000 C 
ATOM     29  C   UNL     1      34.922 -14.449 -21.612  0.00  0.00    +0.003 C 
ENDBRANCH  19  21
ENDBRANCH   2  19
TORSDOF 4
ENDMDL
