MODEL 1
REMARK VINA RESULT:     -12.5      0.000      0.000
REMARK  Name = 135565042
REMARK  5 active torsions:
REMARK  status: ('A' for Active; 'I' for Inactive)
REMARK    1  A    between atoms: C_3  and  O_21
REMARK    2  A    between atoms: C_6  and  C_7
REMARK    3  A    between atoms: C_8  and  O_19
REMARK    4  A    between atoms: C_10  and  C_15
REMARK    5  A    between atoms: O_21  and  C_27
REMARK                            x       y       z     vdW  Elec       q    Type
REMARK                         _______ _______ _______ _____ _____    ______ ____
ROOT
ATOM      1  N   UNL     1      35.266 -22.887 -16.483  0.00  0.00    -0.110 NA
ATOM      2  N   UNL     1      35.291 -22.084 -17.580  0.00  0.00    -0.145 NA
ATOM      3  C   UNL     1      34.089 -23.406 -16.073  0.00  0.00    +0.244 C 
ATOM      4  C   UNL     1      32.895 -23.159 -16.720  0.00  0.00    +0.061 C 
ATOM      5  C   UNL     1      32.920 -22.341 -17.838  0.00  0.00    +0.026 C 
ATOM      6  C   UNL     1      34.138 -21.825 -18.232  0.00  0.00    +0.106 C 
ENDROOT
BRANCH   6   7
ATOM      7  C   UNL     1      34.257 -20.968 -19.385  0.00  0.00    +0.053 C 
ATOM      8  C   UNL     1      35.509 -20.617 -19.890  0.00  0.00    +0.135 C 
ATOM      9  C   UNL     1      33.099 -20.487 -19.997  0.00  0.00    +0.005 C 
ATOM     10  C   UNL     1      34.446 -19.306 -21.618  0.00  0.00    +0.006 C 
ATOM     11  C   UNL     1      35.604 -19.787 -21.006  0.00  0.00    +0.037 C 
ATOM     12  C   UNL     1      33.193 -19.656 -21.113  0.00  0.00    +0.000 C 
BRANCH  10  15
ATOM     13  N   UNL     1      35.112 -16.788 -24.065  0.00  0.00    -0.235 N 
ATOM     14  N   UNL     1      34.311 -17.532 -24.846  0.00  0.00    -0.180 NA
ATOM     15  C   UNL     1      34.543 -18.452 -22.768  0.00  0.00    +0.037 C 
ATOM     16  C   UNL     1      35.284 -17.296 -22.811  0.00  0.00    +0.081 C 
ATOM     17  C   UNL     1      33.966 -18.547 -24.049  0.00  0.00    +0.119 C 
ATOM     18  H   UNL     1      35.536 -15.953 -24.370  0.00  0.00    +0.174 HD
ENDBRANCH  10  15
BRANCH   8  19
ATOM     19  O   UNL     1      36.658 -21.073 -19.312  0.00  0.00    -0.505 OA
ATOM     20  H   UNL     1      36.733 -21.975 -19.069  0.00  0.00    +0.292 HD
ENDBRANCH   8  19
ENDBRANCH   6   7
BRANCH   3  21
ATOM     21  O   UNL     1      34.108 -24.209 -14.966  0.00  0.00    -0.463 OA
BRANCH  21  27
ATOM     22  N   UNL     1      37.063 -25.411 -12.195  0.00  0.00    +0.389 N 
ATOM     23  C   UNL     1      37.340 -25.636 -13.620  0.00  0.00    -0.042 C 
ATOM     24  C   UNL     1      36.196 -24.291 -11.803  0.00  0.00    -0.042 C 
ATOM     25  C   UNL     1      36.077 -25.487 -14.490  0.00  0.00    +0.024 C 
ATOM     26  C   UNL     1      34.956 -24.167 -12.710  0.00  0.00    +0.024 C 
ATOM     27  C   UNL     1      35.305 -24.207 -14.194  0.00  0.00    +0.164 C 
ATOM     28  C   UNL     1      36.967 -22.960 -11.738  0.00  0.00    -0.021 C 
ATOM     29  C   UNL     1      37.831 -27.096 -13.726  0.00  0.00    -0.021 C 
ATOM     30  C   UNL     1      38.478 -24.736 -14.137  0.00  0.00    -0.021 C 
ATOM     31  C   UNL     1      35.719 -24.612 -10.371  0.00  0.00    -0.021 C 
ATOM     32  H   UNL     1      37.962 -25.267 -11.735  0.00  0.00    -0.084 HD
ATOM     33  H   UNL     1      36.533 -26.237 -11.917  0.00  0.00    -0.084 HD
ENDBRANCH  21  27
ENDBRANCH   3  21
TORSDOF 5
ENDMDL
MODEL 2
REMARK VINA RESULT:     -10.7      1.359      2.621
REMARK  Name = 135565042
REMARK  5 active torsions:
REMARK  status: ('A' for Active; 'I' for Inactive)
REMARK    1  A    between atoms: C_3  and  O_21
REMARK    2  A    between atoms: C_6  and  C_7
REMARK    3  A    between atoms: C_8  and  O_19
REMARK    4  A    between atoms: C_10  and  C_15
REMARK    5  A    between atoms: O_21  and  C_27
REMARK                            x       y       z     vdW  Elec       q    Type
REMARK                         _______ _______ _______ _____ _____    ______ ____
ROOT
ATOM      1  N   UNL     1      33.777 -24.009 -16.653  0.00  0.00    -0.110 NA
ATOM      2  N   UNL     1      33.856 -23.138 -17.695  0.00  0.00    -0.145 NA
ATOM      3  C   UNL     1      34.620 -23.863 -15.608  0.00  0.00    +0.244 C 
ATOM      4  C   UNL     1      35.568 -22.863 -15.543  0.00  0.00    +0.061 C 
ATOM      5  C   UNL     1      35.649 -21.976 -16.603  0.00  0.00    +0.026 C 
ATOM      6  C   UNL     1      34.776 -22.149 -17.657  0.00  0.00    +0.106 C 
ENDROOT
BRANCH   6   7
ATOM      7  C   UNL     1      34.787 -21.271 -18.801  0.00  0.00    +0.053 C 
ATOM      8  C   UNL     1      33.596 -20.815 -19.365  0.00  0.00    +0.135 C 
ATOM      9  C   UNL     1      36.011 -20.879 -19.344  0.00  0.00    +0.005 C 
ATOM     10  C   UNL     1      34.852 -19.574 -21.014  0.00  0.00    +0.006 C 
ATOM     11  C   UNL     1      33.628 -19.966 -20.471  0.00  0.00    +0.037 C 
ATOM     12  C   UNL     1      36.044 -20.031 -20.450  0.00  0.00    +0.000 C 
BRANCH  10  15
ATOM     13  N   UNL     1      35.420 -17.038 -23.466  0.00  0.00    -0.235 N 
ATOM     14  N   UNL     1      34.505 -17.717 -24.179  0.00  0.00    -0.180 NA
ATOM     15  C   UNL     1      34.885 -18.699 -22.152  0.00  0.00    +0.037 C 
ATOM     16  C   UNL     1      35.683 -17.584 -22.245  0.00  0.00    +0.081 C 
ATOM     17  C   UNL     1      34.182 -18.731 -23.371  0.00  0.00    +0.119 C 
ATOM     18  H   UNL     1      35.859 -16.221 -23.796  0.00  0.00    +0.174 HD
ENDBRANCH  10  15
BRANCH   8  19
ATOM     19  O   UNL     1      32.385 -21.182 -18.855  0.00  0.00    -0.505 OA
ATOM     20  H   UNL     1      32.284 -21.303 -17.931  0.00  0.00    +0.292 HD
ENDBRANCH   8  19
ENDBRANCH   6   7
BRANCH   3  21
ATOM     21  O   UNL     1      34.506 -24.760 -14.580  0.00  0.00    -0.463 OA
BRANCH  21  27
ATOM     22  N   UNL     1      38.263 -24.129 -12.752  0.00  0.00    +0.389 N 
ATOM     23  C   UNL     1      37.068 -23.989 -11.909  0.00  0.00    -0.042 C 
ATOM     24  C   UNL     1      38.225 -25.044 -13.901  0.00  0.00    -0.042 C 
ATOM     25  C   UNL     1      35.774 -23.897 -12.741  0.00  0.00    +0.024 C 
ATOM     26  C   UNL     1      36.908 -24.932 -14.694  0.00  0.00    +0.024 C 
ATOM     27  C   UNL     1      35.675 -24.989 -13.798  0.00  0.00    +0.164 C 
ATOM     28  C   UNL     1      38.497 -26.501 -13.487  0.00  0.00    -0.021 C 
ATOM     29  C   UNL     1      37.247 -22.661 -11.144  0.00  0.00    -0.021 C 
ATOM     30  C   UNL     1      36.970 -25.109 -10.856  0.00  0.00    -0.021 C 
ATOM     31  C   UNL     1      39.383 -24.608 -14.822  0.00  0.00    -0.021 C 
ATOM     32  H   UNL     1      39.021 -24.443 -12.146  0.00  0.00    -0.084 HD
ATOM     33  H   UNL     1      38.368 -23.208 -13.178  0.00  0.00    -0.084 HD
ENDBRANCH  21  27
ENDBRANCH   3  21
TORSDOF 5
ENDMDL
MODEL 3
REMARK VINA RESULT:     -10.7      1.762      2.815
REMARK  Name = 135565042
REMARK  5 active torsions:
REMARK  status: ('A' for Active; 'I' for Inactive)
REMARK    1  A    between atoms: C_3  and  O_21
REMARK    2  A    between atoms: C_6  and  C_7
REMARK    3  A    between atoms: C_8  and  O_19
REMARK    4  A    between atoms: C_10  and  C_15
REMARK    5  A    between atoms: O_21  and  C_27
REMARK                            x       y       z     vdW  Elec       q    Type
REMARK                         _______ _______ _______ _____ _____    ______ ____
ROOT
ATOM      1  N   UNL     1      37.578 -20.548 -16.779  0.00  0.00    -0.110 NA
ATOM      2  N   UNL     1      37.124 -19.989 -17.933  0.00  0.00    -0.145 NA
ATOM      3  C   UNL     1      37.058 -21.725 -16.369  0.00  0.00    +0.244 C 
ATOM      4  C   UNL     1      36.079 -22.397 -17.071  0.00  0.00    +0.061 C 
ATOM      5  C   UNL     1      35.617 -21.829 -18.246  0.00  0.00    +0.026 C 
ATOM      6  C   UNL     1      36.166 -20.625 -18.640  0.00  0.00    +0.106 C 
ENDROOT
BRANCH   6   7
ATOM      7  C   UNL     1      35.747 -19.963 -19.851  0.00  0.00    +0.053 C 
ATOM      8  C   UNL     1      36.646 -19.203 -20.598  0.00  0.00    +0.135 C 
ATOM      9  C   UNL     1      34.423 -20.091 -20.271  0.00  0.00    +0.005 C 
ATOM     10  C   UNL     1      34.898 -18.698 -22.187  0.00  0.00    +0.006 C 
ATOM     11  C   UNL     1      36.222 -18.571 -21.767  0.00  0.00    +0.037 C 
ATOM     12  C   UNL     1      33.998 -19.459 -21.439  0.00  0.00    +0.000 C 
BRANCH  10  15
ATOM     13  N   UNL     1      33.427 -17.673 -25.278  0.00  0.00    -0.235 N 
ATOM     14  N   UNL     1      34.153 -16.557 -25.094  0.00  0.00    -0.180 NA
ATOM     15  C   UNL     1      34.461 -18.048 -23.391  0.00  0.00    +0.037 C 
ATOM     16  C   UNL     1      33.576 -18.597 -24.286  0.00  0.00    +0.081 C 
ATOM     17  C   UNL     1      34.782 -16.792 -23.939  0.00  0.00    +0.119 C 
ATOM     18  H   UNL     1      32.841 -17.810 -26.058  0.00  0.00    +0.174 HD
ENDBRANCH  10  15
BRANCH   8  19
ATOM     19  O   UNL     1      37.946 -19.062 -20.211  0.00  0.00    -0.505 OA
ATOM     20  H   UNL     1      38.613 -19.583 -20.611  0.00  0.00    +0.292 HD
ENDBRANCH   8  19
ENDBRANCH   6   7
BRANCH   3  21
ATOM     21  O   UNL     1      37.543 -22.253 -15.203  0.00  0.00    -0.463 OA
BRANCH  21  27
ATOM     22  N   UNL     1      36.496 -25.437 -12.631  0.00  0.00    +0.389 N 
ATOM     23  C   UNL     1      35.668 -24.224 -12.578  0.00  0.00    -0.042 C 
ATOM     24  C   UNL     1      37.170 -25.788 -13.888  0.00  0.00    -0.042 C 
ATOM     25  C   UNL     1      36.338 -23.030 -13.285  0.00  0.00    +0.024 C 
ATOM     26  C   UNL     1      37.809 -24.563 -14.570  0.00  0.00    +0.024 C 
ATOM     27  C   UNL     1      36.852 -23.381 -14.675  0.00  0.00    +0.164 C 
ATOM     28  C   UNL     1      36.234 -26.533 -14.857  0.00  0.00    -0.021 C 
ATOM     29  C   UNL     1      35.523 -23.881 -11.080  0.00  0.00    -0.021 C 
ATOM     30  C   UNL     1      34.250 -24.468 -13.127  0.00  0.00    -0.021 C 
ATOM     31  C   UNL     1      38.296 -26.769 -13.499  0.00  0.00    -0.021 C 
ATOM     32  H   UNL     1      35.891 -26.222 -12.388  0.00  0.00    -0.084 HD
ATOM     33  H   UNL     1      37.264 -25.235 -11.991  0.00  0.00    -0.084 HD
ENDBRANCH  21  27
ENDBRANCH   3  21
TORSDOF 5
ENDMDL
MODEL 4
REMARK VINA RESULT:     -10.6      3.565     11.567
REMARK  Name = 135565042
REMARK  5 active torsions:
REMARK  status: ('A' for Active; 'I' for Inactive)
REMARK    1  A    between atoms: C_3  and  O_21
REMARK    2  A    between atoms: C_6  and  C_7
REMARK    3  A    between atoms: C_8  and  O_19
REMARK    4  A    between atoms: C_10  and  C_15
REMARK    5  A    between atoms: O_21  and  C_27
REMARK                            x       y       z     vdW  Elec       q    Type
REMARK                         _______ _______ _______ _____ _____    ______ ____
ROOT
ATOM      1  N   UNL     1      35.312 -16.641 -23.023  0.00  0.00    -0.110 NA
ATOM      2  N   UNL     1      35.495 -17.477 -21.966  0.00  0.00    -0.145 NA
ATOM      3  C   UNL     1      34.625 -17.081 -24.099  0.00  0.00    +0.244 C 
ATOM      4  C   UNL     1      34.093 -18.352 -24.180  0.00  0.00    +0.061 C 
ATOM      5  C   UNL     1      34.278 -19.203 -23.104  0.00  0.00    +0.026 C 
ATOM      6  C   UNL     1      34.985 -18.726 -22.019  0.00  0.00    +0.106 C 
ENDROOT
BRANCH   6   7
ATOM      7  C   UNL     1      35.223 -19.542 -20.854  0.00  0.00    +0.053 C 
ATOM      8  C   UNL     1      36.494 -19.626 -20.286  0.00  0.00    +0.135 C 
ATOM      9  C   UNL     1      34.161 -20.253 -20.295  0.00  0.00    +0.005 C 
ATOM     10  C   UNL     1      35.642 -21.132 -18.600  0.00  0.00    +0.006 C 
ATOM     11  C   UNL     1      36.704 -20.420 -19.159  0.00  0.00    +0.037 C 
ATOM     12  C   UNL     1      34.370 -21.048 -19.169  0.00  0.00    +0.000 C 
BRANCH  10  15
ATOM     13  N   UNL     1      36.836 -22.895 -15.731  0.00  0.00    -0.235 N 
ATOM     14  N   UNL     1      35.592 -23.402 -15.697  0.00  0.00    -0.180 NA
ATOM     15  C   UNL     1      35.857 -21.949 -17.439  0.00  0.00    +0.037 C 
ATOM     16  C   UNL     1      37.046 -22.019 -16.755  0.00  0.00    +0.081 C 
ATOM     17  C   UNL     1      34.999 -22.820 -16.743  0.00  0.00    +0.119 C 
ATOM     18  H   UNL     1      37.532 -23.134 -15.076  0.00  0.00    +0.174 HD
ENDBRANCH  10  15
BRANCH   8  19
ATOM     19  O   UNL     1      37.550 -18.941 -20.812  0.00  0.00    -0.505 OA
ATOM     20  H   UNL     1      37.787 -18.105 -20.460  0.00  0.00    +0.292 HD
ENDBRANCH   8  19
ENDBRANCH   6   7
BRANCH   3  21
ATOM     21  O   UNL     1      34.464 -16.209 -25.141  0.00  0.00    -0.463 OA
BRANCH  21  27
ATOM     22  N   UNL     1      32.699 -12.479 -24.230  0.00  0.00    +0.389 N 
ATOM     23  C   UNL     1      33.256 -13.255 -23.114  0.00  0.00    -0.042 C 
ATOM     24  C   UNL     1      33.284 -12.632 -25.570  0.00  0.00    -0.042 C 
ATOM     25  C   UNL     1      33.548 -14.716 -23.507  0.00  0.00    +0.024 C 
ATOM     26  C   UNL     1      33.577 -14.105 -25.914  0.00  0.00    +0.024 C 
ATOM     27  C   UNL     1      34.335 -14.830 -24.807  0.00  0.00    +0.164 C 
ATOM     28  C   UNL     1      34.541 -11.762 -25.752  0.00  0.00    -0.021 C 
ATOM     29  C   UNL     1      32.167 -13.257 -22.020  0.00  0.00    -0.021 C 
ATOM     30  C   UNL     1      34.504 -12.585 -22.510  0.00  0.00    -0.021 C 
ATOM     31  C   UNL     1      32.219 -12.106 -26.554  0.00  0.00    -0.021 C 
ATOM     32  H   UNL     1      32.782 -11.494 -23.979  0.00  0.00    -0.084 HD
ATOM     33  H   UNL     1      31.754 -12.848 -24.334  0.00  0.00    -0.084 HD
ENDBRANCH  21  27
ENDBRANCH   3  21
TORSDOF 5
ENDMDL
MODEL 5
REMARK VINA RESULT:     -10.4      9.117     15.566
REMARK  Name = 135565042
REMARK  5 active torsions:
REMARK  status: ('A' for Active; 'I' for Inactive)
REMARK    1  A    between atoms: C_3  and  O_21
REMARK    2  A    between atoms: C_6  and  C_7
REMARK    3  A    between atoms: C_8  and  O_19
REMARK    4  A    between atoms: C_10  and  C_15
REMARK    5  A    between atoms: O_21  and  C_27
REMARK                            x       y       z     vdW  Elec       q    Type
REMARK                         _______ _______ _______ _____ _____    ______ ____
ROOT
ATOM      1  N   UNL     1      32.268  -9.514 -22.836  0.00  0.00    -0.110 NA
ATOM      2  N   UNL     1      32.902 -10.713 -22.741  0.00  0.00    -0.145 NA
ATOM      3  C   UNL     1      31.201  -9.268 -22.045  0.00  0.00    +0.244 C 
ATOM      4  C   UNL     1      30.717 -10.185 -21.134  0.00  0.00    +0.061 C 
ATOM      5  C   UNL     1      31.362 -11.406 -21.037  0.00  0.00    +0.026 C 
ATOM      6  C   UNL     1      32.448 -11.629 -21.858  0.00  0.00    +0.106 C 
ENDROOT
BRANCH   6   7
ATOM      7  C   UNL     1      33.182 -12.870 -21.822  0.00  0.00    +0.053 C 
ATOM      8  C   UNL     1      33.521 -13.536 -23.000  0.00  0.00    +0.135 C 
ATOM      9  C   UNL     1      33.552 -13.404 -20.588  0.00  0.00    +0.005 C 
ATOM     10  C   UNL     1      34.601 -15.269 -21.709  0.00  0.00    +0.006 C 
ATOM     11  C   UNL     1      34.230 -14.735 -22.944  0.00  0.00    +0.037 C 
ATOM     12  C   UNL     1      34.261 -14.603 -20.531  0.00  0.00    +0.000 C 
BRANCH  10  15
ATOM     13  N   UNL     1      36.495 -18.247 -22.267  0.00  0.00    -0.235 N 
ATOM     14  N   UNL     1      36.355 -18.418 -20.941  0.00  0.00    -0.180 NA
ATOM     15  C   UNL     1      35.333 -16.503 -21.651  0.00  0.00    +0.037 C 
ATOM     16  C   UNL     1      35.901 -17.115 -22.741  0.00  0.00    +0.081 C 
ATOM     17  C   UNL     1      35.644 -17.350 -20.570  0.00  0.00    +0.119 C 
ATOM     18  H   UNL     1      36.982 -18.881 -22.842  0.00  0.00    +0.174 HD
ENDBRANCH  10  15
BRANCH   8  19
ATOM     19  O   UNL     1      33.171 -13.036 -24.220  0.00  0.00    -0.505 OA
ATOM     20  H   UNL     1      33.437 -12.172 -24.466  0.00  0.00    +0.292 HD
ENDBRANCH   8  19
ENDBRANCH   6   7
BRANCH   3  21
ATOM     21  O   UNL     1      30.593  -8.049 -22.172  0.00  0.00    -0.463 OA
BRANCH  21  27
ATOM     22  N   UNL     1      31.988  -4.187 -23.164  0.00  0.00    +0.389 N 
ATOM     23  C   UNL     1      31.543  -4.411 -21.782  0.00  0.00    -0.042 C 
ATOM     24  C   UNL     1      32.540  -5.313 -23.930  0.00  0.00    -0.042 C 
ATOM     25  C   UNL     1      30.746  -5.720 -21.631  0.00  0.00    +0.024 C 
ATOM     26  C   UNL     1      31.724  -6.606 -23.736  0.00  0.00    +0.024 C 
ATOM     27  C   UNL     1      31.448  -6.914 -22.268  0.00  0.00    +0.164 C 
ATOM     28  C   UNL     1      34.029  -5.548 -23.618  0.00  0.00    -0.021 C 
ATOM     29  C   UNL     1      30.604  -3.232 -21.448  0.00  0.00    -0.021 C 
ATOM     30  C   UNL     1      32.713  -4.357 -20.782  0.00  0.00    -0.021 C 
ATOM     31  C   UNL     1      32.445  -4.898 -25.413  0.00  0.00    -0.021 C 
ATOM     32  H   UNL     1      32.710  -3.466 -23.132  0.00  0.00    -0.084 HD
ATOM     33  H   UNL     1      31.129  -3.952 -23.661  0.00  0.00    -0.084 HD
ENDBRANCH  21  27
ENDBRANCH   3  21
TORSDOF 5
ENDMDL
MODEL 6
REMARK VINA RESULT:     -10.1      7.878     14.316
REMARK  Name = 135565042
REMARK  5 active torsions:
REMARK  status: ('A' for Active; 'I' for Inactive)
REMARK    1  A    between atoms: C_3  and  O_21
REMARK    2  A    between atoms: C_6  and  C_7
REMARK    3  A    between atoms: C_8  and  O_19
REMARK    4  A    between atoms: C_10  and  C_15
REMARK    5  A    between atoms: O_21  and  C_27
REMARK                            x       y       z     vdW  Elec       q    Type
REMARK                         _______ _______ _______ _____ _____    ______ ____
ROOT
ATOM      1  N   UNL     1      34.206 -11.034 -23.843  0.00  0.00    -0.110 NA
ATOM      2  N   UNL     1      34.549 -12.279 -23.416  0.00  0.00    -0.145 NA
ATOM      3  C   UNL     1      33.133 -10.423 -23.296  0.00  0.00    +0.244 C 
ATOM      4  C   UNL     1      32.358 -11.006 -22.314  0.00  0.00    +0.061 C 
ATOM      5  C   UNL     1      32.707 -12.273 -21.879  0.00  0.00    +0.026 C 
ATOM      6  C   UNL     1      33.808 -12.873 -22.456  0.00  0.00    +0.106 C 
ENDROOT
BRANCH   6   7
ATOM      7  C   UNL     1      34.245 -14.190 -22.063  0.00  0.00    +0.053 C 
ATOM      8  C   UNL     1      34.454 -15.189 -23.013  0.00  0.00    +0.135 C 
ATOM      9  C   UNL     1      34.459 -14.458 -20.710  0.00  0.00    +0.005 C 
ATOM     10  C   UNL     1      35.091 -16.724 -21.260  0.00  0.00    +0.006 C 
ATOM     11  C   UNL     1      34.877 -16.456 -22.612  0.00  0.00    +0.037 C 
ATOM     12  C   UNL     1      34.881 -15.724 -20.309  0.00  0.00    +0.000 C 
BRANCH  10  15
ATOM     13  N   UNL     1      35.484 -20.130 -20.254  0.00  0.00    -0.235 N 
ATOM     14  N   UNL     1      36.792 -19.822 -20.213  0.00  0.00    -0.180 NA
ATOM     15  C   UNL     1      35.527 -18.028 -20.847  0.00  0.00    +0.037 C 
ATOM     16  C   UNL     1      34.685 -19.090 -20.628  0.00  0.00    +0.081 C 
ATOM     17  C   UNL     1      36.812 -18.536 -20.576  0.00  0.00    +0.119 C 
ATOM     18  H   UNL     1      35.136 -21.024 -20.034  0.00  0.00    +0.174 HD
ENDBRANCH  10  15
BRANCH   8  19
ATOM     19  O   UNL     1      34.253 -14.954 -24.342  0.00  0.00    -0.505 OA
ATOM     20  H   UNL     1      34.950 -14.613 -24.867  0.00  0.00    +0.292 HD
ENDBRANCH   8  19
ENDBRANCH   6   7
BRANCH   3  21
ATOM     21  O   UNL     1      32.822  -9.171 -23.753  0.00  0.00    -0.463 OA
BRANCH  21  27
ATOM     22  N   UNL     1      32.389  -5.794 -21.251  0.00  0.00    +0.389 N 
ATOM     23  C   UNL     1      31.612  -5.817 -22.498  0.00  0.00    -0.042 C 
ATOM     24  C   UNL     1      32.737  -7.066 -20.602  0.00  0.00    -0.042 C 
ATOM     25  C   UNL     1      32.105  -6.903 -23.473  0.00  0.00    +0.024 C 
ATOM     26  C   UNL     1      33.207  -8.128 -21.614  0.00  0.00    +0.024 C 
ATOM     27  C   UNL     1      32.266  -8.264 -22.806  0.00  0.00    +0.164 C 
ATOM     28  C   UNL     1      31.586  -7.603 -19.732  0.00  0.00    -0.021 C 
ATOM     29  C   UNL     1      31.836  -4.439 -23.156  0.00  0.00    -0.021 C 
ATOM     30  C   UNL     1      30.101  -5.954 -22.236  0.00  0.00    -0.021 C 
ATOM     31  C   UNL     1      33.912  -6.744 -19.656  0.00  0.00    -0.021 C 
ATOM     32  H   UNL     1      31.851  -5.252 -20.575  0.00  0.00    -0.084 HD
ATOM     33  H   UNL     1      33.290  -5.410 -21.534  0.00  0.00    -0.084 HD
ENDBRANCH  21  27
ENDBRANCH   3  21
TORSDOF 5
ENDMDL
MODEL 7
REMARK VINA RESULT:     -10.1      3.463     11.418
REMARK  Name = 135565042
REMARK  5 active torsions:
REMARK  status: ('A' for Active; 'I' for Inactive)
REMARK    1  A    between atoms: C_3  and  O_21
REMARK    2  A    between atoms: C_6  and  C_7
REMARK    3  A    between atoms: C_8  and  O_19
REMARK    4  A    between atoms: C_10  and  C_15
REMARK    5  A    between atoms: O_21  and  C_27
REMARK                            x       y       z     vdW  Elec       q    Type
REMARK                         _______ _______ _______ _____ _____    ______ ____
ROOT
ATOM      1  N   UNL     1      35.266 -16.865 -22.961  0.00  0.00    -0.110 NA
ATOM      2  N   UNL     1      35.476 -17.676 -21.890  0.00  0.00    -0.145 NA
ATOM      3  C   UNL     1      34.545 -17.327 -24.005  0.00  0.00    +0.244 C 
ATOM      4  C   UNL     1      34.005 -18.596 -24.039  0.00  0.00    +0.061 C 
ATOM      5  C   UNL     1      34.218 -19.422 -22.949  0.00  0.00    +0.026 C 
ATOM      6  C   UNL     1      34.959 -18.923 -21.897  0.00  0.00    +0.106 C 
ENDROOT
BRANCH   6   7
ATOM      7  C   UNL     1      35.229 -19.712 -20.720  0.00  0.00    +0.053 C 
ATOM      8  C   UNL     1      36.507 -19.755 -20.164  0.00  0.00    +0.135 C 
ATOM      9  C   UNL     1      34.190 -20.438 -20.138  0.00  0.00    +0.005 C 
ATOM     10  C   UNL     1      35.708 -21.251 -18.444  0.00  0.00    +0.006 C 
ATOM     11  C   UNL     1      36.747 -20.524 -19.026  0.00  0.00    +0.037 C 
ATOM     12  C   UNL     1      34.429 -21.208 -19.000  0.00  0.00    +0.000 C 
BRANCH  10  15
ATOM     13  N   UNL     1      36.978 -22.948 -15.567  0.00  0.00    -0.235 N 
ATOM     14  N   UNL     1      35.736 -23.456 -15.490  0.00  0.00    -0.180 NA
ATOM     15  C   UNL     1      35.954 -22.041 -17.271  0.00  0.00    +0.037 C 
ATOM     16  C   UNL     1      37.160 -22.095 -16.616  0.00  0.00    +0.081 C 
ATOM     17  C   UNL     1      35.115 -22.899 -16.533  0.00  0.00    +0.119 C 
ATOM     18  H   UNL     1      37.691 -23.171 -14.925  0.00  0.00    +0.174 HD
ENDBRANCH  10  15
BRANCH   8  19
ATOM     19  O   UNL     1      37.541 -19.055 -20.713  0.00  0.00    -0.505 OA
ATOM     20  H   UNL     1      37.655 -19.041 -21.643  0.00  0.00    +0.292 HD
ENDBRANCH   8  19
ENDBRANCH   6   7
BRANCH   3  21
ATOM     21  O   UNL     1      34.356 -16.479 -25.062  0.00  0.00    -0.463 OA
BRANCH  21  27
ATOM     22  N   UNL     1      33.873 -12.374 -24.188  0.00  0.00    +0.389 N 
ATOM     23  C   UNL     1      33.610 -12.807 -25.567  0.00  0.00    -0.042 C 
ATOM     24  C   UNL     1      33.655 -13.321 -23.086  0.00  0.00    -0.042 C 
ATOM     25  C   UNL     1      34.146 -14.225 -25.845  0.00  0.00    +0.024 C 
ATOM     26  C   UNL     1      34.189 -14.729 -23.413  0.00  0.00    +0.024 C 
ATOM     27  C   UNL     1      33.731 -15.231 -24.778  0.00  0.00    +0.164 C 
ATOM     28  C   UNL     1      32.178 -13.377 -22.657  0.00  0.00    -0.021 C 
ATOM     29  C   UNL     1      34.372 -11.816 -26.471  0.00  0.00    -0.021 C 
ATOM     30  C   UNL     1      32.118 -12.699 -25.933  0.00  0.00    -0.021 C 
ATOM     31  C   UNL     1      34.456 -12.764 -21.891  0.00  0.00    -0.021 C 
ATOM     32  H   UNL     1      33.274 -11.567 -24.010  0.00  0.00    -0.084 HD
ATOM     33  H   UNL     1      34.879 -12.210 -24.173  0.00  0.00    -0.084 HD
ENDBRANCH  21  27
ENDBRANCH   3  21
TORSDOF 5
ENDMDL
MODEL 8
REMARK VINA RESULT:      -9.9      0.936      2.058
REMARK  Name = 135565042
REMARK  5 active torsions:
REMARK  status: ('A' for Active; 'I' for Inactive)
REMARK    1  A    between atoms: C_3  and  O_21
REMARK    2  A    between atoms: C_6  and  C_7
REMARK    3  A    between atoms: C_8  and  O_19
REMARK    4  A    between atoms: C_10  and  C_15
REMARK    5  A    between atoms: O_21  and  C_27
REMARK                            x       y       z     vdW  Elec       q    Type
REMARK                         _______ _______ _______ _____ _____    ______ ____
ROOT
ATOM      1  N   UNL     1      35.107 -23.633 -15.995  0.00  0.00    -0.110 NA
ATOM      2  N   UNL     1      35.199 -22.789 -17.058  0.00  0.00    -0.145 NA
ATOM      3  C   UNL     1      33.887 -23.952 -15.512  0.00  0.00    +0.244 C 
ATOM      4  C   UNL     1      32.716 -23.459 -16.050  0.00  0.00    +0.061 C 
ATOM      5  C   UNL     1      32.809 -22.600 -17.131  0.00  0.00    +0.026 C 
ATOM      6  C   UNL     1      34.069 -22.291 -17.602  0.00  0.00    +0.106 C 
ENDROOT
BRANCH   6   7
ATOM      7  C   UNL     1      34.260 -21.407 -18.726  0.00  0.00    +0.053 C 
ATOM      8  C   UNL     1      35.541 -21.089 -19.177  0.00  0.00    +0.135 C 
ATOM      9  C   UNL     1      33.143 -20.868 -19.364  0.00  0.00    +0.005 C 
ATOM     10  C   UNL     1      34.588 -19.694 -20.903  0.00  0.00    +0.006 C 
ATOM     11  C   UNL     1      35.706 -20.233 -20.265  0.00  0.00    +0.037 C 
ATOM     12  C   UNL     1      33.306 -20.011 -20.452  0.00  0.00    +0.000 C 
BRANCH  10  15
ATOM     13  N   UNL     1      35.460 -17.158 -23.264  0.00  0.00    -0.235 N 
ATOM     14  N   UNL     1      34.606 -17.810 -24.071  0.00  0.00    -0.180 NA
ATOM     15  C   UNL     1      34.757 -18.813 -22.024  0.00  0.00    +0.037 C 
ATOM     16  C   UNL     1      35.586 -17.718 -22.027  0.00  0.00    +0.081 C 
ATOM     17  C   UNL     1      34.180 -18.821 -23.308  0.00  0.00    +0.119 C 
ATOM     18  H   UNL     1      35.950 -16.350 -23.542  0.00  0.00    +0.174 HD
ENDBRANCH  10  15
BRANCH   8  19
ATOM     19  O   UNL     1      36.651 -21.602 -18.572  0.00  0.00    -0.505 OA
ATOM     20  H   UNL     1      36.795 -21.458 -17.657  0.00  0.00    +0.292 HD
ENDBRANCH   8  19
ENDBRANCH   6   7
BRANCH   3  21
ATOM     21  O   UNL     1      33.838 -24.805 -14.443  0.00  0.00    -0.463 OA
BRANCH  21  27
ATOM     22  N   UNL     1      37.802 -24.282 -13.079  0.00  0.00    +0.389 N 
ATOM     23  C   UNL     1      36.790 -23.331 -12.598  0.00  0.00    -0.042 C 
ATOM     24  C   UNL     1      37.391 -25.648 -13.429  0.00  0.00    -0.042 C 
ATOM     25  C   UNL     1      35.487 -23.404 -13.416  0.00  0.00    +0.024 C 
ATOM     26  C   UNL     1      36.075 -25.675 -14.230  0.00  0.00    +0.024 C 
ATOM     27  C   UNL     1      34.979 -24.830 -13.591  0.00  0.00    +0.164 C 
ATOM     28  C   UNL     1      37.303 -26.559 -12.191  0.00  0.00    -0.021 C 
ATOM     29  C   UNL     1      37.405 -21.929 -12.791  0.00  0.00    -0.021 C 
ATOM     30  C   UNL     1      36.508 -23.500 -11.093  0.00  0.00    -0.021 C 
ATOM     31  C   UNL     1      38.516 -26.207 -14.325  0.00  0.00    -0.021 C 
ATOM     32  H   UNL     1      38.509 -24.361 -12.347  0.00  0.00    -0.084 HD
ATOM     33  H   UNL     1      38.106 -23.884 -13.967  0.00  0.00    -0.084 HD
ENDBRANCH  21  27
ENDBRANCH   3  21
TORSDOF 5
ENDMDL
MODEL 9
REMARK VINA RESULT:      -9.8      7.679     14.051
REMARK  Name = 135565042
REMARK  5 active torsions:
REMARK  status: ('A' for Active; 'I' for Inactive)
REMARK    1  A    between atoms: C_3  and  O_21
REMARK    2  A    between atoms: C_6  and  C_7
REMARK    3  A    between atoms: C_8  and  O_19
REMARK    4  A    between atoms: C_10  and  C_15
REMARK    5  A    between atoms: O_21  and  C_27
REMARK                            x       y       z     vdW  Elec       q    Type
REMARK                         _______ _______ _______ _____ _____    ______ ____
ROOT
ATOM      1  N   UNL     1      34.187 -11.204 -23.788  0.00  0.00    -0.110 NA
ATOM      2  N   UNL     1      34.545 -12.439 -23.346  0.00  0.00    -0.145 NA
ATOM      3  C   UNL     1      33.098 -10.606 -23.259  0.00  0.00    +0.244 C 
ATOM      4  C   UNL     1      32.322 -11.192 -22.280  0.00  0.00    +0.061 C 
ATOM      5  C   UNL     1      32.686 -12.450 -21.830  0.00  0.00    +0.026 C 
ATOM      6  C   UNL     1      33.803 -13.037 -22.390  0.00  0.00    +0.106 C 
ENDROOT
BRANCH   6   7
ATOM      7  C   UNL     1      34.257 -14.342 -21.979  0.00  0.00    +0.053 C 
ATOM      8  C   UNL     1      34.488 -15.348 -22.918  0.00  0.00    +0.135 C 
ATOM      9  C   UNL     1      34.465 -14.594 -20.623  0.00  0.00    +0.005 C 
ATOM     10  C   UNL     1      35.135 -16.855 -21.145  0.00  0.00    +0.006 C 
ATOM     11  C   UNL     1      34.927 -16.604 -22.501  0.00  0.00    +0.037 C 
ATOM     12  C   UNL     1      34.903 -15.850 -20.205  0.00  0.00    +0.000 C 
BRANCH  10  15
ATOM     13  N   UNL     1      35.577 -20.256 -20.139  0.00  0.00    -0.235 N 
ATOM     14  N   UNL     1      36.870 -19.907 -20.021  0.00  0.00    -0.180 NA
ATOM     15  C   UNL     1      35.588 -18.148 -20.715  0.00  0.00    +0.037 C 
ATOM     16  C   UNL     1      34.768 -19.238 -20.552  0.00  0.00    +0.081 C 
ATOM     17  C   UNL     1      36.870 -18.619 -20.374  0.00  0.00    +0.119 C 
ATOM     18  H   UNL     1      35.245 -21.163 -19.946  0.00  0.00    +0.174 HD
ENDBRANCH  10  15
BRANCH   8  19
ATOM     19  O   UNL     1      34.293 -15.130 -24.250  0.00  0.00    -0.505 OA
ATOM     20  H   UNL     1      34.927 -14.647 -24.743  0.00  0.00    +0.292 HD
ENDBRANCH   8  19
ENDBRANCH   6   7
BRANCH   3  21
ATOM     21  O   UNL     1      32.773  -9.363 -23.730  0.00  0.00    -0.463 OA
BRANCH  21  27
ATOM     22  N   UNL     1      31.469  -6.552 -20.858  0.00  0.00    +0.389 N 
ATOM     23  C   UNL     1      32.220  -7.718 -20.372  0.00  0.00    -0.042 C 
ATOM     24  C   UNL     1      31.726  -6.050 -22.214  0.00  0.00    -0.042 C 
ATOM     25  C   UNL     1      32.334  -8.824 -21.438  0.00  0.00    +0.024 C 
ATOM     26  C   UNL     1      31.852  -7.189 -23.244  0.00  0.00    +0.024 C 
ATOM     27  C   UNL     1      32.799  -8.294 -22.789  0.00  0.00    +0.164 C 
ATOM     28  C   UNL     1      32.955  -5.124 -22.262  0.00  0.00    -0.021 C 
ATOM     29  C   UNL     1      31.408  -8.274 -19.183  0.00  0.00    -0.021 C 
ATOM     30  C   UNL     1      33.607  -7.326 -19.829  0.00  0.00    -0.021 C 
ATOM     31  C   UNL     1      30.497  -5.194 -22.584  0.00  0.00    -0.021 C 
ATOM     32  H   UNL     1      31.660  -5.784 -20.214  0.00  0.00    -0.084 HD
ATOM     33  H   UNL     1      30.505  -6.884 -20.900  0.00  0.00    -0.084 HD
ENDBRANCH  21  27
ENDBRANCH   3  21
TORSDOF 5
ENDMDL
