MODEL 1
REMARK VINA RESULT:     -11.5      0.000      0.000
REMARK  Name = 6420159
REMARK  9 active torsions:
REMARK  status: ('A' for Active; 'I' for Inactive)
REMARK    1  A    between atoms: C_1  and  N_3
REMARK    2  A    between atoms: C_1  and  C_15
REMARK    3  A    between atoms: C_1  and  C_29
REMARK    4  A    between atoms: N_14  and  C_17
REMARK    5  A    between atoms: C_17  and  C_18
REMARK    6  A    between atoms: C_18  and  N_19
REMARK    7  A    between atoms: N_19  and  C_21
REMARK    8  A    between atoms: C_26  and  O_27
REMARK    9  A    between atoms: C_29  and  C_30
REMARK                            x       y       z     vdW  Elec       q    Type
REMARK                         _______ _______ _______ _____ _____    ______ ____
ROOT
ATOM      1  C   UNL     1      33.270 -23.255 -16.834  0.00  0.00    +0.151 C 
ENDROOT
BRANCH   1   3
ATOM      2  O   UNL     1      35.738 -22.842 -14.154  0.00  0.00    -0.414 OA
ATOM      3  N   UNL     1      34.125 -22.739 -15.785  0.00  0.00    -0.271 N 
ATOM      4  N   UNL     1      35.287 -24.776 -15.248  0.00  0.00    -0.356 NA
ATOM      5  C   UNL     1      35.039 -23.513 -15.094  0.00  0.00    +0.345 C 
ATOM      6  C   UNL     1      36.546 -23.815 -13.638  0.00  0.00    +0.175 C 
ATOM      7  C   UNL     1      36.267 -24.997 -14.310  0.00  0.00    +0.152 C 
ATOM      8  C   UNL     1      37.487 -23.684 -12.626  0.00  0.00    +0.040 C 
ATOM      9  C   UNL     1      36.972 -26.157 -13.961  0.00  0.00    +0.088 C 
ATOM     10  C   UNL     1      38.182 -24.851 -12.289  0.00  0.00    -0.001 C 
ATOM     11  C   UNL     1      37.931 -26.064 -12.942  0.00  0.00    -0.018 C 
ATOM     12  H   UNL     1      34.050 -21.786 -15.552  0.00  0.00    +0.153 HD
ENDBRANCH   1   3
BRANCH   1  15
ATOM     13  O   UNL     1      33.982 -23.881 -19.063  0.00  0.00    -0.273 OA
ATOM     14  N   UNL     1      34.551 -21.782 -18.261  0.00  0.00    -0.301 N 
ATOM     15  C   UNL     1      33.957 -23.032 -18.174  0.00  0.00    +0.240 C 
ATOM     16  H   UNL     1      34.479 -21.165 -17.497  0.00  0.00    +0.150 HD
BRANCH  14  17
ATOM     17  C   UNL     1      35.270 -21.355 -19.437  0.00  0.00    +0.111 C 
BRANCH  17  18
ATOM     18  C   UNL     1      34.594 -20.183 -20.131  0.00  0.00    +0.109 C 
BRANCH  18  19
ATOM     19  N   UNL     1      35.536 -19.485 -20.974  0.00  0.00    -0.331 N 
ATOM     20  H   UNL     1      36.493 -19.546 -20.751  0.00  0.00    +0.147 HD
BRANCH  19  21
ATOM     21  C   UNL     1      35.169 -18.733 -22.079  0.00  0.00    +0.045 C 
ATOM     22  C   UNL     1      35.472 -17.360 -22.151  0.00  0.00    +0.017 C 
ATOM     23  C   UNL     1      34.483 -19.321 -23.157  0.00  0.00    +0.017 C 
ATOM     24  C   UNL     1      35.102 -16.603 -23.263  0.00  0.00    +0.038 C 
ATOM     25  C   UNL     1      34.113 -18.564 -24.269  0.00  0.00    +0.038 C 
ATOM     26  C   UNL     1      34.422 -17.205 -24.321  0.00  0.00    +0.139 C 
BRANCH  26  27
ATOM     27  O   UNL     1      34.061 -16.467 -25.406  0.00  0.00    -0.471 OA
ATOM     28  C   UNL     1      33.600 -15.139 -25.165  0.00  0.00    +0.252 C 
ENDBRANCH  26  27
ENDBRANCH  19  21
ENDBRANCH  18  19
ENDBRANCH  17  18
ENDBRANCH  14  17
ENDBRANCH   1  15
BRANCH   1  29
ATOM     29  C   UNL     1      31.915 -22.545 -16.814  0.00  0.00    +0.029 C 
BRANCH  29  30
ATOM     30  C   UNL     1      31.027 -23.012 -15.662  0.00  0.00    +0.002 C 
ATOM     31  C   UNL     1      31.421 -24.426 -15.213  0.00  0.00    +0.000 C 
ATOM     32  C   UNL     1      29.547 -22.959 -16.063  0.00  0.00    +0.000 C 
ATOM     33  C   UNL     1      30.512 -24.936 -14.096  0.00  0.00    +0.000 C 
ATOM     34  C   UNL     1      28.642 -23.472 -14.946  0.00  0.00    +0.000 C 
ATOM     35  C   UNL     1      29.042 -24.874 -14.495  0.00  0.00    +0.000 C 
ENDBRANCH  29  30
ENDBRANCH   1  29
TORSDOF 9
ENDMDL
MODEL 2
REMARK VINA RESULT:     -11.0      1.445      5.148
REMARK  Name = 6420159
REMARK  9 active torsions:
REMARK  status: ('A' for Active; 'I' for Inactive)
REMARK    1  A    between atoms: C_1  and  N_3
REMARK    2  A    between atoms: C_1  and  C_15
REMARK    3  A    between atoms: C_1  and  C_29
REMARK    4  A    between atoms: N_14  and  C_17
REMARK    5  A    between atoms: C_17  and  C_18
REMARK    6  A    between atoms: C_18  and  N_19
REMARK    7  A    between atoms: N_19  and  C_21
REMARK    8  A    between atoms: C_26  and  O_27
REMARK    9  A    between atoms: C_29  and  C_30
REMARK                            x       y       z     vdW  Elec       q    Type
REMARK                         _______ _______ _______ _____ _____    ______ ____
ROOT
ATOM      1  C   UNL     1      35.511 -22.822 -15.441  0.00  0.00    +0.151 C 
ENDROOT
BRANCH   1   3
ATOM      2  O   UNL     1      31.961 -23.414 -16.137  0.00  0.00    -0.414 OA
ATOM      3  N   UNL     1      34.199 -22.908 -16.046  0.00  0.00    -0.271 N 
ATOM      4  N   UNL     1      33.024 -23.896 -14.193  0.00  0.00    -0.356 NA
ATOM      5  C   UNL     1      33.090 -23.422 -15.398  0.00  0.00    +0.345 C 
ATOM      6  C   UNL     1      31.046 -23.959 -15.281  0.00  0.00    +0.175 C 
ATOM      7  C   UNL     1      31.701 -24.252 -14.093  0.00  0.00    +0.152 C 
ATOM      8  C   UNL     1      29.698 -24.194 -15.520  0.00  0.00    +0.040 C 
ATOM      9  C   UNL     1      30.972 -24.827 -13.042  0.00  0.00    +0.088 C 
ATOM     10  C   UNL     1      28.985 -24.767 -14.461  0.00  0.00    -0.001 C 
ATOM     11  C   UNL     1      29.607 -25.078 -13.246  0.00  0.00    -0.018 C 
ATOM     12  H   UNL     1      34.090 -22.585 -16.969  0.00  0.00    +0.153 HD
ENDBRANCH   1   3
BRANCH   1  15
ATOM     13  O   UNL     1      37.560 -21.694 -16.070  0.00  0.00    -0.273 OA
ATOM     14  N   UNL     1      35.860 -21.871 -17.637  0.00  0.00    -0.301 N 
ATOM     15  C   UNL     1      36.437 -22.075 -16.392  0.00  0.00    +0.240 C 
ATOM     16  H   UNL     1      34.953 -22.213 -17.804  0.00  0.00    +0.150 HD
BRANCH  14  17
ATOM     17  C   UNL     1      36.550 -21.174 -18.695  0.00  0.00    +0.111 C 
BRANCH  17  18
ATOM     18  C   UNL     1      35.602 -20.704 -19.788  0.00  0.00    +0.109 C 
BRANCH  18  19
ATOM     19  N   UNL     1      35.901 -19.343 -20.164  0.00  0.00    -0.331 N 
ATOM     20  H   UNL     1      36.443 -18.799 -19.547  0.00  0.00    +0.147 HD
BRANCH  19  21
ATOM     21  C   UNL     1      35.468 -18.757 -21.343  0.00  0.00    +0.045 C 
ATOM     22  C   UNL     1      34.853 -19.527 -22.348  0.00  0.00    +0.017 C 
ATOM     23  C   UNL     1      35.634 -17.378 -21.568  0.00  0.00    +0.017 C 
ATOM     24  C   UNL     1      34.419 -18.938 -23.536  0.00  0.00    +0.038 C 
ATOM     25  C   UNL     1      35.200 -16.789 -22.756  0.00  0.00    +0.038 C 
ATOM     26  C   UNL     1      34.593 -17.569 -23.739  0.00  0.00    +0.139 C 
BRANCH  26  27
ATOM     27  O   UNL     1      34.168 -16.994 -24.897  0.00  0.00    -0.471 OA
ATOM     28  C   UNL     1      33.922 -15.589 -24.873  0.00  0.00    +0.252 C 
ENDBRANCH  26  27
ENDBRANCH  19  21
ENDBRANCH  18  19
ENDBRANCH  17  18
ENDBRANCH  14  17
ENDBRANCH   1  15
BRANCH   1  29
ATOM     29  C   UNL     1      36.063 -24.221 -15.163  0.00  0.00    +0.029 C 
BRANCH  29  30
ATOM     30  C   UNL     1      36.532 -24.389 -13.719  0.00  0.00    +0.002 C 
ATOM     31  C   UNL     1      36.170 -23.153 -12.885  0.00  0.00    +0.000 C 
ATOM     32  C   UNL     1      38.042 -24.659 -13.667  0.00  0.00    +0.000 C 
ATOM     33  C   UNL     1      36.676 -23.274 -11.449  0.00  0.00    +0.000 C 
ATOM     34  C   UNL     1      38.544 -24.777 -12.231  0.00  0.00    +0.000 C 
ATOM     35  C   UNL     1      38.175 -23.551 -11.402  0.00  0.00    +0.000 C 
ENDBRANCH  29  30
ENDBRANCH   1  29
TORSDOF 9
ENDMDL
MODEL 3
REMARK VINA RESULT:     -10.3      3.036      8.396
REMARK  Name = 6420159
REMARK  9 active torsions:
REMARK  status: ('A' for Active; 'I' for Inactive)
REMARK    1  A    between atoms: C_1  and  N_3
REMARK    2  A    between atoms: C_1  and  C_15
REMARK    3  A    between atoms: C_1  and  C_29
REMARK    4  A    between atoms: N_14  and  C_17
REMARK    5  A    between atoms: C_17  and  C_18
REMARK    6  A    between atoms: C_18  and  N_19
REMARK    7  A    between atoms: N_19  and  C_21
REMARK    8  A    between atoms: C_26  and  O_27
REMARK    9  A    between atoms: C_29  and  C_30
REMARK                            x       y       z     vdW  Elec       q    Type
REMARK                         _______ _______ _______ _____ _____    ______ ____
ROOT
ATOM      1  C   UNL     1      34.420 -24.091 -14.893  0.00  0.00    +0.151 C 
ENDROOT
BRANCH   1   3
ATOM      2  O   UNL     1      33.020 -22.240 -17.731  0.00  0.00    -0.414 OA
ATOM      3  N   UNL     1      33.544 -23.477 -15.869  0.00  0.00    -0.271 N 
ATOM      4  N   UNL     1      35.225 -22.446 -17.247  0.00  0.00    -0.356 NA
ATOM      5  C   UNL     1      33.998 -22.725 -16.938  0.00  0.00    +0.345 C 
ATOM      6  C   UNL     1      33.725 -21.556 -18.680  0.00  0.00    +0.175 C 
ATOM      7  C   UNL     1      35.073 -21.685 -18.381  0.00  0.00    +0.152 C 
ATOM      8  C   UNL     1      33.219 -20.848 -19.763  0.00  0.00    +0.040 C 
ATOM      9  C   UNL     1      36.015 -21.066 -19.215  0.00  0.00    +0.088 C 
ATOM     10  C   UNL     1      34.171 -20.237 -20.586  0.00  0.00    -0.001 C 
ATOM     11  C   UNL     1      35.542 -20.342 -20.319  0.00  0.00    -0.018 C 
ATOM     12  H   UNL     1      32.573 -23.601 -15.765  0.00  0.00    +0.153 HD
ENDBRANCH   1   3
BRANCH   1  15
ATOM     13  O   UNL     1      34.042 -23.912 -12.507  0.00  0.00    -0.273 OA
ATOM     14  N   UNL     1      32.449 -24.979 -13.810  0.00  0.00    -0.301 N 
ATOM     15  C   UNL     1      33.640 -24.300 -13.602  0.00  0.00    +0.240 C 
ATOM     16  H   UNL     1      32.208 -25.251 -14.725  0.00  0.00    +0.150 HD
BRANCH  14  17
ATOM     17  C   UNL     1      31.550 -25.300 -12.727  0.00  0.00    +0.111 C 
BRANCH  17  18
ATOM     18  C   UNL     1      30.439 -24.272 -12.578  0.00  0.00    +0.109 C 
BRANCH  18  19
ATOM     19  N   UNL     1      30.525 -23.281 -13.625  0.00  0.00    -0.331 N 
ATOM     20  H   UNL     1      31.323 -22.704 -13.654  0.00  0.00    +0.147 HD
BRANCH  19  21
ATOM     21  C   UNL     1      29.548 -23.094 -14.590  0.00  0.00    +0.045 C 
ATOM     22  C   UNL     1      28.454 -22.242 -14.354  0.00  0.00    +0.017 C 
ATOM     23  C   UNL     1      29.623 -23.754 -15.830  0.00  0.00    +0.017 C 
ATOM     24  C   UNL     1      27.470 -22.055 -15.325  0.00  0.00    +0.038 C 
ATOM     25  C   UNL     1      28.639 -23.567 -16.801  0.00  0.00    +0.038 C 
ATOM     26  C   UNL     1      27.562 -22.718 -16.548  0.00  0.00    +0.139 C 
BRANCH  26  27
ATOM     27  O   UNL     1      26.603 -22.535 -17.497  0.00  0.00    -0.471 OA
ATOM     28  C   UNL     1      25.924 -21.280 -17.501  0.00  0.00    +0.252 C 
ENDBRANCH  26  27
ENDBRANCH  19  21
ENDBRANCH  18  19
ENDBRANCH  17  18
ENDBRANCH  14  17
ENDBRANCH   1  15
BRANCH   1  29
ATOM     29  C   UNL     1      35.636 -23.200 -14.633  0.00  0.00    +0.029 C 
BRANCH  29  30
ATOM     30  C   UNL     1      36.889 -24.005 -14.295  0.00  0.00    +0.002 C 
ATOM     31  C   UNL     1      36.636 -25.506 -14.483  0.00  0.00    +0.000 C 
ATOM     32  C   UNL     1      37.355 -23.706 -12.863  0.00  0.00    +0.000 C 
ATOM     33  C   UNL     1      37.859 -26.336 -14.100  0.00  0.00    +0.000 C 
ATOM     34  C   UNL     1      38.576 -24.539 -12.482  0.00  0.00    +0.000 C 
ATOM     35  C   UNL     1      38.324 -26.030 -12.680  0.00  0.00    +0.000 C 
ENDBRANCH  29  30
ENDBRANCH   1  29
TORSDOF 9
ENDMDL
MODEL 4
REMARK VINA RESULT:     -10.2      2.376      5.115
REMARK  Name = 6420159
REMARK  9 active torsions:
REMARK  status: ('A' for Active; 'I' for Inactive)
REMARK    1  A    between atoms: C_1  and  N_3
REMARK    2  A    between atoms: C_1  and  C_15
REMARK    3  A    between atoms: C_1  and  C_29
REMARK    4  A    between atoms: N_14  and  C_17
REMARK    5  A    between atoms: C_17  and  C_18
REMARK    6  A    between atoms: C_18  and  N_19
REMARK    7  A    between atoms: N_19  and  C_21
REMARK    8  A    between atoms: C_26  and  O_27
REMARK    9  A    between atoms: C_29  and  C_30
REMARK                            x       y       z     vdW  Elec       q    Type
REMARK                         _______ _______ _______ _____ _____    ______ ____
ROOT
ATOM      1  C   UNL     1      33.250 -21.546 -18.021  0.00  0.00    +0.151 C 
ENDROOT
BRANCH   1   3
ATOM      2  O   UNL     1      30.338 -23.297 -16.644  0.00  0.00    -0.414 OA
ATOM      3  N   UNL     1      31.959 -22.168 -17.815  0.00  0.00    -0.271 N 
ATOM      4  N   UNL     1      32.280 -22.895 -15.544  0.00  0.00    -0.356 NA
ATOM      5  C   UNL     1      31.583 -22.776 -16.631  0.00  0.00    +0.345 C 
ATOM      6  C   UNL     1      30.226 -23.821 -15.387  0.00  0.00    +0.175 C 
ATOM      7  C   UNL     1      31.416 -23.573 -14.718  0.00  0.00    +0.152 C 
ATOM      8  C   UNL     1      29.136 -24.487 -14.843  0.00  0.00    +0.040 C 
ATOM      9  C   UNL     1      31.553 -24.016 -13.395  0.00  0.00    +0.088 C 
ATOM     10  C   UNL     1      29.289 -24.922 -13.522  0.00  0.00    -0.001 C 
ATOM     11  C   UNL     1      30.473 -24.693 -12.811  0.00  0.00    -0.018 C 
ATOM     12  H   UNL     1      31.315 -22.159 -18.559  0.00  0.00    +0.153 HD
ENDBRANCH   1   3
BRANCH   1  15
ATOM     13  O   UNL     1      32.265 -20.816 -20.110  0.00  0.00    -0.273 OA
ATOM     14  N   UNL     1      34.529 -20.457 -19.761  0.00  0.00    -0.301 N 
ATOM     15  C   UNL     1      33.267 -20.906 -19.402  0.00  0.00    +0.240 C 
ATOM     16  H   UNL     1      35.274 -20.572 -19.128  0.00  0.00    +0.150 HD
BRANCH  14  17
ATOM     17  C   UNL     1      34.786 -19.827 -21.033  0.00  0.00    +0.111 C 
BRANCH  17  18
ATOM     18  C   UNL     1      35.962 -18.865 -20.971  0.00  0.00    +0.109 C 
BRANCH  18  19
ATOM     19  N   UNL     1      35.589 -17.656 -20.277  0.00  0.00    -0.331 N 
ATOM     20  H   UNL     1      35.575 -17.671 -19.292  0.00  0.00    +0.147 HD
BRANCH  19  21
ATOM     21  C   UNL     1      35.248 -16.474 -20.916  0.00  0.00    +0.045 C 
ATOM     22  C   UNL     1      35.321 -16.365 -22.317  0.00  0.00    +0.017 C 
ATOM     23  C   UNL     1      34.822 -15.352 -20.182  0.00  0.00    +0.017 C 
ATOM     24  C   UNL     1      34.980 -15.175 -22.961  0.00  0.00    +0.038 C 
ATOM     25  C   UNL     1      34.481 -14.163 -20.826  0.00  0.00    +0.038 C 
ATOM     26  C   UNL     1      34.560 -14.074 -22.215  0.00  0.00    +0.139 C 
BRANCH  26  27
ATOM     27  O   UNL     1      34.226 -12.914 -22.842  0.00  0.00    -0.471 OA
ATOM     28  C   UNL     1      33.484 -13.021 -24.056  0.00  0.00    +0.252 C 
ENDBRANCH  26  27
ENDBRANCH  19  21
ENDBRANCH  18  19
ENDBRANCH  17  18
ENDBRANCH  14  17
ENDBRANCH   1  15
BRANCH   1  29
ATOM     29  C   UNL     1      34.366 -22.586 -17.911  0.00  0.00    +0.029 C 
BRANCH  29  30
ATOM     30  C   UNL     1      35.283 -22.336 -16.716  0.00  0.00    +0.002 C 
ATOM     31  C   UNL     1      36.679 -21.904 -17.184  0.00  0.00    +0.000 C 
ATOM     32  C   UNL     1      35.368 -23.585 -15.827  0.00  0.00    +0.000 C 
ATOM     33  C   UNL     1      37.630 -21.699 -16.007  0.00  0.00    +0.000 C 
ATOM     34  C   UNL     1      36.322 -23.377 -14.653  0.00  0.00    +0.000 C 
ATOM     35  C   UNL     1      37.706 -22.938 -15.122  0.00  0.00    +0.000 C 
ENDBRANCH  29  30
ENDBRANCH   1  29
TORSDOF 9
ENDMDL
MODEL 5
REMARK VINA RESULT:     -10.0      5.405     13.147
REMARK  Name = 6420159
REMARK  9 active torsions:
REMARK  status: ('A' for Active; 'I' for Inactive)
REMARK    1  A    between atoms: C_1  and  N_3
REMARK    2  A    between atoms: C_1  and  C_15
REMARK    3  A    between atoms: C_1  and  C_29
REMARK    4  A    between atoms: N_14  and  C_17
REMARK    5  A    between atoms: C_17  and  C_18
REMARK    6  A    between atoms: C_18  and  N_19
REMARK    7  A    between atoms: N_19  and  C_21
REMARK    8  A    between atoms: C_26  and  O_27
REMARK    9  A    between atoms: C_29  and  C_30
REMARK                            x       y       z     vdW  Elec       q    Type
REMARK                         _______ _______ _______ _____ _____    ______ ____
ROOT
ATOM      1  C   UNL     1      32.683 -12.946 -21.224  0.00  0.00    +0.151 C 
ENDROOT
BRANCH   1   3
ATOM      2  O   UNL     1      32.159  -9.569 -19.895  0.00  0.00    -0.414 OA
ATOM      3  N   UNL     1      32.564 -11.778 -20.377  0.00  0.00    -0.271 N 
ATOM      4  N   UNL     1      31.946 -10.182 -22.068  0.00  0.00    -0.356 NA
ATOM      5  C   UNL     1      32.215 -10.524 -20.847  0.00  0.00    +0.345 C 
ATOM      6  C   UNL     1      31.803  -8.462 -20.611  0.00  0.00    +0.175 C 
ATOM      7  C   UNL     1      31.674  -8.841 -21.940  0.00  0.00    +0.152 C 
ATOM      8  C   UNL     1      31.599  -7.174 -20.132  0.00  0.00    +0.040 C 
ATOM      9  C   UNL     1      31.312  -7.874 -22.888  0.00  0.00    +0.088 C 
ATOM     10  C   UNL     1      31.238  -6.221 -21.090  0.00  0.00    -0.001 C 
ATOM     11  C   UNL     1      31.096  -6.562 -22.442  0.00  0.00    -0.018 C 
ATOM     12  H   UNL     1      32.740 -11.882 -19.414  0.00  0.00    +0.153 HD
ENDBRANCH   1   3
BRANCH   1  15
ATOM     13  O   UNL     1      32.341 -14.504 -19.401  0.00  0.00    -0.273 OA
ATOM     14  N   UNL     1      34.209 -14.761 -20.751  0.00  0.00    -0.301 N 
ATOM     15  C   UNL     1      33.032 -14.145 -20.353  0.00  0.00    +0.240 C 
ATOM     16  H   UNL     1      34.697 -14.403 -21.527  0.00  0.00    +0.150 HD
BRANCH  14  17
ATOM     17  C   UNL     1      34.742 -15.912 -20.063  0.00  0.00    +0.111 C 
BRANCH  17  18
ATOM     18  C   UNL     1      35.590 -16.786 -20.974  0.00  0.00    +0.109 C 
BRANCH  18  19
ATOM     19  N   UNL     1      34.862 -17.973 -21.355  0.00  0.00    -0.331 N 
ATOM     20  H   UNL     1      34.342 -17.951 -22.191  0.00  0.00    +0.147 HD
BRANCH  19  21
ATOM     21  C   UNL     1      34.853 -19.142 -20.610  0.00  0.00    +0.045 C 
ATOM     22  C   UNL     1      36.054 -19.719 -20.158  0.00  0.00    +0.017 C 
ATOM     23  C   UNL     1      33.643 -19.784 -20.289  0.00  0.00    +0.017 C 
ATOM     24  C   UNL     1      36.044 -20.897 -19.410  0.00  0.00    +0.038 C 
ATOM     25  C   UNL     1      33.633 -20.962 -19.542  0.00  0.00    +0.038 C 
ATOM     26  C   UNL     1      34.834 -21.518 -19.102  0.00  0.00    +0.139 C 
BRANCH  26  27
ATOM     27  O   UNL     1      34.824 -22.666 -18.372  0.00  0.00    -0.471 OA
ATOM     28  C   UNL     1      33.698 -22.889 -17.525  0.00  0.00    +0.252 C 
ENDBRANCH  26  27
ENDBRANCH  19  21
ENDBRANCH  18  19
ENDBRANCH  17  18
ENDBRANCH  14  17
ENDBRANCH   1  15
BRANCH   1  29
ATOM     29  C   UNL     1      33.770 -12.729 -22.279  0.00  0.00    +0.029 C 
BRANCH  29  30
ATOM     30  C   UNL     1      33.303 -13.100 -23.685  0.00  0.00    +0.002 C 
ATOM     31  C   UNL     1      33.899 -14.445 -24.118  0.00  0.00    +0.000 C 
ATOM     32  C   UNL     1      33.665 -11.994 -24.686  0.00  0.00    +0.000 C 
ATOM     33  C   UNL     1      33.488 -14.812 -25.542  0.00  0.00    +0.000 C 
ATOM     34  C   UNL     1      33.255 -12.365 -26.109  0.00  0.00    +0.000 C 
ATOM     35  C   UNL     1      33.843 -13.708 -26.532  0.00  0.00    +0.000 C 
ENDBRANCH  29  30
ENDBRANCH   1  29
TORSDOF 9
ENDMDL
MODEL 6
REMARK VINA RESULT:      -9.7      8.401     15.730
REMARK  Name = 6420159
REMARK  9 active torsions:
REMARK  status: ('A' for Active; 'I' for Inactive)
REMARK    1  A    between atoms: C_1  and  N_3
REMARK    2  A    between atoms: C_1  and  C_15
REMARK    3  A    between atoms: C_1  and  C_29
REMARK    4  A    between atoms: N_14  and  C_17
REMARK    5  A    between atoms: C_17  and  C_18
REMARK    6  A    between atoms: C_18  and  N_19
REMARK    7  A    between atoms: N_19  and  C_21
REMARK    8  A    between atoms: C_26  and  O_27
REMARK    9  A    between atoms: C_29  and  C_30
REMARK                            x       y       z     vdW  Elec       q    Type
REMARK                         _______ _______ _______ _____ _____    ______ ____
ROOT
ATOM      1  C   UNL     1      33.280  -8.539 -22.929  0.00  0.00    +0.151 C 
ENDROOT
BRANCH   1   3
ATOM      2  O   UNL     1      33.121  -5.095 -24.177  0.00  0.00    -0.414 OA
ATOM      3  N   UNL     1      33.384  -7.330 -23.719  0.00  0.00    -0.271 N 
ATOM      4  N   UNL     1      32.357  -5.808 -22.165  0.00  0.00    -0.356 NA
ATOM      5  C   UNL     1      32.930  -6.095 -23.291  0.00  0.00    +0.345 C 
ATOM      6  C   UNL     1      32.596  -4.018 -23.521  0.00  0.00    +0.175 C 
ATOM      7  C   UNL     1      32.130  -4.458 -22.290  0.00  0.00    +0.152 C 
ATOM      8  C   UNL     1      32.524  -2.706 -23.970  0.00  0.00    +0.040 C 
ATOM      9  C   UNL     1      31.540  -3.532 -21.419  0.00  0.00    +0.088 C 
ATOM     10  C   UNL     1      31.933  -1.794 -23.089  0.00  0.00    -0.001 C 
ATOM     11  C   UNL     1      31.449  -2.197 -21.838  0.00  0.00    -0.018 C 
ATOM     12  H   UNL     1      33.800  -7.390 -24.609  0.00  0.00    +0.153 HD
ENDBRANCH   1   3
BRANCH   1  15
ATOM     13  O   UNL     1      35.351  -9.606 -23.590  0.00  0.00    -0.273 OA
ATOM     14  N   UNL     1      33.345 -10.606 -24.182  0.00  0.00    -0.301 N 
ATOM     15  C   UNL     1      34.122  -9.623 -23.587  0.00  0.00    +0.240 C 
ATOM     16  H   UNL     1      32.365 -10.537 -24.129  0.00  0.00    +0.150 HD
BRANCH  14  17
ATOM     17  C   UNL     1      33.929 -11.729 -24.877  0.00  0.00    +0.111 C 
BRANCH  17  18
ATOM     18  C   UNL     1      33.623 -13.051 -24.191  0.00  0.00    +0.109 C 
BRANCH  18  19
ATOM     19  N   UNL     1      34.203 -13.080 -22.869  0.00  0.00    -0.331 N 
ATOM     20  H   UNL     1      34.361 -12.221 -22.413  0.00  0.00    +0.147 HD
BRANCH  19  21
ATOM     21  C   UNL     1      34.549 -14.246 -22.206  0.00  0.00    +0.045 C 
ATOM     22  C   UNL     1      34.447 -14.337 -20.805  0.00  0.00    +0.017 C 
ATOM     23  C   UNL     1      35.014 -15.369 -22.914  0.00  0.00    +0.017 C 
ATOM     24  C   UNL     1      34.798 -15.511 -20.137  0.00  0.00    +0.038 C 
ATOM     25  C   UNL     1      35.364 -16.542 -22.246  0.00  0.00    +0.038 C 
ATOM     26  C   UNL     1      35.256 -16.613 -20.857  0.00  0.00    +0.139 C 
BRANCH  26  27
ATOM     27  O   UNL     1      35.597 -17.758 -20.206  0.00  0.00    -0.471 OA
ATOM     28  C   UNL     1      35.106 -18.984 -20.746  0.00  0.00    +0.252 C 
ENDBRANCH  26  27
ENDBRANCH  19  21
ENDBRANCH  18  19
ENDBRANCH  17  18
ENDBRANCH  14  17
ENDBRANCH   1  15
BRANCH   1  29
ATOM     29  C   UNL     1      31.821  -8.990 -22.837  0.00  0.00    +0.029 C 
BRANCH  29  30
ATOM     30  C   UNL     1      31.433  -9.428 -21.427  0.00  0.00    +0.002 C 
ATOM     31  C   UNL     1      32.101  -8.531 -20.377  0.00  0.00    +0.000 C 
ATOM     32  C   UNL     1      31.796 -10.901 -21.196  0.00  0.00    +0.000 C 
ATOM     33  C   UNL     1      31.769  -8.981 -18.956  0.00  0.00    +0.000 C 
ATOM     34  C   UNL     1      31.466 -11.348 -19.775  0.00  0.00    +0.000 C 
ATOM     35  C   UNL     1      32.125 -10.448 -18.734  0.00  0.00    +0.000 C 
ENDBRANCH  29  30
ENDBRANCH   1  29
TORSDOF 9
ENDMDL
MODEL 7
REMARK VINA RESULT:      -9.4      6.207     13.338
REMARK  Name = 6420159
REMARK  9 active torsions:
REMARK  status: ('A' for Active; 'I' for Inactive)
REMARK    1  A    between atoms: C_1  and  N_3
REMARK    2  A    between atoms: C_1  and  C_15
REMARK    3  A    between atoms: C_1  and  C_29
REMARK    4  A    between atoms: N_14  and  C_17
REMARK    5  A    between atoms: C_17  and  C_18
REMARK    6  A    between atoms: C_18  and  N_19
REMARK    7  A    between atoms: N_19  and  C_21
REMARK    8  A    between atoms: C_26  and  O_27
REMARK    9  A    between atoms: C_29  and  C_30
REMARK                            x       y       z     vdW  Elec       q    Type
REMARK                         _______ _______ _______ _____ _____    ______ ____
ROOT
ATOM      1  C   UNL     1      34.025 -11.657 -23.473  0.00  0.00    +0.151 C 
ENDROOT
BRANCH   1   3
ATOM      2  O   UNL     1      33.960  -7.999 -23.710  0.00  0.00    -0.414 OA
ATOM      3  N   UNL     1      34.227 -10.276 -23.856  0.00  0.00    -0.271 N 
ATOM      4  N   UNL     1      32.855  -9.243 -22.170  0.00  0.00    -0.356 NA
ATOM      5  C   UNL     1      33.646  -9.207 -23.197  0.00  0.00    +0.345 C 
ATOM      6  C   UNL     1      33.273  -7.146 -22.895  0.00  0.00    +0.175 C 
ATOM      7  C   UNL     1      32.599  -7.910 -21.954  0.00  0.00    +0.152 C 
ATOM      8  C   UNL     1      33.233  -5.759 -22.963  0.00  0.00    +0.040 C 
ATOM      9  C   UNL     1      31.812  -7.262 -20.992  0.00  0.00    +0.088 C 
ATOM     10  C   UNL     1      32.444  -5.127 -21.996  0.00  0.00    -0.001 C 
ATOM     11  C   UNL     1      31.747  -5.861 -21.029  0.00  0.00    -0.018 C 
ATOM     12  H   UNL     1      34.809 -10.087 -24.627  0.00  0.00    +0.153 HD
ENDBRANCH   1   3
BRANCH   1  15
ATOM     13  O   UNL     1      33.573 -11.968 -25.833  0.00  0.00    -0.273 OA
ATOM     14  N   UNL     1      33.769 -13.841 -24.481  0.00  0.00    -0.301 N 
ATOM     15  C   UNL     1      33.768 -12.477 -24.731  0.00  0.00    +0.240 C 
ATOM     16  H   UNL     1      33.936 -14.158 -23.564  0.00  0.00    +0.150 HD
BRANCH  14  17
ATOM     17  C   UNL     1      33.535 -14.812 -25.522  0.00  0.00    +0.111 C 
BRANCH  17  18
ATOM     18  C   UNL     1      33.494 -16.234 -24.985  0.00  0.00    +0.109 C 
BRANCH  18  19
ATOM     19  N   UNL     1      34.776 -16.601 -24.432  0.00  0.00    -0.331 N 
ATOM     20  H   UNL     1      35.588 -16.274 -24.883  0.00  0.00    +0.147 HD
BRANCH  19  21
ATOM     21  C   UNL     1      34.929 -17.387 -23.301  0.00  0.00    +0.045 C 
ATOM     22  C   UNL     1      34.305 -18.646 -23.207  0.00  0.00    +0.017 C 
ATOM     23  C   UNL     1      35.710 -16.949 -22.216  0.00  0.00    +0.017 C 
ATOM     24  C   UNL     1      34.458 -19.437 -22.068  0.00  0.00    +0.038 C 
ATOM     25  C   UNL     1      35.863 -17.740 -21.078  0.00  0.00    +0.038 C 
ATOM     26  C   UNL     1      35.237 -18.984 -21.004  0.00  0.00    +0.139 C 
BRANCH  26  27
ATOM     27  O   UNL     1      35.388 -19.756 -19.893  0.00  0.00    -0.471 OA
ATOM     28  C   UNL     1      34.441 -20.805 -19.697  0.00  0.00    +0.252 C 
ENDBRANCH  26  27
ENDBRANCH  19  21
ENDBRANCH  18  19
ENDBRANCH  17  18
ENDBRANCH  14  17
ENDBRANCH   1  15
BRANCH   1  29
ATOM     29  C   UNL     1      32.837 -11.777 -22.517  0.00  0.00    +0.029 C 
BRANCH  29  30
ATOM     30  C   UNL     1      33.185 -12.547 -21.246  0.00  0.00    +0.002 C 
ATOM     31  C   UNL     1      34.401 -13.454 -21.477  0.00  0.00    +0.000 C 
ATOM     32  C   UNL     1      31.980 -13.364 -20.759  0.00  0.00    +0.000 C 
ATOM     33  C   UNL     1      34.737 -14.275 -20.234  0.00  0.00    +0.000 C 
ATOM     34  C   UNL     1      32.320 -14.186 -19.518  0.00  0.00    +0.000 C 
ATOM     35  C   UNL     1      33.535 -15.079 -19.749  0.00  0.00    +0.000 C 
ENDBRANCH  29  30
ENDBRANCH   1  29
TORSDOF 9
ENDMDL
MODEL 8
REMARK VINA RESULT:      -9.1      9.098     15.305
REMARK  Name = 6420159
REMARK  9 active torsions:
REMARK  status: ('A' for Active; 'I' for Inactive)
REMARK    1  A    between atoms: C_1  and  N_3
REMARK    2  A    between atoms: C_1  and  C_15
REMARK    3  A    between atoms: C_1  and  C_29
REMARK    4  A    between atoms: N_14  and  C_17
REMARK    5  A    between atoms: C_17  and  C_18
REMARK    6  A    between atoms: C_18  and  N_19
REMARK    7  A    between atoms: N_19  and  C_21
REMARK    8  A    between atoms: C_26  and  O_27
REMARK    9  A    between atoms: C_29  and  C_30
REMARK                            x       y       z     vdW  Elec       q    Type
REMARK                         _______ _______ _______ _____ _____    ______ ____
ROOT
ATOM      1  C   UNL     1      32.406  -7.363 -20.860  0.00  0.00    +0.151 C 
ENDROOT
BRANCH   1   3
ATOM      2  O   UNL     1      34.802  -8.654 -23.316  0.00  0.00    -0.414 OA
ATOM      3  N   UNL     1      33.569  -7.605 -21.687  0.00  0.00    -0.271 N 
ATOM      4  N   UNL     1      32.701  -9.438 -22.981  0.00  0.00    -0.356 NA
ATOM      5  C   UNL     1      33.627  -8.592 -22.655  0.00  0.00    +0.345 C 
ATOM      6  C   UNL     1      34.594  -9.685 -24.188  0.00  0.00    +0.175 C 
ATOM      7  C   UNL     1      33.308 -10.162 -23.980  0.00  0.00    +0.152 C 
ATOM      8  C   UNL     1      35.483 -10.192 -25.126  0.00  0.00    +0.040 C 
ATOM      9  C   UNL     1      32.848 -11.232 -24.760  0.00  0.00    +0.088 C 
ATOM     10  C   UNL     1      35.009 -11.259 -25.897  0.00  0.00    -0.001 C 
ATOM     11  C   UNL     1      33.718 -11.771 -25.719  0.00  0.00    -0.018 C 
ATOM     12  H   UNL     1      34.361  -7.036 -21.554  0.00  0.00    +0.153 HD
ENDBRANCH   1   3
BRANCH   1  15
ATOM     13  O   UNL     1      32.731  -8.690 -18.860  0.00  0.00    -0.273 OA
ATOM     14  N   UNL     1      31.339  -9.507 -20.525  0.00  0.00    -0.301 N 
ATOM     15  C   UNL     1      32.191  -8.571 -19.958  0.00  0.00    +0.240 C 
ATOM     16  H   UNL     1      30.953  -9.326 -21.411  0.00  0.00    +0.150 HD
BRANCH  14  17
ATOM     17  C   UNL     1      31.000 -10.740 -19.855  0.00  0.00    +0.111 C 
BRANCH  17  18
ATOM     18  C   UNL     1      32.148 -11.736 -19.867  0.00  0.00    +0.109 C 
BRANCH  18  19
ATOM     19  N   UNL     1      32.321 -12.290 -21.189  0.00  0.00    -0.331 N 
ATOM     20  H   UNL     1      31.808 -11.893 -21.930  0.00  0.00    +0.147 HD
BRANCH  19  21
ATOM     21  C   UNL     1      33.169 -13.348 -21.476  0.00  0.00    +0.045 C 
ATOM     22  C   UNL     1      33.356 -13.785 -22.801  0.00  0.00    +0.017 C 
ATOM     23  C   UNL     1      33.863 -14.016 -20.450  0.00  0.00    +0.017 C 
ATOM     24  C   UNL     1      34.208 -14.851 -23.089  0.00  0.00    +0.038 C 
ATOM     25  C   UNL     1      34.714 -15.083 -20.739  0.00  0.00    +0.038 C 
ATOM     26  C   UNL     1      34.887 -15.500 -22.058  0.00  0.00    +0.139 C 
BRANCH  26  27
ATOM     27  O   UNL     1      35.719 -16.540 -22.338  0.00  0.00    -0.471 OA
ATOM     28  C   UNL     1      35.112 -17.776 -22.712  0.00  0.00    +0.252 C 
ENDBRANCH  26  27
ENDBRANCH  19  21
ENDBRANCH  18  19
ENDBRANCH  17  18
ENDBRANCH  14  17
ENDBRANCH   1  15
BRANCH   1  29
ATOM     29  C   UNL     1      31.171  -7.133 -21.732  0.00  0.00    +0.029 C 
BRANCH  29  30
ATOM     30  C   UNL     1      30.971  -5.661 -22.087  0.00  0.00    +0.002 C 
ATOM     31  C   UNL     1      31.279  -5.414 -23.570  0.00  0.00    +0.000 C 
ATOM     32  C   UNL     1      31.839  -4.765 -21.193  0.00  0.00    +0.000 C 
ATOM     33  C   UNL     1      31.138  -3.939 -23.937  0.00  0.00    +0.000 C 
ATOM     34  C   UNL     1      31.698  -3.291 -21.564  0.00  0.00    +0.000 C 
ATOM     35  C   UNL     1      31.996  -3.051 -23.041  0.00  0.00    +0.000 C 
ENDBRANCH  29  30
ENDBRANCH   1  29
TORSDOF 9
ENDMDL
MODEL 9
REMARK VINA RESULT:      -9.1      8.418     12.375
REMARK  Name = 6420159
REMARK  9 active torsions:
REMARK  status: ('A' for Active; 'I' for Inactive)
REMARK    1  A    between atoms: C_1  and  N_3
REMARK    2  A    between atoms: C_1  and  C_15
REMARK    3  A    between atoms: C_1  and  C_29
REMARK    4  A    between atoms: N_14  and  C_17
REMARK    5  A    between atoms: C_17  and  C_18
REMARK    6  A    between atoms: C_18  and  N_19
REMARK    7  A    between atoms: N_19  and  C_21
REMARK    8  A    between atoms: C_26  and  O_27
REMARK    9  A    between atoms: C_29  and  C_30
REMARK                            x       y       z     vdW  Elec       q    Type
REMARK                         _______ _______ _______ _____ _____    ______ ____
ROOT
ATOM      1  C   UNL     1      32.950 -13.248 -24.527  0.00  0.00    +0.151 C 
ENDROOT
BRANCH   1   3
ATOM      2  O   UNL     1      33.372 -16.822 -25.228  0.00  0.00    -0.414 OA
ATOM      3  N   UNL     1      32.917 -14.574 -25.107  0.00  0.00    -0.271 N 
ATOM      4  N   UNL     1      34.186 -15.726 -23.418  0.00  0.00    -0.356 NA
ATOM      5  C   UNL     1      33.518 -15.678 -24.528  0.00  0.00    +0.345 C 
ATOM      6  C   UNL     1      34.041 -17.727 -24.454  0.00  0.00    +0.175 C 
ATOM      7  C   UNL     1      34.537 -17.052 -23.348  0.00  0.00    +0.152 C 
ATOM      8  C   UNL     1      34.214 -19.083 -24.697  0.00  0.00    +0.040 C 
ATOM      9  C   UNL     1      35.271 -17.768 -22.391  0.00  0.00    +0.088 C 
ATOM     10  C   UNL     1      34.948 -19.783 -23.733  0.00  0.00    -0.001 C 
ATOM     11  C   UNL     1      35.466 -19.141 -22.602  0.00  0.00    -0.018 C 
ATOM     12  H   UNL     1      32.442 -14.697 -25.960  0.00  0.00    +0.153 HD
ENDBRANCH   1   3
BRANCH   1  15
ATOM     13  O   UNL     1      33.879 -12.545 -26.651  0.00  0.00    -0.273 OA
ATOM     14  N   UNL     1      34.316 -11.267 -24.767  0.00  0.00    -0.301 N 
ATOM     15  C   UNL     1      33.751 -12.336 -25.446  0.00  0.00    +0.240 C 
ATOM     16  H   UNL     1      34.158 -11.179 -23.799  0.00  0.00    +0.150 HD
BRANCH  14  17
ATOM     17  C   UNL     1      35.129 -10.278 -25.433  0.00  0.00    +0.111 C 
BRANCH  17  18
ATOM     18  C   UNL     1      35.077  -8.927 -24.737  0.00  0.00    +0.109 C 
BRANCH  18  19
ATOM     19  N   UNL     1      34.469  -9.054 -23.434  0.00  0.00    -0.331 N 
ATOM     20  H   UNL     1      34.727  -9.822 -22.874  0.00  0.00    +0.147 HD
BRANCH  19  21
ATOM     21  C   UNL     1      33.543  -8.157 -22.926  0.00  0.00    +0.045 C 
ATOM     22  C   UNL     1      32.178  -8.266 -23.253  0.00  0.00    +0.017 C 
ATOM     23  C   UNL     1      33.942  -7.113 -22.071  0.00  0.00    +0.017 C 
ATOM     24  C   UNL     1      31.246  -7.363 -22.743  0.00  0.00    +0.038 C 
ATOM     25  C   UNL     1      33.009  -6.210 -21.561  0.00  0.00    +0.038 C 
ATOM     26  C   UNL     1      31.662  -6.334 -21.897  0.00  0.00    +0.139 C 
BRANCH  26  27
ATOM     27  O   UNL     1      30.752  -5.453 -21.398  0.00  0.00    -0.471 OA
ATOM     28  C   UNL     1      30.953  -4.073 -21.696  0.00  0.00    +0.252 C 
ENDBRANCH  26  27
ENDBRANCH  19  21
ENDBRANCH  18  19
ENDBRANCH  17  18
ENDBRANCH  14  17
ENDBRANCH   1  15
BRANCH   1  29
ATOM     29  C   UNL     1      33.593 -13.290 -23.139  0.00  0.00    +0.029 C 
BRANCH  29  30
ATOM     30  C   UNL     1      32.605 -12.946 -22.027  0.00  0.00    +0.002 C 
ATOM     31  C   UNL     1      32.360 -11.433 -21.968  0.00  0.00    +0.000 C 
ATOM     32  C   UNL     1      33.106 -13.471 -20.675  0.00  0.00    +0.000 C 
ATOM     33  C   UNL     1      31.414 -11.059 -20.828  0.00  0.00    +0.000 C 
ATOM     34  C   UNL     1      32.160 -13.094 -19.537  0.00  0.00    +0.000 C 
ATOM     35  C   UNL     1      31.912 -11.589 -19.487  0.00  0.00    +0.000 C 
ENDBRANCH  29  30
ENDBRANCH   1  29
TORSDOF 9
ENDMDL
