MODEL 1
REMARK VINA RESULT:     -12.1      0.000      0.000
REMARK  Name = 9924495
REMARK  4 active torsions:
REMARK  status: ('A' for Active; 'I' for Inactive)
REMARK    1  A    between atoms: N_2  and  C_22
REMARK    2  A    between atoms: C_3  and  C_14
REMARK    3  A    between atoms: C_4  and  C_9
REMARK    4  A    between atoms: C_15  and  C_21
REMARK                            x       y       z     vdW  Elec       q    Type
REMARK                         _______ _______ _______ _____ _____    ______ ____
ROOT
ATOM      1  O   UNL     1      36.722 -22.904 -15.974  0.00  0.00    -0.269 OA
ATOM      2  N   UNL     1      34.473 -22.673 -16.637  0.00  0.00    -0.233 N 
ATOM      3  C   UNL     1      35.108 -23.737 -14.481  0.00  0.00    +0.055 C 
ATOM      4  C   UNL     1      32.793 -23.689 -15.240  0.00  0.00    +0.033 C 
ATOM      5  C   UNL     1      35.518 -23.047 -15.758  0.00  0.00    +0.257 C 
ATOM      6  C   UNL     1      33.815 -24.031 -14.278  0.00  0.00    +0.007 C 
ATOM      7  C   UNL     1      33.154 -23.025 -16.350  0.00  0.00    +0.074 C 
ENDROOT
BRANCH   4   9
ATOM      8  N   UNL     1      31.100 -25.078 -14.265  0.00  0.00    -0.244 NA
ATOM      9  C   UNL     1      31.364 -23.996 -15.030  0.00  0.00    +0.083 C 
ATOM     10  C   UNL     1      30.393 -23.195 -15.606  0.00  0.00    +0.019 C 
ATOM     11  C   UNL     1      29.061 -23.525 -15.380  0.00  0.00    +0.003 C 
ATOM     12  C   UNL     1      29.794 -25.368 -14.068  0.00  0.00    +0.099 C 
ATOM     13  C   UNL     1      28.747 -24.630 -14.598  0.00  0.00    +0.021 C 
ENDBRANCH   4   9
BRANCH   3  14
ATOM     14  C   UNL     1      36.107 -24.089 -13.456  0.00  0.00    +0.014 C 
ATOM     15  C   UNL     1      36.835 -25.277 -13.511  0.00  0.00    +0.069 C 
ATOM     16  C   UNL     1      36.313 -23.193 -12.406  0.00  0.00    +0.001 C 
ATOM     17  C   UNL     1      37.769 -25.571 -12.518  0.00  0.00    +0.010 C 
ATOM     18  C   UNL     1      37.248 -23.486 -11.413  0.00  0.00    +0.000 C 
ATOM     19  C   UNL     1      37.977 -24.674 -11.469  0.00  0.00    +0.001 C 
BRANCH  15  21
ATOM     20  N   UNL     1      36.500 -26.986 -15.430  0.00  0.00    -0.191 NA
ATOM     21  C   UNL     1      36.649 -26.221 -14.573  0.00  0.00    +0.100 C 
ENDBRANCH  15  21
ENDBRANCH   3  14
BRANCH   2  22
ATOM     22  C   UNL     1      34.786 -21.946 -17.854  0.00  0.00    +0.058 C 
ATOM     23  C   UNL     1      33.759 -21.532 -18.692  0.00  0.00    +0.015 C 
ATOM     24  C   UNL     1      36.113 -21.671 -18.167  0.00  0.00    +0.015 C 
ATOM     25  C   UNL     1      34.061 -20.833 -19.861  0.00  0.00    +0.001 C 
ATOM     26  C   UNL     1      36.415 -20.973 -19.335  0.00  0.00    +0.001 C 
ATOM     27  C   UNL     1      35.389 -20.553 -20.182  0.00  0.00    +0.000 C 
ENDBRANCH   2  22
TORSDOF 4
ENDMDL
MODEL 2
REMARK VINA RESULT:      -9.7      1.632      2.183
REMARK  Name = 9924495
REMARK  4 active torsions:
REMARK  status: ('A' for Active; 'I' for Inactive)
REMARK    1  A    between atoms: N_2  and  C_22
REMARK    2  A    between atoms: C_3  and  C_14
REMARK    3  A    between atoms: C_4  and  C_9
REMARK    4  A    between atoms: C_15  and  C_21
REMARK                            x       y       z     vdW  Elec       q    Type
REMARK                         _______ _______ _______ _____ _____    ______ ____
ROOT
ATOM      1  O   UNL     1      36.137 -22.458 -17.057  0.00  0.00    -0.269 OA
ATOM      2  N   UNL     1      33.876 -22.087 -17.610  0.00  0.00    -0.233 N 
ATOM      3  C   UNL     1      34.547 -23.309 -15.550  0.00  0.00    +0.055 C 
ATOM      4  C   UNL     1      32.207 -23.113 -16.205  0.00  0.00    +0.033 C 
ATOM      5  C   UNL     1      34.937 -22.561 -16.799  0.00  0.00    +0.257 C 
ATOM      6  C   UNL     1      33.250 -23.557 -15.310  0.00  0.00    +0.007 C 
ATOM      7  C   UNL     1      32.555 -22.399 -17.289  0.00  0.00    +0.074 C 
ENDROOT
BRANCH   4   9
ATOM      8  N   UNL     1      29.910 -22.530 -16.562  0.00  0.00    -0.244 NA
ATOM      9  C   UNL     1      30.776 -23.370 -15.954  0.00  0.00    +0.083 C 
ATOM     10  C   UNL     1      30.396 -24.419 -15.134  0.00  0.00    +0.019 C 
ATOM     11  C   UNL     1      29.036 -24.621 -14.925  0.00  0.00    +0.003 C 
ATOM     12  C   UNL     1      28.596 -22.757 -16.335  0.00  0.00    +0.099 C 
ATOM     13  C   UNL     1      28.113 -23.779 -15.533  0.00  0.00    +0.021 C 
ENDBRANCH   4   9
BRANCH   3  14
ATOM     14  C   UNL     1      35.567 -23.766 -14.590  0.00  0.00    +0.014 C 
ATOM     15  C   UNL     1      35.241 -24.140 -13.287  0.00  0.00    +0.069 C 
ATOM     16  C   UNL     1      36.894 -23.819 -15.019  0.00  0.00    +0.001 C 
ATOM     17  C   UNL     1      36.240 -24.566 -12.412  0.00  0.00    +0.010 C 
ATOM     18  C   UNL     1      37.893 -24.246 -14.145  0.00  0.00    +0.000 C 
ATOM     19  C   UNL     1      37.566 -24.620 -12.841  0.00  0.00    +0.001 C 
BRANCH  15  21
ATOM     20  N   UNL     1      32.798 -24.066 -12.427  0.00  0.00    -0.191 NA
ATOM     21  C   UNL     1      33.890 -24.098 -12.811  0.00  0.00    +0.100 C 
ENDBRANCH  15  21
ENDBRANCH   3  14
BRANCH   2  22
ATOM     22  C   UNL     1      34.174 -21.303 -18.793  0.00  0.00    +0.058 C 
ATOM     23  C   UNL     1      33.137 -20.739 -19.525  0.00  0.00    +0.015 C 
ATOM     24  C   UNL     1      35.497 -21.121 -19.181  0.00  0.00    +0.015 C 
ATOM     25  C   UNL     1      33.425 -19.984 -20.662  0.00  0.00    +0.001 C 
ATOM     26  C   UNL     1      35.785 -20.366 -20.318  0.00  0.00    +0.001 C 
ATOM     27  C   UNL     1      34.748 -19.798 -21.059  0.00  0.00    +0.000 C 
ENDBRANCH   2  22
TORSDOF 4
ENDMDL
MODEL 3
REMARK VINA RESULT:      -9.4      1.706      6.326
REMARK  Name = 9924495
REMARK  4 active torsions:
REMARK  status: ('A' for Active; 'I' for Inactive)
REMARK    1  A    between atoms: N_2  and  C_22
REMARK    2  A    between atoms: C_3  and  C_14
REMARK    3  A    between atoms: C_4  and  C_9
REMARK    4  A    between atoms: C_15  and  C_21
REMARK                            x       y       z     vdW  Elec       q    Type
REMARK                         _______ _______ _______ _____ _____    ______ ____
ROOT
ATOM      1  O   UNL     1      32.155 -22.638 -17.498  0.00  0.00    -0.269 OA
ATOM      2  N   UNL     1      32.307 -23.567 -15.337  0.00  0.00    -0.233 N 
ATOM      3  C   UNL     1      34.307 -22.729 -16.556  0.00  0.00    +0.055 C 
ATOM      4  C   UNL     1      34.512 -23.868 -14.411  0.00  0.00    +0.033 C 
ATOM      5  C   UNL     1      32.817 -22.952 -16.507  0.00  0.00    +0.257 C 
ATOM      6  C   UNL     1      35.073 -23.183 -15.553  0.00  0.00    +0.007 C 
ATOM      7  C   UNL     1      33.179 -24.016 -14.345  0.00  0.00    +0.074 C 
ENDROOT
BRANCH   4   9
ATOM      8  N   UNL     1      34.848 -24.149 -12.054  0.00  0.00    -0.244 NA
ATOM      9  C   UNL     1      35.338 -24.367 -13.294  0.00  0.00    +0.083 C 
ATOM     10  C   UNL     1      36.536 -25.011 -13.555  0.00  0.00    +0.019 C 
ATOM     11  C   UNL     1      37.280 -25.463 -12.470  0.00  0.00    +0.003 C 
ATOM     12  C   UNL     1      35.599 -24.601 -11.025  0.00  0.00    +0.099 C 
ATOM     13  C   UNL     1      36.810 -25.258 -11.179  0.00  0.00    +0.021 C 
ENDBRANCH   4   9
BRANCH   3  14
ATOM     14  C   UNL     1      34.931 -22.017 -17.686  0.00  0.00    +0.014 C 
ATOM     15  C   UNL     1      36.280 -21.666 -17.684  0.00  0.00    +0.069 C 
ATOM     16  C   UNL     1      34.128 -21.694 -18.781  0.00  0.00    +0.001 C 
ATOM     17  C   UNL     1      36.828 -20.992 -18.774  0.00  0.00    +0.010 C 
ATOM     18  C   UNL     1      34.676 -21.020 -19.873  0.00  0.00    +0.000 C 
ATOM     19  C   UNL     1      36.026 -20.670 -19.870  0.00  0.00    +0.001 C 
BRANCH  15  21
ATOM     20  N   UNL     1      37.827 -22.235 -15.684  0.00  0.00    -0.191 NA
ATOM     21  C   UNL     1      37.135 -21.981 -16.577  0.00  0.00    +0.100 C 
ENDBRANCH  15  21
ENDBRANCH   3  14
BRANCH   2  22
ATOM     22  C   UNL     1      30.876 -23.754 -15.192  0.00  0.00    +0.058 C 
ATOM     23  C   UNL     1      30.390 -24.917 -14.607  0.00  0.00    +0.015 C 
ATOM     24  C   UNL     1      30.005 -22.767 -15.639  0.00  0.00    +0.015 C 
ATOM     25  C   UNL     1      29.014 -25.096 -14.468  0.00  0.00    +0.001 C 
ATOM     26  C   UNL     1      28.629 -22.946 -15.499  0.00  0.00    +0.001 C 
ATOM     27  C   UNL     1      28.133 -24.110 -14.914  0.00  0.00    +0.000 C 
ENDBRANCH   2  22
TORSDOF 4
ENDMDL
