MODEL 1
REMARK VINA RESULT:     -11.5      0.000      0.000
REMARK  Name = 100472
REMARK  3 active torsions:
REMARK  status: ('A' for Active; 'I' for Inactive)
REMARK    1  A    between atoms: C_1  and  C_13
REMARK    2  A    between atoms: C_2  and  C_7
REMARK    3  A    between atoms: C_13  and  C_16
REMARK                            x       y       z     vdW  Elec       q    Type
REMARK                         _______ _______ _______ _____ _____    ______ ____
ROOT
ATOM      1  C   UNL     1      33.999 -22.484 -17.598  0.00  0.00    -0.013 C 
ATOM      2  C   UNL     1      34.779 -20.708 -19.604  0.00  0.00    -0.000 C 
ATOM      3  C   UNL     1      35.352 -22.211 -17.802  0.00  0.00    -0.004 C 
ATOM      4  C   UNL     1      33.036 -21.868 -18.398  0.00  0.00    -0.004 C 
ATOM      5  C   UNL     1      35.742 -21.324 -18.804  0.00  0.00    -0.000 C 
ATOM      6  C   UNL     1      33.426 -20.981 -19.400  0.00  0.00    -0.000 C 
ENDROOT
BRANCH   2   7
ATOM      7  C   UNL     1      35.183 -19.788 -20.645  0.00  0.00    -0.000 C 
ATOM      8  C   UNL     1      34.326 -19.521 -21.712  0.00  0.00    -0.000 C 
ATOM      9  C   UNL     1      36.430 -19.167 -20.580  0.00  0.00    -0.000 C 
ATOM     10  C   UNL     1      34.715 -18.633 -22.715  0.00  0.00    +0.000 C 
ATOM     11  C   UNL     1      36.820 -18.279 -21.583  0.00  0.00    +0.000 C 
ATOM     12  C   UNL     1      35.961 -18.012 -22.650  0.00  0.00    +0.000 C 
ENDBRANCH   2   7
BRANCH   1  13
ATOM     13  C   UNL     1      33.582 -23.433 -16.526  0.00  0.00    +0.112 C 
BRANCH  13  16
ATOM     14  O   UNL     1      34.630 -22.486 -14.572  0.00  0.00    -0.274 OA
ATOM     15  N   UNL     1      35.172 -24.678 -15.217  0.00  0.00    -0.269 N 
ATOM     16  C   UNL     1      34.516 -23.453 -15.319  0.00  0.00    +0.232 C 
ATOM     17  H   UNL     1      34.958 -25.345 -15.910  0.00  0.00    +0.156 HD
ATOM     18  N   UNL     1      36.627 -26.314 -14.324  0.00  0.00    -0.229 NA
ATOM     19  C   UNL     1      36.110 -25.076 -14.235  0.00  0.00    +0.134 C 
ATOM     20  C   UNL     1      36.418 -24.153 -13.258  0.00  0.00    +0.034 C 
ATOM     21  C   UNL     1      37.338 -24.535 -12.288  0.00  0.00    +0.004 C 
ATOM     22  C   UNL     1      37.902 -25.805 -12.334  0.00  0.00    +0.021 C 
ATOM     23  C   UNL     1      37.517 -26.649 -13.363  0.00  0.00    +0.100 C 
ENDBRANCH  13  16
ENDBRANCH   1  13
TORSDOF 3
ENDMDL
MODEL 2
REMARK VINA RESULT:     -11.4      3.059      3.773
REMARK  Name = 100472
REMARK  3 active torsions:
REMARK  status: ('A' for Active; 'I' for Inactive)
REMARK    1  A    between atoms: C_1  and  C_13
REMARK    2  A    between atoms: C_2  and  C_7
REMARK    3  A    between atoms: C_13  and  C_16
REMARK                            x       y       z     vdW  Elec       q    Type
REMARK                         _______ _______ _______ _____ _____    ______ ____
ROOT
ATOM      1  C   UNL     1      34.741 -21.371 -19.049  0.00  0.00    -0.013 C 
ATOM      2  C   UNL     1      34.790 -19.375 -20.998  0.00  0.00    -0.000 C 
ATOM      3  C   UNL     1      35.960 -20.851 -19.485  0.00  0.00    -0.004 C 
ATOM      4  C   UNL     1      33.547 -20.893 -19.588  0.00  0.00    -0.004 C 
ATOM      5  C   UNL     1      35.985 -19.853 -20.459  0.00  0.00    -0.000 C 
ATOM      6  C   UNL     1      33.571 -19.895 -20.562  0.00  0.00    -0.000 C 
ENDROOT
BRANCH   2   7
ATOM      7  C   UNL     1      34.815 -18.340 -22.009  0.00  0.00    -0.000 C 
ATOM      8  C   UNL     1      34.281 -18.587 -23.273  0.00  0.00    -0.000 C 
ATOM      9  C   UNL     1      35.374 -17.096 -21.718  0.00  0.00    -0.000 C 
ATOM     10  C   UNL     1      34.305 -17.589 -24.248  0.00  0.00    +0.000 C 
ATOM     11  C   UNL     1      35.397 -16.097 -22.692  0.00  0.00    +0.000 C 
ATOM     12  C   UNL     1      34.862 -16.345 -23.957  0.00  0.00    +0.000 C 
ENDBRANCH   2   7
BRANCH   1  13
ATOM     13  C   UNL     1      34.715 -22.438 -18.007  0.00  0.00    +0.112 C 
BRANCH  13  16
ATOM     14  O   UNL     1      32.312 -22.285 -17.905  0.00  0.00    -0.274 OA
ATOM     15  N   UNL     1      33.481 -23.225 -16.098  0.00  0.00    -0.269 N 
ATOM     16  C   UNL     1      33.351 -22.630 -17.350  0.00  0.00    +0.232 C 
ATOM     17  H   UNL     1      34.399 -23.435 -15.809  0.00  0.00    +0.156 HD
ATOM     18  N   UNL     1      32.795 -24.135 -14.026  0.00  0.00    -0.229 NA
ATOM     19  C   UNL     1      32.448 -23.562 -15.192  0.00  0.00    +0.134 C 
ATOM     20  C   UNL     1      31.157 -23.276 -15.583  0.00  0.00    +0.034 C 
ATOM     21  C   UNL     1      30.135 -23.604 -14.700  0.00  0.00    +0.004 C 
ATOM     22  C   UNL     1      30.441 -24.198 -13.481  0.00  0.00    +0.021 C 
ATOM     23  C   UNL     1      31.774 -24.441 -13.194  0.00  0.00    +0.100 C 
ENDBRANCH  13  16
ENDBRANCH   1  13
TORSDOF 3
ENDMDL
MODEL 3
REMARK VINA RESULT:     -11.4      4.900     10.059
REMARK  Name = 100472
REMARK  3 active torsions:
REMARK  status: ('A' for Active; 'I' for Inactive)
REMARK    1  A    between atoms: C_1  and  C_13
REMARK    2  A    between atoms: C_2  and  C_7
REMARK    3  A    between atoms: C_13  and  C_16
REMARK                            x       y       z     vdW  Elec       q    Type
REMARK                         _______ _______ _______ _____ _____    ______ ____
ROOT
ATOM      1  C   UNL     1      35.905 -19.275 -21.135  0.00  0.00    -0.013 C 
ATOM      2  C   UNL     1      35.085 -20.973 -19.079  0.00  0.00    -0.000 C 
ATOM      3  C   UNL     1      36.836 -19.754 -20.212  0.00  0.00    -0.004 C 
ATOM      4  C   UNL     1      34.565 -19.646 -21.030  0.00  0.00    -0.004 C 
ATOM      5  C   UNL     1      36.425 -20.603 -19.185  0.00  0.00    -0.000 C 
ATOM      6  C   UNL     1      34.154 -20.495 -20.002  0.00  0.00    -0.000 C 
ENDROOT
BRANCH   2   7
ATOM      7  C   UNL     1      34.659 -21.853 -18.012  0.00  0.00    -0.000 C 
ATOM      8  C   UNL     1      33.362 -22.365 -18.007  0.00  0.00    -0.000 C 
ATOM      9  C   UNL     1      35.546 -22.189 -16.990  0.00  0.00    -0.000 C 
ATOM     10  C   UNL     1      32.951 -23.214 -16.979  0.00  0.00    +0.000 C 
ATOM     11  C   UNL     1      35.136 -23.038 -15.962  0.00  0.00    +0.000 C 
ATOM     12  C   UNL     1      33.838 -23.551 -15.957  0.00  0.00    +0.000 C 
ENDBRANCH   2   7
BRANCH   1  13
ATOM     13  C   UNL     1      36.344 -18.368 -22.235  0.00  0.00    +0.112 C 
BRANCH  13  16
ATOM     14  O   UNL     1      35.268 -16.416 -21.317  0.00  0.00    -0.274 OA
ATOM     15  N   UNL     1      35.226 -16.766 -23.639  0.00  0.00    -0.269 N 
ATOM     16  C   UNL     1      35.550 -17.067 -22.318  0.00  0.00    +0.232 C 
ATOM     17  H   UNL     1      35.536 -17.406 -24.320  0.00  0.00    +0.156 HD
ATOM     18  N   UNL     1      34.297 -15.550 -25.442  0.00  0.00    -0.229 NA
ATOM     19  C   UNL     1      34.501 -15.649 -24.116  0.00  0.00    +0.134 C 
ATOM     20  C   UNL     1      34.061 -14.743 -23.175  0.00  0.00    +0.034 C 
ATOM     21  C   UNL     1      33.349 -13.641 -23.634  0.00  0.00    +0.004 C 
ATOM     22  C   UNL     1      33.111 -13.491 -24.995  0.00  0.00    +0.021 C 
ATOM     23  C   UNL     1      33.603 -14.464 -25.850  0.00  0.00    +0.100 C 
ENDBRANCH  13  16
ENDBRANCH   1  13
TORSDOF 3
ENDMDL
MODEL 4
REMARK VINA RESULT:     -11.3      5.953     10.390
REMARK  Name = 100472
REMARK  3 active torsions:
REMARK  status: ('A' for Active; 'I' for Inactive)
REMARK    1  A    between atoms: C_1  and  C_13
REMARK    2  A    between atoms: C_2  and  C_7
REMARK    3  A    between atoms: C_13  and  C_16
REMARK                            x       y       z     vdW  Elec       q    Type
REMARK                         _______ _______ _______ _____ _____    ______ ____
ROOT
ATOM      1  C   UNL     1      34.970 -17.103 -23.171  0.00  0.00    -0.013 C 
ATOM      2  C   UNL     1      34.832 -19.109 -21.236  0.00  0.00    -0.000 C 
ATOM      3  C   UNL     1      34.256 -18.273 -23.429  0.00  0.00    -0.004 C 
ATOM      4  C   UNL     1      35.616 -16.936 -21.945  0.00  0.00    -0.004 C 
ATOM      5  C   UNL     1      34.187 -19.276 -22.462  0.00  0.00    -0.000 C 
ATOM      6  C   UNL     1      35.547 -17.939 -20.978  0.00  0.00    -0.000 C 
ENDROOT
BRANCH   2   7
ATOM      7  C   UNL     1      34.761 -20.149 -20.233  0.00  0.00    -0.000 C 
ATOM      8  C   UNL     1      35.933 -20.689 -19.703  0.00  0.00    -0.000 C 
ATOM      9  C   UNL     1      33.521 -20.612 -19.796  0.00  0.00    -0.000 C 
ATOM     10  C   UNL     1      35.865 -21.691 -18.736  0.00  0.00    +0.000 C 
ATOM     11  C   UNL     1      33.451 -21.615 -18.828  0.00  0.00    +0.000 C 
ATOM     12  C   UNL     1      34.624 -22.153 -18.298  0.00  0.00    +0.000 C 
ENDBRANCH   2   7
BRANCH   1  13
ATOM     13  C   UNL     1      35.044 -16.031 -24.205  0.00  0.00    +0.112 C 
BRANCH  13  16
ATOM     14  O   UNL     1      33.899 -13.973 -24.718  0.00  0.00    -0.274 OA
ATOM     15  N   UNL     1      33.974 -14.721 -22.494  0.00  0.00    -0.269 N 
ATOM     16  C   UNL     1      34.240 -14.781 -23.859  0.00  0.00    +0.232 C 
ATOM     17  H   UNL     1      34.327 -15.462 -21.949  0.00  0.00    +0.156 HD
ATOM     18  N   UNL     1      33.116 -13.857 -20.466  0.00  0.00    -0.229 NA
ATOM     19  C   UNL     1      33.257 -13.719 -21.797  0.00  0.00    +0.134 C 
ATOM     20  C   UNL     1      32.756 -12.677 -22.546  0.00  0.00    +0.034 C 
ATOM     21  C   UNL     1      32.049 -11.688 -21.871  0.00  0.00    +0.004 C 
ATOM     22  C   UNL     1      31.875 -11.783 -20.495  0.00  0.00    +0.021 C 
ATOM     23  C   UNL     1      32.422 -12.877 -19.845  0.00  0.00    +0.100 C 
ENDBRANCH  13  16
ENDBRANCH   1  13
TORSDOF 3
ENDMDL
MODEL 5
REMARK VINA RESULT:     -11.2      6.818     11.615
REMARK  Name = 100472
REMARK  3 active torsions:
REMARK  status: ('A' for Active; 'I' for Inactive)
REMARK    1  A    between atoms: C_1  and  C_13
REMARK    2  A    between atoms: C_2  and  C_7
REMARK    3  A    between atoms: C_13  and  C_16
REMARK                            x       y       z     vdW  Elec       q    Type
REMARK                         _______ _______ _______ _____ _____    ______ ____
ROOT
ATOM      1  C   UNL     1      34.962 -16.308 -22.759  0.00  0.00    -0.013 C 
ATOM      2  C   UNL     1      34.965 -18.591 -21.155  0.00  0.00    -0.000 C 
ATOM      3  C   UNL     1      34.619 -17.546 -23.305  0.00  0.00    -0.004 C 
ATOM      4  C   UNL     1      35.307 -16.213 -21.411  0.00  0.00    -0.004 C 
ATOM      5  C   UNL     1      34.620 -18.686 -22.503  0.00  0.00    -0.000 C 
ATOM      6  C   UNL     1      35.308 -17.354 -20.609  0.00  0.00    -0.000 C 
ENDROOT
BRANCH   2   7
ATOM      7  C   UNL     1      34.967 -19.774 -20.322  0.00  0.00    -0.000 C 
ATOM      8  C   UNL     1      36.173 -20.302 -19.862  0.00  0.00    -0.000 C 
ATOM      9  C   UNL     1      33.761 -20.387 -19.980  0.00  0.00    -0.000 C 
ATOM     10  C   UNL     1      36.174 -21.443 -19.059  0.00  0.00    +0.000 C 
ATOM     11  C   UNL     1      33.762 -21.528 -19.177  0.00  0.00    +0.000 C 
ATOM     12  C   UNL     1      34.970 -22.055 -18.717  0.00  0.00    +0.000 C 
ENDBRANCH   2   7
BRANCH   1  13
ATOM     13  C   UNL     1      34.961 -15.088 -23.617  0.00  0.00    +0.112 C 
BRANCH  13  16
ATOM     14  O   UNL     1      33.130 -14.167 -22.348  0.00  0.00    -0.274 OA
ATOM     15  N   UNL     1      34.549 -12.720 -23.534  0.00  0.00    -0.269 N 
ATOM     16  C   UNL     1      34.091 -13.954 -23.080  0.00  0.00    +0.232 C 
ATOM     17  H   UNL     1      35.340 -12.737 -24.120  0.00  0.00    +0.156 HD
ATOM     18  N   UNL     1      34.609 -10.370 -23.797  0.00  0.00    -0.229 NA
ATOM     19  C   UNL     1      34.008 -11.442 -23.252  0.00  0.00    +0.134 C 
ATOM     20  C   UNL     1      32.901 -11.402 -22.431  0.00  0.00    +0.034 C 
ATOM     21  C   UNL     1      32.363 -10.152 -22.147  0.00  0.00    +0.004 C 
ATOM     22  C   UNL     1      32.947  -9.011 -22.686  0.00  0.00    +0.021 C 
ATOM     23  C   UNL     1      34.058  -9.172 -23.497  0.00  0.00    +0.100 C 
ENDBRANCH  13  16
ENDBRANCH   1  13
TORSDOF 3
ENDMDL
MODEL 6
REMARK VINA RESULT:     -11.1      1.749      2.131
REMARK  Name = 100472
REMARK  3 active torsions:
REMARK  status: ('A' for Active; 'I' for Inactive)
REMARK    1  A    between atoms: C_1  and  C_13
REMARK    2  A    between atoms: C_2  and  C_7
REMARK    3  A    between atoms: C_13  and  C_16
REMARK                            x       y       z     vdW  Elec       q    Type
REMARK                         _______ _______ _______ _____ _____    ______ ____
ROOT
ATOM      1  C   UNL     1      34.092 -21.863 -18.561  0.00  0.00    -0.013 C 
ATOM      2  C   UNL     1      34.478 -19.890 -20.496  0.00  0.00    -0.000 C 
ATOM      3  C   UNL     1      35.379 -21.571 -19.013  0.00  0.00    -0.004 C 
ATOM      4  C   UNL     1      32.998 -21.167 -19.077  0.00  0.00    -0.004 C 
ATOM      5  C   UNL     1      35.572 -20.585 -19.980  0.00  0.00    -0.000 C 
ATOM      6  C   UNL     1      33.191 -20.181 -20.044  0.00  0.00    -0.000 C 
ENDROOT
BRANCH   2   7
ATOM      7  C   UNL     1      34.678 -18.867 -21.500  0.00  0.00    -0.000 C 
ATOM      8  C   UNL     1      35.289 -17.662 -21.155  0.00  0.00    -0.000 C 
ATOM      9  C   UNL     1      34.260 -19.087 -22.811  0.00  0.00    -0.000 C 
ATOM     10  C   UNL     1      35.483 -16.676 -22.123  0.00  0.00    +0.000 C 
ATOM     11  C   UNL     1      34.453 -18.102 -23.780  0.00  0.00    +0.000 C 
ATOM     12  C   UNL     1      35.065 -16.897 -23.435  0.00  0.00    +0.000 C 
ENDBRANCH   2   7
BRANCH   1  13
ATOM     13  C   UNL     1      33.885 -22.917 -17.526  0.00  0.00    +0.112 C 
BRANCH  13  16
ATOM     14  O   UNL     1      36.077 -22.532 -16.598  0.00  0.00    -0.274 OA
ATOM     15  N   UNL     1      34.363 -23.330 -15.205  0.00  0.00    -0.269 N 
ATOM     16  C   UNL     1      34.921 -22.896 -16.405  0.00  0.00    +0.232 C 
ATOM     17  H   UNL     1      33.412 -23.585 -15.234  0.00  0.00    +0.156 HD
ATOM     18  N   UNL     1      34.274 -23.891 -12.909  0.00  0.00    -0.229 NA
ATOM     19  C   UNL     1      35.003 -23.447 -13.948  0.00  0.00    +0.134 C 
ATOM     20  C   UNL     1      36.334 -23.091 -13.892  0.00  0.00    +0.034 C 
ATOM     21  C   UNL     1      36.972 -23.202 -12.662  0.00  0.00    +0.004 C 
ATOM     22  C   UNL     1      36.263 -23.656 -11.555  0.00  0.00    +0.021 C 
ATOM     23  C   UNL     1      34.928 -23.984 -11.730  0.00  0.00    +0.100 C 
ENDBRANCH  13  16
ENDBRANCH   1  13
TORSDOF 3
ENDMDL
MODEL 7
REMARK VINA RESULT:     -11.1      4.989      7.813
REMARK  Name = 100472
REMARK  3 active torsions:
REMARK  status: ('A' for Active; 'I' for Inactive)
REMARK    1  A    between atoms: C_1  and  C_13
REMARK    2  A    between atoms: C_2  and  C_7
REMARK    3  A    between atoms: C_13  and  C_16
REMARK                            x       y       z     vdW  Elec       q    Type
REMARK                         _______ _______ _______ _____ _____    ______ ____
ROOT
ATOM      1  C   UNL     1      35.130 -16.656 -22.732  0.00  0.00    -0.013 C 
ATOM      2  C   UNL     1      34.133 -14.050 -22.666  0.00  0.00    -0.000 C 
ATOM      3  C   UNL     1      34.632 -16.069 -23.896  0.00  0.00    -0.004 C 
ATOM      4  C   UNL     1      35.128 -15.939 -21.535  0.00  0.00    -0.004 C 
ATOM      5  C   UNL     1      34.134 -14.767 -23.863  0.00  0.00    -0.000 C 
ATOM      6  C   UNL     1      34.630 -14.637 -21.502  0.00  0.00    -0.000 C 
ENDROOT
BRANCH   2   7
ATOM      7  C   UNL     1      33.616 -12.699 -22.631  0.00  0.00    -0.000 C 
ATOM      8  C   UNL     1      32.668 -12.340 -21.674  0.00  0.00    -0.000 C 
ATOM      9  C   UNL     1      34.065 -11.757 -23.556  0.00  0.00    -0.000 C 
ATOM     10  C   UNL     1      32.169 -11.038 -21.640  0.00  0.00    +0.000 C 
ATOM     11  C   UNL     1      33.568 -10.454 -23.522  0.00  0.00    +0.000 C 
ATOM     12  C   UNL     1      32.620 -10.095 -22.564  0.00  0.00    +0.000 C 
ENDBRANCH   2   7
BRANCH   1  13
ATOM     13  C   UNL     1      35.663 -18.048 -22.767  0.00  0.00    +0.112 C 
BRANCH  13  16
ATOM     14  O   UNL     1      33.730 -19.293 -22.044  0.00  0.00    -0.274 OA
ATOM     15  N   UNL     1      35.748 -19.517 -20.864  0.00  0.00    -0.269 N 
ATOM     16  C   UNL     1      34.913 -19.022 -21.862  0.00  0.00    +0.232 C 
ATOM     17  H   UNL     1      36.676 -19.188 -20.870  0.00  0.00    +0.156 HD
ATOM     18  N   UNL     1      36.384 -20.787 -18.973  0.00  0.00    -0.229 NA
ATOM     19  C   UNL     1      35.418 -20.439 -19.842  0.00  0.00    +0.134 C 
ATOM     20  C   UNL     1      34.123 -20.911 -19.822  0.00  0.00    +0.034 C 
ATOM     21  C   UNL     1      33.790 -21.817 -18.823  0.00  0.00    +0.004 C 
ATOM     22  C   UNL     1      34.752 -22.210 -17.898  0.00  0.00    +0.021 C 
ATOM     23  C   UNL     1      36.022 -21.671 -18.016  0.00  0.00    +0.100 C 
ENDBRANCH  13  16
ENDBRANCH   1  13
TORSDOF 3
ENDMDL
MODEL 8
REMARK VINA RESULT:     -11.0      4.313      9.427
REMARK  Name = 100472
REMARK  3 active torsions:
REMARK  status: ('A' for Active; 'I' for Inactive)
REMARK    1  A    between atoms: C_1  and  C_13
REMARK    2  A    between atoms: C_2  and  C_7
REMARK    3  A    between atoms: C_13  and  C_16
REMARK                            x       y       z     vdW  Elec       q    Type
REMARK                         _______ _______ _______ _____ _____    ______ ____
ROOT
ATOM      1  C   UNL     1      35.057 -20.401 -20.257  0.00  0.00    -0.013 C 
ATOM      2  C   UNL     1      34.097 -21.856 -18.077  0.00  0.00    -0.000 C 
ATOM      3  C   UNL     1      35.950 -21.045 -19.400  0.00  0.00    -0.004 C 
ATOM      4  C   UNL     1      33.684 -20.485 -20.024  0.00  0.00    -0.004 C 
ATOM      5  C   UNL     1      35.470 -21.772 -18.311  0.00  0.00    -0.000 C 
ATOM      6  C   UNL     1      33.204 -21.212 -18.935  0.00  0.00    -0.000 C 
ENDROOT
BRANCH   2   7
ATOM      7  C   UNL     1      33.599 -22.610 -16.947  0.00  0.00    -0.000 C 
ATOM      8  C   UNL     1      32.226 -22.769 -16.765  0.00  0.00    -0.000 C 
ATOM      9  C   UNL     1      34.494 -23.177 -16.040  0.00  0.00    -0.000 C 
ATOM     10  C   UNL     1      31.746 -23.496 -15.676  0.00  0.00    +0.000 C 
ATOM     11  C   UNL     1      34.015 -23.904 -14.950  0.00  0.00    +0.000 C 
ATOM     12  C   UNL     1      32.640 -24.064 -14.769  0.00  0.00    +0.000 C 
ENDBRANCH   2   7
BRANCH   1  13
ATOM     13  C   UNL     1      35.570 -19.624 -21.422  0.00  0.00    +0.112 C 
BRANCH  13  16
ATOM     14  O   UNL     1      35.684 -17.532 -20.231  0.00  0.00    -0.274 OA
ATOM     15  N   UNL     1      34.938 -17.547 -22.457  0.00  0.00    -0.269 N 
ATOM     16  C   UNL     1      35.411 -18.113 -21.276  0.00  0.00    +0.232 C 
ATOM     17  H   UNL     1      34.772 -18.169 -23.203  0.00  0.00    +0.156 HD
ATOM     18  N   UNL     1      34.212 -15.846 -23.931  0.00  0.00    -0.229 NA
ATOM     19  C   UNL     1      34.668 -16.181 -22.711  0.00  0.00    +0.134 C 
ATOM     20  C   UNL     1      34.897 -15.298 -21.678  0.00  0.00    +0.034 C 
ATOM     21  C   UNL     1      34.635 -13.954 -21.918  0.00  0.00    +0.004 C 
ATOM     22  C   UNL     1      34.163 -13.554 -23.163  0.00  0.00    +0.021 C 
ATOM     23  C   UNL     1      33.971 -14.530 -24.127  0.00  0.00    +0.100 C 
ENDBRANCH  13  16
ENDBRANCH   1  13
TORSDOF 3
ENDMDL
MODEL 9
REMARK VINA RESULT:     -11.0      3.117      5.086
REMARK  Name = 100472
REMARK  3 active torsions:
REMARK  status: ('A' for Active; 'I' for Inactive)
REMARK    1  A    between atoms: C_1  and  C_13
REMARK    2  A    between atoms: C_2  and  C_7
REMARK    3  A    between atoms: C_13  and  C_16
REMARK                            x       y       z     vdW  Elec       q    Type
REMARK                         _______ _______ _______ _____ _____    ______ ____
ROOT
ATOM      1  C   UNL     1      34.056 -22.678 -17.287  0.00  0.00    -0.013 C 
ATOM      2  C   UNL     1      34.867 -20.917 -19.293  0.00  0.00    -0.000 C 
ATOM      3  C   UNL     1      35.402 -22.328 -17.406  0.00  0.00    -0.004 C 
ATOM      4  C   UNL     1      33.117 -22.148 -18.171  0.00  0.00    -0.004 C 
ATOM      5  C   UNL     1      35.807 -21.447 -18.409  0.00  0.00    -0.000 C 
ATOM      6  C   UNL     1      33.522 -21.267 -19.174  0.00  0.00    -0.000 C 
ENDROOT
BRANCH   2   7
ATOM      7  C   UNL     1      35.288 -20.004 -20.334  0.00  0.00    -0.000 C 
ATOM      8  C   UNL     1      36.563 -19.442 -20.296  0.00  0.00    -0.000 C 
ATOM      9  C   UNL     1      34.416 -19.686 -21.376  0.00  0.00    -0.000 C 
ATOM     10  C   UNL     1      36.968 -18.562 -21.300  0.00  0.00    +0.000 C 
ATOM     11  C   UNL     1      34.821 -18.807 -22.380  0.00  0.00    +0.000 C 
ATOM     12  C   UNL     1      36.098 -18.245 -22.342  0.00  0.00    +0.000 C 
ENDBRANCH   2   7
BRANCH   1  13
ATOM     13  C   UNL     1      33.623 -23.619 -16.214  0.00  0.00    +0.112 C 
BRANCH  13  16
ATOM     14  O   UNL     1      32.399 -22.780 -14.315  0.00  0.00    -0.274 OA
ATOM     15  N   UNL     1      31.240 -23.298 -16.291  0.00  0.00    -0.269 N 
ATOM     16  C   UNL     1      32.362 -23.179 -15.475  0.00  0.00    +0.232 C 
ATOM     17  H   UNL     1      31.398 -23.639 -17.201  0.00  0.00    +0.156 HD
ATOM     18  N   UNL     1      28.960 -23.179 -16.908  0.00  0.00    -0.229 NA
ATOM     19  C   UNL     1      29.899 -22.988 -15.964  0.00  0.00    +0.134 C 
ATOM     20  C   UNL     1      29.662 -22.508 -14.694  0.00  0.00    +0.034 C 
ATOM     21  C   UNL     1      28.348 -22.199 -14.363  0.00  0.00    +0.004 C 
ATOM     22  C   UNL     1      27.339 -22.378 -15.303  0.00  0.00    +0.021 C 
ATOM     23  C   UNL     1      27.695 -22.866 -16.550  0.00  0.00    +0.100 C 
ENDBRANCH  13  16
ENDBRANCH   1  13
TORSDOF 3
ENDMDL
