MODEL 1
REMARK VINA RESULT:     -12.6      0.000      0.000
REMARK  Name = 216239
REMARK  6 active torsions:
REMARK  status: ('A' for Active; 'I' for Inactive)
REMARK    1  A    between atoms: C_1  and  N_9
REMARK    2  A    between atoms: C_2  and  O_24
REMARK    3  A    between atoms: N_8  and  C_14
REMARK    4  A    between atoms: C_15  and  C_23
REMARK    5  A    between atoms: O_24  and  C_26
REMARK    6  A    between atoms: C_28  and  C_33
REMARK                            x       y       z     vdW  Elec       q    Type
REMARK                         _______ _______ _______ _____ _____    ______ ____
ROOT
ATOM      1  C   UNL     1      34.954 -18.587 -22.768  0.00  0.00    +0.052 C 
ATOM      2  C   UNL     1      34.136 -16.795 -24.716  0.00  0.00    +0.145 C 
ATOM      3  C   UNL     1      35.484 -17.308 -22.778  0.00  0.00    +0.018 C 
ATOM      4  C   UNL     1      34.023 -18.990 -23.711  0.00  0.00    +0.018 C 
ATOM      5  C   UNL     1      35.072 -16.406 -23.759  0.00  0.00    +0.039 C 
ATOM      6  C   UNL     1      33.612 -18.088 -24.693  0.00  0.00    +0.039 C 
ENDROOT
BRANCH   1   9
ATOM      7  O   UNL     1      33.485 -19.660 -20.400  0.00  0.00    -0.252 OA
ATOM      8  N   UNL     1      35.426 -20.881 -19.920  0.00  0.00    -0.268 N 
ATOM      9  N   UNL     1      35.372 -19.501 -21.773  0.00  0.00    -0.268 N 
ATOM     10  C   UNL     1      34.637 -19.977 -20.674  0.00  0.00    +0.308 C 
ATOM     11  H   UNL     1      36.337 -21.039 -20.260  0.00  0.00    +0.156 HD
ATOM     12  H   UNL     1      36.289 -19.847 -21.861  0.00  0.00    +0.156 HD
BRANCH   8  14
ATOM     13 CL   UNL     1      33.941 -23.831 -15.019  0.00  0.00    -0.082 Cl
ATOM     14  C   UNL     1      35.086 -21.577 -18.760  0.00  0.00    +0.052 C 
ATOM     15  C   UNL     1      35.690 -22.453 -16.592  0.00  0.00    +0.083 C 
ATOM     16  C   UNL     1      36.031 -21.758 -17.752  0.00  0.00    +0.019 C 
ATOM     17  C   UNL     1      33.797 -22.091 -18.609  0.00  0.00    +0.016 C 
ATOM     18  C   UNL     1      34.401 -22.968 -16.440  0.00  0.00    +0.062 C 
ATOM     19  C   UNL     1      33.456 -22.785 -17.449  0.00  0.00    +0.013 C 
BRANCH  15  23
ATOM     20  F   UNL     1      36.374 -22.094 -14.328  0.00  0.00    -0.166 F 
ATOM     21  F   UNL     1      37.035 -23.929 -15.276  0.00  0.00    -0.166 F 
ATOM     22  F   UNL     1      37.913 -22.028 -15.863  0.00  0.00    -0.166 F 
ATOM     23  C   UNL     1      36.731 -22.624 -15.533  0.00  0.00    +0.419 C 
ENDBRANCH  15  23
ENDBRANCH   8  14
ENDBRANCH   1   9
BRANCH   2  24
ATOM     24  O   UNL     1      33.736 -15.916 -25.674  0.00  0.00    -0.453 OA
BRANCH  24  26
ATOM     25  N   UNL     1      33.386 -11.916 -24.599  0.00  0.00    -0.239 NA
ATOM     26  C   UNL     1      33.619 -14.583 -25.316  0.00  0.00    +0.149 C 
ATOM     27  C   UNL     1      33.272 -14.261 -24.021  0.00  0.00    +0.061 C 
ATOM     28  C   UNL     1      33.169 -12.915 -23.713  0.00  0.00    +0.137 C 
ATOM     29  C   UNL     1      33.853 -13.608 -26.262  0.00  0.00    +0.058 C 
ATOM     30  C   UNL     1      33.723 -12.290 -25.854  0.00  0.00    +0.102 C 
BRANCH  28  33
ATOM     31  O   UNL     1      32.652 -11.291 -22.102  0.00  0.00    -0.268 OA
ATOM     32  N   UNL     1      32.624 -13.505 -21.416  0.00  0.00    -0.298 N 
ATOM     33  C   UNL     1      32.807 -12.496 -22.369  0.00  0.00    +0.264 C 
ATOM     34  C   UNL     1      32.241 -13.250 -20.045  0.00  0.00    +0.111 C 
ATOM     35  H   UNL     1      32.763 -14.440 -21.694  0.00  0.00    +0.150 HD
ENDBRANCH  28  33
ENDBRANCH  24  26
ENDBRANCH   2  24
TORSDOF 6
ENDMDL
MODEL 2
REMARK VINA RESULT:     -12.6      5.431     11.840
REMARK  Name = 216239
REMARK  6 active torsions:
REMARK  status: ('A' for Active; 'I' for Inactive)
REMARK    1  A    between atoms: C_1  and  N_9
REMARK    2  A    between atoms: C_2  and  O_24
REMARK    3  A    between atoms: N_8  and  C_14
REMARK    4  A    between atoms: C_15  and  C_23
REMARK    5  A    between atoms: O_24  and  C_26
REMARK    6  A    between atoms: C_28  and  C_33
REMARK                            x       y       z     vdW  Elec       q    Type
REMARK                         _______ _______ _______ _____ _____    ______ ____
ROOT
ATOM      1  C   UNL     1      34.995 -21.858 -18.258  0.00  0.00    +0.052 C 
ATOM      2  C   UNL     1      34.215 -23.349 -16.057  0.00  0.00    +0.145 C 
ATOM      3  C   UNL     1      33.782 -22.525 -18.287  0.00  0.00    +0.018 C 
ATOM      4  C   UNL     1      35.827 -21.921 -17.153  0.00  0.00    +0.018 C 
ATOM      5  C   UNL     1      33.389 -23.275 -17.178  0.00  0.00    +0.039 C 
ATOM      6  C   UNL     1      35.435 -22.672 -16.045  0.00  0.00    +0.039 C 
ENDROOT
BRANCH   1   9
ATOM      7  O   UNL     1      33.436 -19.943 -19.937  0.00  0.00    -0.252 OA
ATOM      8  N   UNL     1      35.398 -19.650 -21.183  0.00  0.00    -0.268 N 
ATOM      9  N   UNL     1      35.393 -21.098 -19.383  0.00  0.00    -0.268 N 
ATOM     10  C   UNL     1      34.616 -20.206 -20.141  0.00  0.00    +0.308 C 
ATOM     11  H   UNL     1      36.333 -19.955 -21.225  0.00  0.00    +0.156 HD
ATOM     12  H   UNL     1      36.328 -21.206 -19.669  0.00  0.00    +0.156 HD
BRANCH   8  14
ATOM     13 CL   UNL     1      33.793 -15.776 -25.349  0.00  0.00    -0.082 Cl
ATOM     14  C   UNL     1      35.020 -18.728 -22.159  0.00  0.00    +0.052 C 
ATOM     15  C   UNL     1      34.625 -16.444 -22.841  0.00  0.00    +0.083 C 
ATOM     16  C   UNL     1      35.002 -17.365 -21.864  0.00  0.00    +0.019 C 
ATOM     17  C   UNL     1      34.659 -19.170 -23.432  0.00  0.00    +0.016 C 
ATOM     18  C   UNL     1      34.264 -16.886 -24.114  0.00  0.00    +0.062 C 
ATOM     19  C   UNL     1      34.282 -18.249 -24.409  0.00  0.00    +0.013 C 
BRANCH  15  23
ATOM     20  F   UNL     1      35.364 -14.223 -23.332  0.00  0.00    -0.166 F 
ATOM     21  F   UNL     1      33.376 -14.434 -22.490  0.00  0.00    -0.166 F 
ATOM     22  F   UNL     1      35.124 -14.760 -21.238  0.00  0.00    -0.166 F 
ATOM     23  C   UNL     1      34.621 -14.992 -22.485  0.00  0.00    +0.419 C 
ENDBRANCH  15  23
ENDBRANCH   8  14
ENDBRANCH   1   9
BRANCH   2  24
ATOM     24  O   UNL     1      33.833 -24.082 -14.977  0.00  0.00    -0.453 OA
BRANCH  24  26
ATOM     25  N   UNL     1      36.742 -25.041 -12.168  0.00  0.00    -0.239 NA
ATOM     26  C   UNL     1      34.802 -24.403 -14.041  0.00  0.00    +0.149 C 
ATOM     27  C   UNL     1      35.919 -25.106 -14.441  0.00  0.00    +0.061 C 
ATOM     28  C   UNL     1      36.859 -25.400 -13.467  0.00  0.00    +0.137 C 
ATOM     29  C   UNL     1      34.629 -24.010 -12.731  0.00  0.00    +0.058 C 
ATOM     30  C   UNL     1      35.628 -24.355 -11.833  0.00  0.00    +0.102 C 
BRANCH  28  33
ATOM     31  O   UNL     1      37.989 -27.299 -14.253  0.00  0.00    -0.268 OA
ATOM     32  N   UNL     1      39.285 -25.475 -13.644  0.00  0.00    -0.298 N 
ATOM     33  C   UNL     1      38.063 -26.138 -13.811  0.00  0.00    +0.264 C 
ATOM     34  C   UNL     1      40.565 -26.067 -13.964  0.00  0.00    +0.111 C 
ATOM     35  H   UNL     1      39.273 -24.557 -13.289  0.00  0.00    +0.150 HD
ENDBRANCH  28  33
ENDBRANCH  24  26
ENDBRANCH   2  24
TORSDOF 6
ENDMDL
MODEL 3
REMARK VINA RESULT:     -12.4      6.265     11.104
REMARK  Name = 216239
REMARK  6 active torsions:
REMARK  status: ('A' for Active; 'I' for Inactive)
REMARK    1  A    between atoms: C_1  and  N_9
REMARK    2  A    between atoms: C_2  and  O_24
REMARK    3  A    between atoms: N_8  and  C_14
REMARK    4  A    between atoms: C_15  and  C_23
REMARK    5  A    between atoms: O_24  and  C_26
REMARK    6  A    between atoms: C_28  and  C_33
REMARK                            x       y       z     vdW  Elec       q    Type
REMARK                         _______ _______ _______ _____ _____    ______ ____
ROOT
ATOM      1  C   UNL     1      34.936 -16.328 -22.574  0.00  0.00    +0.052 C 
ATOM      2  C   UNL     1      35.539 -18.727 -21.326  0.00  0.00    +0.145 C 
ATOM      3  C   UNL     1      35.256 -16.329 -21.227  0.00  0.00    +0.018 C 
ATOM      4  C   UNL     1      34.911 -17.500 -23.311  0.00  0.00    +0.018 C 
ATOM      5  C   UNL     1      35.560 -17.537 -20.599  0.00  0.00    +0.039 C 
ATOM      6  C   UNL     1      35.214 -18.709 -22.683  0.00  0.00    +0.039 C 
ENDROOT
BRANCH   1   9
ATOM      7  O   UNL     1      34.615 -13.589 -21.427  0.00  0.00    -0.252 OA
ATOM      8  N   UNL     1      34.176 -12.873 -23.614  0.00  0.00    -0.268 N 
ATOM      9  N   UNL     1      34.628 -15.103 -23.210  0.00  0.00    -0.268 N 
ATOM     10  C   UNL     1      34.488 -13.835 -22.622  0.00  0.00    +0.308 C 
ATOM     11  H   UNL     1      34.105 -13.217 -24.535  0.00  0.00    +0.156 HD
ATOM     12  H   UNL     1      34.496 -15.143 -24.184  0.00  0.00    +0.156 HD
BRANCH   8  14
ATOM     13 CL   UNL     1      33.279  -7.065 -22.992  0.00  0.00    -0.082 Cl
ATOM     14  C   UNL     1      33.955 -11.504 -23.462  0.00  0.00    +0.052 C 
ATOM     15  C   UNL     1      32.654  -9.682 -22.556  0.00  0.00    +0.083 C 
ATOM     16  C   UNL     1      32.874 -11.051 -22.708  0.00  0.00    +0.019 C 
ATOM     17  C   UNL     1      34.818 -10.589 -24.065  0.00  0.00    +0.016 C 
ATOM     18  C   UNL     1      33.516  -8.766 -23.159  0.00  0.00    +0.062 C 
ATOM     19  C   UNL     1      34.599  -9.220 -23.913  0.00  0.00    +0.013 C 
BRANCH  15  23
ATOM     20  F   UNL     1      31.838  -8.576 -20.598  0.00  0.00    -0.166 F 
ATOM     21  F   UNL     1      30.649  -8.386 -22.402  0.00  0.00    -0.166 F 
ATOM     22  F   UNL     1      30.704 -10.279 -21.333  0.00  0.00    -0.166 F 
ATOM     23  C   UNL     1      31.485  -9.237 -21.738  0.00  0.00    +0.419 C 
ENDBRANCH  15  23
ENDBRANCH   8  14
ENDBRANCH   1   9
BRANCH   2  24
ATOM     24  O   UNL     1      35.833 -19.905 -20.713  0.00  0.00    -0.453 OA
BRANCH  24  26
ATOM     25  N   UNL     1      32.831 -21.723 -18.487  0.00  0.00    -0.239 NA
ATOM     26  C   UNL     1      34.834 -20.512 -19.972  0.00  0.00    +0.149 C 
ATOM     27  C   UNL     1      35.179 -21.363 -18.944  0.00  0.00    +0.061 C 
ATOM     28  C   UNL     1      34.141 -21.943 -18.231  0.00  0.00    +0.137 C 
ATOM     29  C   UNL     1      33.515 -20.250 -20.278  0.00  0.00    +0.058 C 
ATOM     30  C   UNL     1      32.552 -20.881 -19.506  0.00  0.00    +0.102 C 
BRANCH  28  33
ATOM     31  O   UNL     1      33.737 -23.874 -16.964  0.00  0.00    -0.268 OA
ATOM     32  N   UNL     1      35.509 -22.531 -16.306  0.00  0.00    -0.298 N 
ATOM     33  C   UNL     1      34.425 -22.851 -17.133  0.00  0.00    +0.264 C 
ATOM     34  C   UNL     1      35.929 -23.346 -15.188  0.00  0.00    +0.111 C 
ATOM     35  H   UNL     1      36.011 -21.706 -16.495  0.00  0.00    +0.150 HD
ENDBRANCH  28  33
ENDBRANCH  24  26
ENDBRANCH   2  24
TORSDOF 6
ENDMDL
MODEL 4
REMARK VINA RESULT:     -12.2      2.522      4.373
REMARK  Name = 216239
REMARK  6 active torsions:
REMARK  status: ('A' for Active; 'I' for Inactive)
REMARK    1  A    between atoms: C_1  and  N_9
REMARK    2  A    between atoms: C_2  and  O_24
REMARK    3  A    between atoms: N_8  and  C_14
REMARK    4  A    between atoms: C_15  and  C_23
REMARK    5  A    between atoms: O_24  and  C_26
REMARK    6  A    between atoms: C_28  and  C_33
REMARK                            x       y       z     vdW  Elec       q    Type
REMARK                         _______ _______ _______ _____ _____    ______ ____
ROOT
ATOM      1  C   UNL     1      35.307 -20.791 -19.408  0.00  0.00    +0.052 C 
ATOM      2  C   UNL     1      35.949 -18.967 -21.391  0.00  0.00    +0.145 C 
ATOM      3  C   UNL     1      34.322 -20.369 -20.286  0.00  0.00    +0.018 C 
ATOM      4  C   UNL     1      36.606 -20.320 -19.500  0.00  0.00    +0.018 C 
ATOM      5  C   UNL     1      34.646 -19.451 -21.285  0.00  0.00    +0.039 C 
ATOM      6  C   UNL     1      36.929 -19.400 -20.499  0.00  0.00    +0.039 C 
ENDROOT
BRANCH   1   9
ATOM      7  O   UNL     1      36.554 -21.248 -16.734  0.00  0.00    -0.252 OA
ATOM      8  N   UNL     1      34.962 -22.939 -16.432  0.00  0.00    -0.268 N 
ATOM      9  N   UNL     1      34.978 -21.722 -18.395  0.00  0.00    -0.268 N 
ATOM     10  C   UNL     1      35.600 -21.897 -17.148  0.00  0.00    +0.308 C 
ATOM     11  H   UNL     1      34.207 -23.374 -16.891  0.00  0.00    +0.156 HD
ATOM     12  H   UNL     1      34.221 -22.321 -18.588  0.00  0.00    +0.156 HD
BRANCH   8  14
ATOM     13 CL   UNL     1      36.187 -25.024 -11.039  0.00  0.00    -0.082 Cl
ATOM     14  C   UNL     1      35.260 -23.434 -15.162  0.00  0.00    +0.052 C 
ATOM     15  C   UNL     1      36.840 -24.399 -13.610  0.00  0.00    +0.083 C 
ATOM     16  C   UNL     1      36.542 -23.905 -14.880  0.00  0.00    +0.019 C 
ATOM     17  C   UNL     1      34.275 -23.457 -14.174  0.00  0.00    +0.016 C 
ATOM     18  C   UNL     1      35.855 -24.423 -12.622  0.00  0.00    +0.062 C 
ATOM     19  C   UNL     1      34.573 -23.951 -12.904  0.00  0.00    +0.013 C 
BRANCH  15  23
ATOM     20  F   UNL     1      38.283 -26.225 -13.058  0.00  0.00    -0.166 F 
ATOM     21  F   UNL     1      39.076 -24.716 -14.400  0.00  0.00    -0.166 F 
ATOM     22  F   UNL     1      38.813 -24.261 -12.290  0.00  0.00    -0.166 F 
ATOM     23  C   UNL     1      38.226 -24.893 -13.347  0.00  0.00    +0.419 C 
ENDBRANCH  15  23
ENDBRANCH   8  14
ENDBRANCH   1   9
BRANCH   2  24
ATOM     24  O   UNL     1      36.264 -18.069 -22.365  0.00  0.00    -0.453 OA
BRANCH  24  26
ATOM     25  N   UNL     1      34.044 -14.560 -22.544  0.00  0.00    -0.239 NA
ATOM     26  C   UNL     1      35.525 -16.900 -22.425  0.00  0.00    +0.149 C 
ATOM     27  C   UNL     1      35.050 -16.465 -23.643  0.00  0.00    +0.061 C 
ATOM     28  C   UNL     1      34.315 -15.291 -23.650  0.00  0.00    +0.137 C 
ATOM     29  C   UNL     1      35.281 -16.197 -21.264  0.00  0.00    +0.058 C 
ATOM     30  C   UNL     1      34.536 -15.033 -21.378  0.00  0.00    +0.102 C 
BRANCH  28  33
ATOM     31  O   UNL     1      33.609 -15.518 -25.874  0.00  0.00    -0.268 OA
ATOM     32  N   UNL     1      33.449 -13.408 -24.926  0.00  0.00    -0.298 N 
ATOM     33  C   UNL     1      33.779 -14.768 -24.896  0.00  0.00    +0.264 C 
ATOM     34  C   UNL     1      32.886 -12.748 -26.082  0.00  0.00    +0.111 C 
ATOM     35  H   UNL     1      33.610 -12.871 -24.116  0.00  0.00    +0.150 HD
ENDBRANCH  28  33
ENDBRANCH  24  26
ENDBRANCH   2  24
TORSDOF 6
ENDMDL
MODEL 5
REMARK VINA RESULT:     -12.2      5.302     10.615
REMARK  Name = 216239
REMARK  6 active torsions:
REMARK  status: ('A' for Active; 'I' for Inactive)
REMARK    1  A    between atoms: C_1  and  N_9
REMARK    2  A    between atoms: C_2  and  O_24
REMARK    3  A    between atoms: N_8  and  C_14
REMARK    4  A    between atoms: C_15  and  C_23
REMARK    5  A    between atoms: O_24  and  C_26
REMARK    6  A    between atoms: C_28  and  C_33
REMARK                            x       y       z     vdW  Elec       q    Type
REMARK                         _______ _______ _______ _____ _____    ______ ____
ROOT
ATOM      1  C   UNL     1      35.520 -21.144 -18.929  0.00  0.00    +0.052 C 
ATOM      2  C   UNL     1      34.934 -22.919 -16.885  0.00  0.00    +0.145 C 
ATOM      3  C   UNL     1      34.333 -21.856 -18.969  0.00  0.00    +0.018 C 
ATOM      4  C   UNL     1      36.421 -21.301 -17.889  0.00  0.00    +0.018 C 
ATOM      5  C   UNL     1      34.038 -22.750 -17.939  0.00  0.00    +0.039 C 
ATOM      6  C   UNL     1      36.127 -22.196 -16.860  0.00  0.00    +0.039 C 
ENDROOT
BRANCH   1   9
ATOM      7  O   UNL     1      33.762 -19.186 -20.341  0.00  0.00    -0.252 OA
ATOM      8  N   UNL     1      35.649 -18.608 -21.602  0.00  0.00    -0.268 N 
ATOM      9  N   UNL     1      35.818 -20.238 -19.973  0.00  0.00    -0.268 N 
ATOM     10  C   UNL     1      34.950 -19.333 -20.606  0.00  0.00    +0.308 C 
ATOM     11  H   UNL     1      36.603 -18.833 -21.705  0.00  0.00    +0.156 HD
ATOM     12  H   UNL     1      36.747 -20.241 -20.296  0.00  0.00    +0.156 HD
BRANCH   8  14
ATOM     13 CL   UNL     1      33.612 -14.444 -25.268  0.00  0.00    -0.082 Cl
ATOM     14  C   UNL     1      35.168 -17.618 -22.459  0.00  0.00    +0.052 C 
ATOM     15  C   UNL     1      34.493 -15.331 -22.847  0.00  0.00    +0.083 C 
ATOM     16  C   UNL     1      34.974 -16.321 -21.989  0.00  0.00    +0.019 C 
ATOM     17  C   UNL     1      34.881 -17.929 -23.789  0.00  0.00    +0.016 C 
ATOM     18  C   UNL     1      34.206 -15.641 -24.177  0.00  0.00    +0.062 C 
ATOM     19  C   UNL     1      34.401 -16.939 -24.647  0.00  0.00    +0.013 C 
BRANCH  15  23
ATOM     20  F   UNL     1      32.990 -13.599 -22.169  0.00  0.00    -0.166 F 
ATOM     21  F   UNL     1      34.851 -13.772 -21.068  0.00  0.00    -0.166 F 
ATOM     22  F   UNL     1      34.860 -12.996 -23.099  0.00  0.00    -0.166 F 
ATOM     23  C   UNL     1      34.301 -13.952 -22.304  0.00  0.00    +0.419 C 
ENDBRANCH  15  23
ENDBRANCH   8  14
ENDBRANCH   1   9
BRANCH   2  24
ATOM     24  O   UNL     1      34.648 -23.793 -15.882  0.00  0.00    -0.453 OA
BRANCH  24  26
ATOM     25  N   UNL     1      31.201 -23.121 -13.659  0.00  0.00    -0.239 NA
ATOM     26  C   UNL     1      33.499 -23.568 -15.142  0.00  0.00    +0.149 C 
ATOM     27  C   UNL     1      32.325 -23.260 -15.795  0.00  0.00    +0.061 C 
ATOM     28  C   UNL     1      31.204 -23.046 -15.010  0.00  0.00    +0.137 C 
ATOM     29  C   UNL     1      33.555 -23.659 -13.767  0.00  0.00    +0.058 C 
ATOM     30  C   UNL     1      32.379 -23.426 -13.072  0.00  0.00    +0.102 C 
BRANCH  28  33
ATOM     31  O   UNL     1      29.875 -22.372 -16.820  0.00  0.00    -0.268 OA
ATOM     32  N   UNL     1      28.788 -22.830 -14.824  0.00  0.00    -0.298 N 
ATOM     33  C   UNL     1      29.930 -22.717 -15.626  0.00  0.00    +0.264 C 
ATOM     34  C   UNL     1      27.449 -22.561 -15.298  0.00  0.00    +0.111 C 
ATOM     35  H   UNL     1      28.902 -23.107 -13.886  0.00  0.00    +0.150 HD
ENDBRANCH  28  33
ENDBRANCH  24  26
ENDBRANCH   2  24
TORSDOF 6
ENDMDL
MODEL 6
REMARK VINA RESULT:     -12.1      6.394     10.963
REMARK  Name = 216239
REMARK  6 active torsions:
REMARK  status: ('A' for Active; 'I' for Inactive)
REMARK    1  A    between atoms: C_1  and  N_9
REMARK    2  A    between atoms: C_2  and  O_24
REMARK    3  A    between atoms: N_8  and  C_14
REMARK    4  A    between atoms: C_15  and  C_23
REMARK    5  A    between atoms: O_24  and  C_26
REMARK    6  A    between atoms: C_28  and  C_33
REMARK                            x       y       z     vdW  Elec       q    Type
REMARK                         _______ _______ _______ _____ _____    ______ ____
ROOT
ATOM      1  C   UNL     1      34.196 -14.108 -23.864  0.00  0.00    +0.052 C 
ATOM      2  C   UNL     1      34.592 -16.843 -23.673  0.00  0.00    +0.145 C 
ATOM      3  C   UNL     1      34.784 -14.629 -22.725  0.00  0.00    +0.018 C 
ATOM      4  C   UNL     1      33.800 -14.924 -24.911  0.00  0.00    +0.018 C 
ATOM      5  C   UNL     1      34.984 -16.006 -22.628  0.00  0.00    +0.039 C 
ATOM      6  C   UNL     1      33.999 -16.302 -24.814  0.00  0.00    +0.039 C 
ENDROOT
BRANCH   1   9
ATOM      7  O   UNL     1      32.679 -12.252 -22.082  0.00  0.00    -0.252 OA
ATOM      8  N   UNL     1      33.313 -10.541 -23.551  0.00  0.00    -0.268 N 
ATOM      9  N   UNL     1      33.994 -12.711 -23.961  0.00  0.00    -0.268 N 
ATOM     10  C   UNL     1      33.268 -11.880 -23.091  0.00  0.00    +0.308 C 
ATOM     11  H   UNL     1      33.825 -10.391 -24.379  0.00  0.00    +0.156 HD
ATOM     12  H   UNL     1      34.412 -12.266 -24.732  0.00  0.00    +0.156 HD
BRANCH   8  14
ATOM     13 CL   UNL     1      30.826  -5.720 -21.207  0.00  0.00    -0.082 Cl
ATOM     14  C   UNL     1      32.729  -9.406 -22.988  0.00  0.00    +0.052 C 
ATOM     15  C   UNL     1      32.301  -8.008 -21.066  0.00  0.00    +0.083 C 
ATOM     16  C   UNL     1      32.884  -9.143 -21.628  0.00  0.00    +0.019 C 
ATOM     17  C   UNL     1      31.990  -8.534 -23.788  0.00  0.00    +0.016 C 
ATOM     18  C   UNL     1      31.561  -7.135 -21.865  0.00  0.00    +0.062 C 
ATOM     19  C   UNL     1      31.407  -7.399 -23.226  0.00  0.00    +0.013 C 
BRANCH  15  23
ATOM     20  F   UNL     1      31.328  -7.503 -18.939  0.00  0.00    -0.166 F 
ATOM     21  F   UNL     1      33.059  -8.810 -18.944  0.00  0.00    -0.166 F 
ATOM     22  F   UNL     1      33.300  -6.689 -19.358  0.00  0.00    -0.166 F 
ATOM     23  C   UNL     1      32.492  -7.760 -19.604  0.00  0.00    +0.419 C 
ENDBRANCH  15  23
ENDBRANCH   8  14
ENDBRANCH   1   9
BRANCH   2  24
ATOM     24  O   UNL     1      34.785 -18.186 -23.578  0.00  0.00    -0.453 OA
BRANCH  24  26
ATOM     25  N   UNL     1      35.867 -19.726 -19.872  0.00  0.00    -0.239 NA
ATOM     26  C   UNL     1      35.144 -18.699 -22.343  0.00  0.00    +0.149 C 
ATOM     27  C   UNL     1      34.231 -19.445 -21.630  0.00  0.00    +0.061 C 
ATOM     28  C   UNL     1      34.640 -19.937 -20.401  0.00  0.00    +0.137 C 
ATOM     29  C   UNL     1      36.410 -18.452 -21.854  0.00  0.00    +0.058 C 
ATOM     30  C   UNL     1      36.722 -18.987 -20.614  0.00  0.00    +0.102 C 
BRANCH  28  33
ATOM     31  O   UNL     1      32.502 -20.572 -19.677  0.00  0.00    -0.268 OA
ATOM     32  N   UNL     1      34.308 -21.687 -18.744  0.00  0.00    -0.298 N 
ATOM     33  C   UNL     1      33.733 -20.732 -19.591  0.00  0.00    +0.264 C 
ATOM     34  C   UNL     1      33.538 -22.569 -17.896  0.00  0.00    +0.111 C 
ATOM     35  H   UNL     1      35.290 -21.762 -18.724  0.00  0.00    +0.150 HD
ENDBRANCH  28  33
ENDBRANCH  24  26
ENDBRANCH   2  24
TORSDOF 6
ENDMDL
MODEL 7
REMARK VINA RESULT:     -12.1      2.445      3.473
REMARK  Name = 216239
REMARK  6 active torsions:
REMARK  status: ('A' for Active; 'I' for Inactive)
REMARK    1  A    between atoms: C_1  and  N_9
REMARK    2  A    between atoms: C_2  and  O_24
REMARK    3  A    between atoms: N_8  and  C_14
REMARK    4  A    between atoms: C_15  and  C_23
REMARK    5  A    between atoms: O_24  and  C_26
REMARK    6  A    between atoms: C_28  and  C_33
REMARK                            x       y       z     vdW  Elec       q    Type
REMARK                         _______ _______ _______ _____ _____    ______ ____
ROOT
ATOM      1  C   UNL     1      36.374 -19.736 -19.894  0.00  0.00    +0.052 C 
ATOM      2  C   UNL     1      35.520 -18.820 -22.365  0.00  0.00    +0.145 C 
ATOM      3  C   UNL     1      35.096 -20.045 -20.327  0.00  0.00    +0.018 C 
ATOM      4  C   UNL     1      37.236 -18.978 -20.670  0.00  0.00    +0.018 C 
ATOM      5  C   UNL     1      34.666 -19.584 -21.571  0.00  0.00    +0.039 C 
ATOM      6  C   UNL     1      36.805 -18.515 -21.915  0.00  0.00    +0.039 C 
ENDROOT
BRANCH   1   9
ATOM      7  O   UNL     1      35.544 -22.149 -18.343  0.00  0.00    -0.252 OA
ATOM      8  N   UNL     1      37.074 -21.456 -16.709  0.00  0.00    -0.268 N 
ATOM      9  N   UNL     1      36.810 -20.203 -18.633  0.00  0.00    -0.268 N 
ATOM     10  C   UNL     1      36.386 -21.352 -17.943  0.00  0.00    +0.308 C 
ATOM     11  H   UNL     1      37.722 -20.740 -16.519  0.00  0.00    +0.156 HD
ATOM     12  H   UNL     1      37.494 -19.658 -18.182  0.00  0.00    +0.156 HD
BRANCH   8  14
ATOM     13 CL   UNL     1      36.526 -25.603 -12.533  0.00  0.00    -0.082 Cl
ATOM     14  C   UNL     1      36.954 -22.439 -15.726  0.00  0.00    +0.052 C 
ATOM     15  C   UNL     1      37.927 -24.223 -14.420  0.00  0.00    +0.083 C 
ATOM     16  C   UNL     1      38.047 -23.242 -15.404  0.00  0.00    +0.019 C 
ATOM     17  C   UNL     1      35.739 -22.616 -15.064  0.00  0.00    +0.016 C 
ATOM     18  C   UNL     1      36.712 -24.401 -13.758  0.00  0.00    +0.062 C 
ATOM     19  C   UNL     1      35.619 -23.597 -14.080  0.00  0.00    +0.013 C 
BRANCH  15  23
ATOM     20  F   UNL     1      39.553 -24.931 -12.815  0.00  0.00    -0.166 F 
ATOM     21  F   UNL     1      38.911 -26.398 -14.278  0.00  0.00    -0.166 F 
ATOM     22  F   UNL     1      40.198 -24.753 -14.884  0.00  0.00    -0.166 F 
ATOM     23  C   UNL     1      39.123 -25.062 -14.103  0.00  0.00    +0.419 C 
ENDBRANCH  15  23
ENDBRANCH   8  14
ENDBRANCH   1   9
BRANCH   2  24
ATOM     24  O   UNL     1      35.100 -18.368 -23.578  0.00  0.00    -0.453 OA
BRANCH  24  26
ATOM     25  N   UNL     1      33.929 -14.391 -23.860  0.00  0.00    -0.239 NA
ATOM     26  C   UNL     1      34.709 -17.043 -23.671  0.00  0.00    +0.149 C 
ATOM     27  C   UNL     1      34.571 -16.298 -22.520  0.00  0.00    +0.061 C 
ATOM     28  C   UNL     1      34.179 -14.978 -22.667  0.00  0.00    +0.137 C 
ATOM     29  C   UNL     1      34.468 -16.498 -24.915  0.00  0.00    +0.058 C 
ATOM     30  C   UNL     1      34.079 -15.168 -24.955  0.00  0.00    +0.102 C 
BRANCH  28  33
ATOM     31  O   UNL     1      34.942 -13.985 -20.684  0.00  0.00    -0.268 OA
ATOM     32  N   UNL     1      32.783 -13.475 -21.359  0.00  0.00    -0.298 N 
ATOM     33  C   UNL     1      34.013 -14.128 -21.500  0.00  0.00    +0.264 C 
ATOM     34  C   UNL     1      32.473 -12.581 -20.266  0.00  0.00    +0.111 C 
ATOM     35  H   UNL     1      32.090 -13.633 -22.040  0.00  0.00    +0.150 HD
ENDBRANCH  28  33
ENDBRANCH  24  26
ENDBRANCH   2  24
TORSDOF 6
ENDMDL
MODEL 8
REMARK VINA RESULT:     -12.1      6.814     11.404
REMARK  Name = 216239
REMARK  6 active torsions:
REMARK  status: ('A' for Active; 'I' for Inactive)
REMARK    1  A    between atoms: C_1  and  N_9
REMARK    2  A    between atoms: C_2  and  O_24
REMARK    3  A    between atoms: N_8  and  C_14
REMARK    4  A    between atoms: C_15  and  C_23
REMARK    5  A    between atoms: O_24  and  C_26
REMARK    6  A    between atoms: C_28  and  C_33
REMARK                            x       y       z     vdW  Elec       q    Type
REMARK                         _______ _______ _______ _____ _____    ______ ____
ROOT
ATOM      1  C   UNL     1      34.600 -15.273 -22.744  0.00  0.00    +0.052 C 
ATOM      2  C   UNL     1      35.372 -17.854 -22.097  0.00  0.00    +0.145 C 
ATOM      3  C   UNL     1      34.997 -15.556 -21.449  0.00  0.00    +0.018 C 
ATOM      4  C   UNL     1      34.580 -16.252 -23.724  0.00  0.00    +0.018 C 
ATOM      5  C   UNL     1      35.386 -16.856 -21.123  0.00  0.00    +0.039 C 
ATOM      6  C   UNL     1      34.968 -17.552 -23.397  0.00  0.00    +0.039 C 
ENDROOT
BRANCH   1   9
ATOM      7  O   UNL     1      33.489 -13.105 -21.017  0.00  0.00    -0.252 OA
ATOM      8  N   UNL     1      33.422 -11.786 -22.952  0.00  0.00    -0.268 N 
ATOM      9  N   UNL     1      34.206 -13.956 -23.075  0.00  0.00    -0.268 N 
ATOM     10  C   UNL     1      33.687 -12.969 -22.220  0.00  0.00    +0.308 C 
ATOM     11  H   UNL     1      33.630 -11.823 -23.914  0.00  0.00    +0.156 HD
ATOM     12  H   UNL     1      34.308 -13.697 -24.019  0.00  0.00    +0.156 HD
BRANCH   8  14
ATOM     13 CL   UNL     1      31.200  -6.677 -20.979  0.00  0.00    -0.082 Cl
ATOM     14  C   UNL     1      32.904 -10.574 -22.493  0.00  0.00    +0.052 C 
ATOM     15  C   UNL     1      32.812  -8.163 -22.598  0.00  0.00    +0.083 C 
ATOM     16  C   UNL     1      33.331  -9.373 -23.057  0.00  0.00    +0.019 C 
ATOM     17  C   UNL     1      31.958 -10.566 -21.467  0.00  0.00    +0.016 C 
ATOM     18  C   UNL     1      31.866  -8.154 -21.572  0.00  0.00    +0.062 C 
ATOM     19  C   UNL     1      31.439  -9.356 -21.008  0.00  0.00    +0.013 C 
BRANCH  15  23
ATOM     20  F   UNL     1      34.187  -7.101 -24.242  0.00  0.00    -0.166 F 
ATOM     21  F   UNL     1      32.293  -6.149 -23.781  0.00  0.00    -0.166 F 
ATOM     22  F   UNL     1      33.923  -6.076 -22.343  0.00  0.00    -0.166 F 
ATOM     23  C   UNL     1      33.293  -6.897 -23.232  0.00  0.00    +0.419 C 
ENDBRANCH  15  23
ENDBRANCH   8  14
ENDBRANCH   1   9
BRANCH   2  24
ATOM     24  O   UNL     1      35.749 -19.122 -21.778  0.00  0.00    -0.453 OA
BRANCH  24  26
ATOM     25  N   UNL     1      33.433 -21.185 -19.012  0.00  0.00    -0.239 NA
ATOM     26  C   UNL     1      34.978 -19.810 -20.857  0.00  0.00    +0.149 C 
ATOM     27  C   UNL     1      35.600 -20.517 -19.850  0.00  0.00    +0.061 C 
ATOM     28  C   UNL     1      34.784 -21.187 -18.954  0.00  0.00    +0.137 C 
ATOM     29  C   UNL     1      33.604 -19.771 -20.966  0.00  0.00    +0.058 C 
ATOM     30  C   UNL     1      32.877 -20.476 -20.020  0.00  0.00    +0.102 C 
BRANCH  28  33
ATOM     31  O   UNL     1      34.793 -22.970 -17.431  0.00  0.00    -0.268 OA
ATOM     32  N   UNL     1      36.593 -21.510 -17.358  0.00  0.00    -0.298 N 
ATOM     33  C   UNL     1      35.366 -21.954 -17.865  0.00  0.00    +0.264 C 
ATOM     34  C   UNL     1      37.307 -22.178 -16.294  0.00  0.00    +0.111 C 
ATOM     35  H   UNL     1      36.991 -20.698 -17.747  0.00  0.00    +0.150 HD
ENDBRANCH  28  33
ENDBRANCH  24  26
ENDBRANCH   2  24
TORSDOF 6
ENDMDL
MODEL 9
REMARK VINA RESULT:     -12.0      2.723      4.353
REMARK  Name = 216239
REMARK  6 active torsions:
REMARK  status: ('A' for Active; 'I' for Inactive)
REMARK    1  A    between atoms: C_1  and  N_9
REMARK    2  A    between atoms: C_2  and  O_24
REMARK    3  A    between atoms: N_8  and  C_14
REMARK    4  A    between atoms: C_15  and  C_23
REMARK    5  A    between atoms: O_24  and  C_26
REMARK    6  A    between atoms: C_28  and  C_33
REMARK                            x       y       z     vdW  Elec       q    Type
REMARK                         _______ _______ _______ _____ _____    ______ ____
ROOT
ATOM      1  C   UNL     1      35.650 -20.569 -19.506  0.00  0.00    +0.052 C 
ATOM      2  C   UNL     1      35.685 -18.597 -21.451  0.00  0.00    +0.145 C 
ATOM      3  C   UNL     1      36.836 -19.912 -19.783  0.00  0.00    +0.018 C 
ATOM      4  C   UNL     1      34.480 -20.262 -20.180  0.00  0.00    +0.018 C 
ATOM      5  C   UNL     1      36.854 -18.918 -20.762  0.00  0.00    +0.039 C 
ATOM      6  C   UNL     1      34.497 -19.269 -21.161  0.00  0.00    +0.039 C 
ENDROOT
BRANCH   1   9
ATOM      7  O   UNL     1      37.089 -20.723 -16.894  0.00  0.00    -0.252 OA
ATOM      8  N   UNL     1      36.034 -22.793 -16.590  0.00  0.00    -0.268 N 
ATOM      9  N   UNL     1      35.632 -21.576 -18.513  0.00  0.00    -0.268 N 
ATOM     10  C   UNL     1      36.331 -21.600 -17.294  0.00  0.00    +0.308 C 
ATOM     11  H   UNL     1      35.408 -23.408 -17.037  0.00  0.00    +0.156 HD
ATOM     12  H   UNL     1      35.061 -22.356 -18.697  0.00  0.00    +0.156 HD
BRANCH   8  14
ATOM     13 CL   UNL     1      38.097 -24.583 -11.349  0.00  0.00    -0.082 Cl
ATOM     14  C   UNL     1      36.512 -23.214 -15.349  0.00  0.00    +0.052 C 
ATOM     15  C   UNL     1      36.119 -23.741 -13.024  0.00  0.00    +0.083 C 
ATOM     16  C   UNL     1      35.641 -23.319 -14.265  0.00  0.00    +0.019 C 
ATOM     17  C   UNL     1      37.862 -23.529 -15.193  0.00  0.00    +0.016 C 
ATOM     18  C   UNL     1      37.469 -24.056 -12.867  0.00  0.00    +0.062 C 
ATOM     19  C   UNL     1      38.340 -23.951 -13.952  0.00  0.00    +0.013 C 
BRANCH  15  23
ATOM     20  F   UNL     1      33.868 -23.547 -12.239  0.00  0.00    -0.166 F 
ATOM     21  F   UNL     1      35.097 -25.088 -11.332  0.00  0.00    -0.166 F 
ATOM     22  F   UNL     1      35.460 -22.995 -10.865  0.00  0.00    -0.166 F 
ATOM     23  C   UNL     1      35.153 -23.843 -11.888  0.00  0.00    +0.419 C 
ENDBRANCH  15  23
ENDBRANCH   8  14
ENDBRANCH   1   9
BRANCH   2  24
ATOM     24  O   UNL     1      35.702 -17.629 -22.407  0.00  0.00    -0.453 OA
BRANCH  24  26
ATOM     25  N   UNL     1      34.295 -13.860 -21.364  0.00  0.00    -0.239 NA
ATOM     26  C   UNL     1      35.234 -16.373 -22.060  0.00  0.00    +0.149 C 
ATOM     27  C   UNL     1      34.892 -15.482 -23.055  0.00  0.00    +0.061 C 
ATOM     28  C   UNL     1      34.428 -14.239 -22.655  0.00  0.00    +0.137 C 
ATOM     29  C   UNL     1      35.120 -16.041 -20.726  0.00  0.00    +0.058 C 
ATOM     30  C   UNL     1      34.646 -14.773 -20.431  0.00  0.00    +0.102 C 
BRANCH  28  33
ATOM     31  O   UNL     1      33.406 -13.578 -24.659  0.00  0.00    -0.268 OA
ATOM     32  N   UNL     1      34.413 -11.919 -23.390  0.00  0.00    -0.298 N 
ATOM     33  C   UNL     1      34.047 -13.246 -23.646  0.00  0.00    +0.264 C 
ATOM     34  C   UNL     1      34.087 -10.817 -24.267  0.00  0.00    +0.111 C 
ATOM     35  H   UNL     1      34.921 -11.726 -22.569  0.00  0.00    +0.150 HD
ENDBRANCH  28  33
ENDBRANCH  24  26
ENDBRANCH   2  24
TORSDOF 6
ENDMDL
