MODEL 1
REMARK VINA RESULT:     -11.3      0.000      0.000
REMARK  Name = 9931954
REMARK  3 active torsions:
REMARK  status: ('A' for Active; 'I' for Inactive)
REMARK    1  A    between atoms: C_8  and  C_18
REMARK    2  A    between atoms: C_21  and  C_24
REMARK    3  A    between atoms: C_24  and  N_25
REMARK                            x       y       z     vdW  Elec       q    Type
REMARK                         _______ _______ _______ _____ _____    ______ ____
ROOT
ATOM      1  F   UNL     1      29.548 -25.324 -13.618  0.00  0.00    -0.204 F 
ATOM      2  O   UNL     1      34.085 -24.399 -11.850  0.00  0.00    -0.270 OA
ATOM      3  N   UNL     1      31.958 -22.839 -17.030  0.00  0.00    -0.353 N 
ATOM      4  N   UNL     1      35.497 -24.073 -13.602  0.00  0.00    -0.301 N 
ATOM      5  C   UNL     1      33.927 -22.908 -16.001  0.00  0.00    -0.003 A 
ATOM      6  C   UNL     1      32.969 -23.576 -15.177  0.00  0.00    +0.018 A 
ATOM      7  C   UNL     1      35.378 -22.775 -15.708  0.00  0.00    +0.049 C 
ATOM      8  C   UNL     1      33.267 -22.458 -17.124  0.00  0.00    +0.053 A 
ATOM      9  C   UNL     1      31.749 -23.532 -15.860  0.00  0.00    +0.059 A 
ATOM     10  C   UNL     1      33.022 -24.219 -13.919  0.00  0.00    +0.057 C 
ATOM     11  C   UNL     1      35.906 -24.014 -14.998  0.00  0.00    +0.094 C 
ATOM     12  C   UNL     1      34.235 -24.240 -13.064  0.00  0.00    +0.246 C 
ATOM     13  C   UNL     1      30.577 -24.112 -15.365  0.00  0.00    +0.047 C 
ATOM     14  C   UNL     1      31.843 -24.804 -13.415  0.00  0.00    +0.034 C 
ATOM     15  C   UNL     1      30.648 -24.755 -14.130  0.00  0.00    +0.142 C 
ATOM     16  H   UNL     1      31.265 -22.646 -17.701  0.00  0.00    +0.166 HD
ATOM     17  H   UNL     1      36.224 -23.979 -12.946  0.00  0.00    +0.150 HD
ENDROOT
BRANCH   8  18
ATOM     18  C   UNL     1      33.751 -21.725 -18.271  0.00  0.00    +0.015 C 
ATOM     19  C   UNL     1      32.858 -21.006 -19.064  0.00  0.00    +0.001 C 
ATOM     20  C   UNL     1      35.110 -21.737 -18.582  0.00  0.00    +0.001 C 
ATOM     21  C   UNL     1      34.685 -20.309 -20.483  0.00  0.00    -0.044 C 
ATOM     22  C   UNL     1      33.325 -20.298 -20.171  0.00  0.00    -0.006 C 
ATOM     23  C   UNL     1      35.576 -21.028 -19.689  0.00  0.00    -0.006 C 
BRANCH  21  24
ATOM     24  C   UNL     1      35.184 -19.552 -21.667  0.00  0.00    -0.054 C 
BRANCH  24  25
ATOM     25  N   UNL     1      36.134 -18.531 -21.303  0.00  0.00    +0.385 N 
ATOM     26  C   UNL     1      35.466 -17.303 -20.878  0.00  0.00    -0.105 C 
ATOM     27  H   UNL     1      36.724 -18.325 -22.110  0.00  0.00    -0.084 HD
ATOM     28  H   UNL     1      36.693 -18.878 -20.523  0.00  0.00    -0.084 HD
ENDBRANCH  24  25
ENDBRANCH  21  24
ENDBRANCH   8  18
TORSDOF 3
ENDMDL
MODEL 2
REMARK VINA RESULT:     -10.5      3.414      5.613
REMARK  Name = 9931954
REMARK  3 active torsions:
REMARK  status: ('A' for Active; 'I' for Inactive)
REMARK    1  A    between atoms: C_8  and  C_18
REMARK    2  A    between atoms: C_21  and  C_24
REMARK    3  A    between atoms: C_24  and  N_25
REMARK                            x       y       z     vdW  Elec       q    Type
REMARK                         _______ _______ _______ _____ _____    ______ ____
ROOT
ATOM      1  F   UNL     1      37.972 -22.400 -15.770  0.00  0.00    -0.204 F 
ATOM      2  O   UNL     1      33.463 -23.978 -17.090  0.00  0.00    -0.270 OA
ATOM      3  N   UNL     1      36.594 -19.792 -19.632  0.00  0.00    -0.353 N 
ATOM      4  N   UNL     1      32.414 -22.314 -18.230  0.00  0.00    -0.301 N 
ATOM      5  C   UNL     1      34.512 -20.569 -19.689  0.00  0.00    -0.003 A 
ATOM      6  C   UNL     1      35.198 -21.210 -18.612  0.00  0.00    +0.018 A 
ATOM      7  C   UNL     1      33.082 -20.765 -20.043  0.00  0.00    +0.049 C 
ATOM      8  C   UNL     1      35.405 -19.715 -20.301  0.00  0.00    +0.053 A 
ATOM      9  C   UNL     1      36.495 -20.685 -18.590  0.00  0.00    +0.059 A 
ATOM     10  C   UNL     1      34.841 -22.179 -17.647  0.00  0.00    +0.057 C 
ATOM     11  C   UNL     1      32.238 -20.984 -18.795  0.00  0.00    +0.094 C 
ATOM     12  C   UNL     1      33.529 -22.874 -17.636  0.00  0.00    +0.246 C 
ATOM     13  C   UNL     1      37.454 -21.062 -17.646  0.00  0.00    +0.047 C 
ATOM     14  C   UNL     1      35.805 -22.564 -16.694  0.00  0.00    +0.034 C 
ATOM     15  C   UNL     1      37.083 -22.010 -16.693  0.00  0.00    +0.142 C 
ATOM     16  H   UNL     1      37.404 -19.282 -19.861  0.00  0.00    +0.166 HD
ATOM     17  H   UNL     1      31.625 -22.899 -18.279  0.00  0.00    +0.150 HD
ENDROOT
BRANCH   8  18
ATOM     18  C   UNL     1      35.240 -18.833 -21.434  0.00  0.00    +0.015 C 
ATOM     19  C   UNL     1      34.853 -19.352 -22.668  0.00  0.00    +0.001 C 
ATOM     20  C   UNL     1      35.469 -17.465 -21.289  0.00  0.00    +0.001 C 
ATOM     21  C   UNL     1      34.923 -17.132 -23.618  0.00  0.00    -0.044 C 
ATOM     22  C   UNL     1      34.694 -18.500 -23.761  0.00  0.00    -0.006 C 
ATOM     23  C   UNL     1      35.310 -16.615 -22.383  0.00  0.00    -0.006 C 
BRANCH  21  24
ATOM     24  C   UNL     1      34.753 -16.222 -24.787  0.00  0.00    -0.054 C 
BRANCH  24  25
ATOM     25  N   UNL     1      33.396 -15.754 -24.925  0.00  0.00    +0.385 N 
ATOM     26  C   UNL     1      33.347 -14.311 -25.156  0.00  0.00    -0.105 C 
ATOM     27  H   UNL     1      32.883 -15.970 -24.070  0.00  0.00    -0.084 HD
ATOM     28  H   UNL     1      32.977 -16.221 -25.729  0.00  0.00    -0.084 HD
ENDBRANCH  24  25
ENDBRANCH  21  24
ENDBRANCH   8  18
TORSDOF 3
ENDMDL
MODEL 3
REMARK VINA RESULT:     -10.2      6.192     10.723
REMARK  Name = 9931954
REMARK  3 active torsions:
REMARK  status: ('A' for Active; 'I' for Inactive)
REMARK    1  A    between atoms: C_8  and  C_18
REMARK    2  A    between atoms: C_21  and  C_24
REMARK    3  A    between atoms: C_24  and  N_25
REMARK                            x       y       z     vdW  Elec       q    Type
REMARK                         _______ _______ _______ _____ _____    ______ ____
ROOT
ATOM      1  F   UNL     1      33.594 -13.947 -26.920  0.00  0.00    -0.204 F 
ATOM      2  O   UNL     1      33.895 -11.495 -22.623  0.00  0.00    -0.270 OA
ATOM      3  N   UNL     1      34.871 -17.156 -23.501  0.00  0.00    -0.353 N 
ATOM      4  N   UNL     1      33.601 -12.971 -20.919  0.00  0.00    -0.301 N 
ATOM      5  C   UNL     1      34.597 -15.770 -21.785  0.00  0.00    -0.003 A 
ATOM      6  C   UNL     1      34.299 -15.057 -22.987  0.00  0.00    +0.018 A 
ATOM      7  C   UNL     1      34.487 -15.226 -20.406  0.00  0.00    +0.049 C 
ATOM      8  C   UNL     1      34.956 -17.052 -22.141  0.00  0.00    +0.053 A 
ATOM      9  C   UNL     1      34.462 -15.960 -24.043  0.00  0.00    +0.059 A 
ATOM     10  C   UNL     1      33.901 -13.733 -23.281  0.00  0.00    +0.057 C 
ATOM     11  C   UNL     1      33.318 -14.255 -20.296  0.00  0.00    +0.094 C 
ATOM     12  C   UNL     1      33.794 -12.667 -22.254  0.00  0.00    +0.246 C 
ATOM     13  C   UNL     1      34.231 -15.621 -25.380  0.00  0.00    +0.047 C 
ATOM     14  C   UNL     1      33.669 -13.385 -24.627  0.00  0.00    +0.034 C 
ATOM     15  C   UNL     1      33.826 -14.315 -25.652  0.00  0.00    +0.142 C 
ATOM     16  H   UNL     1      35.073 -17.969 -24.017  0.00  0.00    +0.166 HD
ATOM     17  H   UNL     1      33.666 -12.208 -20.301  0.00  0.00    +0.150 HD
ENDROOT
BRANCH   8  18
ATOM     18  C   UNL     1      35.354 -18.179 -21.328  0.00  0.00    +0.015 C 
ATOM     19  C   UNL     1      36.687 -18.329 -20.953  0.00  0.00    +0.001 C 
ATOM     20  C   UNL     1      34.402 -19.113 -20.921  0.00  0.00    +0.001 C 
ATOM     21  C   UNL     1      36.120 -20.352 -19.761  0.00  0.00    -0.044 C 
ATOM     22  C   UNL     1      37.071 -19.417 -20.169  0.00  0.00    -0.006 C 
ATOM     23  C   UNL     1      34.786 -20.200 -20.136  0.00  0.00    -0.006 C 
BRANCH  21  24
ATOM     24  C   UNL     1      36.530 -21.515 -18.922  0.00  0.00    -0.054 C 
BRANCH  24  25
ATOM     25  N   UNL     1      36.857 -21.129 -17.572  0.00  0.00    +0.385 N 
ATOM     26  C   UNL     1      36.378 -22.112 -16.602  0.00  0.00    -0.105 C 
ATOM     27  H   UNL     1      36.425 -20.227 -17.372  0.00  0.00    -0.084 HD
ATOM     28  H   UNL     1      37.872 -21.071 -17.494  0.00  0.00    -0.084 HD
ENDBRANCH  24  25
ENDBRANCH  21  24
ENDBRANCH   8  18
TORSDOF 3
ENDMDL
MODEL 4
REMARK VINA RESULT:     -10.0      1.904      3.052
REMARK  Name = 9931954
REMARK  3 active torsions:
REMARK  status: ('A' for Active; 'I' for Inactive)
REMARK    1  A    between atoms: C_8  and  C_18
REMARK    2  A    between atoms: C_21  and  C_24
REMARK    3  A    between atoms: C_24  and  N_25
REMARK                            x       y       z     vdW  Elec       q    Type
REMARK                         _______ _______ _______ _____ _____    ______ ____
ROOT
ATOM      1  F   UNL     1      36.260 -24.747 -11.745  0.00  0.00    -0.204 F 
ATOM      2  O   UNL     1      31.634 -25.632 -13.288  0.00  0.00    -0.270 OA
ATOM      3  N   UNL     1      35.731 -22.587 -16.066  0.00  0.00    -0.353 N 
ATOM      4  N   UNL     1      31.033 -24.008 -14.760  0.00  0.00    -0.301 N 
ATOM      5  C   UNL     1      33.544 -22.954 -16.228  0.00  0.00    -0.003 A 
ATOM      6  C   UNL     1      34.004 -23.529 -15.003  0.00  0.00    +0.018 A 
ATOM      7  C   UNL     1      32.134 -22.929 -16.698  0.00  0.00    +0.049 C 
ATOM      8  C   UNL     1      34.635 -22.395 -16.860  0.00  0.00    +0.053 A 
ATOM      9  C   UNL     1      35.375 -23.264 -14.923  0.00  0.00    +0.059 A 
ATOM     10  C   UNL     1      33.386 -24.243 -13.952  0.00  0.00    +0.057 C 
ATOM     11  C   UNL     1      31.173 -22.778 -15.526  0.00  0.00    +0.094 C 
ATOM     12  C   UNL     1      31.963 -24.665 -13.977  0.00  0.00    +0.246 C 
ATOM     13  C   UNL     1      36.165 -23.658 -13.838  0.00  0.00    +0.047 C 
ATOM     14  C   UNL     1      34.179 -24.645 -12.858  0.00  0.00    +0.034 C 
ATOM     15  C   UNL     1      35.540 -24.350 -12.803  0.00  0.00    +0.142 C 
ATOM     16  H   UNL     1      36.642 -22.285 -16.281  0.00  0.00    +0.166 HD
ATOM     17  H   UNL     1      30.147 -24.433 -14.806  0.00  0.00    +0.150 HD
ENDROOT
BRANCH   8  18
ATOM     18  C   UNL     1      34.738 -21.694 -18.119  0.00  0.00    +0.015 C 
ATOM     19  C   UNL     1      33.582 -21.333 -18.810  0.00  0.00    +0.001 C 
ATOM     20  C   UNL     1      35.992 -21.381 -18.640  0.00  0.00    +0.001 C 
ATOM     21  C   UNL     1      34.936 -20.342 -20.548  0.00  0.00    -0.044 C 
ATOM     22  C   UNL     1      33.682 -20.656 -20.025  0.00  0.00    -0.006 C 
ATOM     23  C   UNL     1      36.091 -20.704 -19.856  0.00  0.00    -0.006 C 
BRANCH  21  24
ATOM     24  C   UNL     1      35.042 -19.618 -21.848  0.00  0.00    -0.054 C 
BRANCH  24  25
ATOM     25  N   UNL     1      36.001 -18.543 -21.800  0.00  0.00    +0.385 N 
ATOM     26  C   UNL     1      35.431 -17.342 -21.192  0.00  0.00    -0.105 C 
ATOM     27  H   UNL     1      36.301 -18.324 -22.750  0.00  0.00    -0.084 HD
ATOM     28  H   UNL     1      36.791 -18.845 -21.230  0.00  0.00    -0.084 HD
ENDBRANCH  24  25
ENDBRANCH  21  24
ENDBRANCH   8  18
TORSDOF 3
ENDMDL
MODEL 5
REMARK VINA RESULT:      -9.8      9.577     13.885
REMARK  Name = 9931954
REMARK  3 active torsions:
REMARK  status: ('A' for Active; 'I' for Inactive)
REMARK    1  A    between atoms: C_8  and  C_18
REMARK    2  A    between atoms: C_21  and  C_24
REMARK    3  A    between atoms: C_24  and  N_25
REMARK                            x       y       z     vdW  Elec       q    Type
REMARK                         _______ _______ _______ _____ _____    ______ ____
ROOT
ATOM      1  F   UNL     1      33.525  -5.799 -23.293  0.00  0.00    -0.204 F 
ATOM      2  O   UNL     1      31.645  -7.842 -19.187  0.00  0.00    -0.270 OA
ATOM      3  N   UNL     1      33.924 -10.620 -23.755  0.00  0.00    -0.353 N 
ATOM      4  N   UNL     1      30.985  -9.963 -19.665  0.00  0.00    -0.301 N 
ATOM      5  C   UNL     1      32.742 -11.113 -21.937  0.00  0.00    -0.003 A 
ATOM      6  C   UNL     1      32.816  -9.690 -22.050  0.00  0.00    +0.018 A 
ATOM      7  C   UNL     1      31.998 -11.861 -20.891  0.00  0.00    +0.049 C 
ATOM      8  C   UNL     1      33.445 -11.650 -22.995  0.00  0.00    +0.053 A 
ATOM      9  C   UNL     1      33.546  -9.415 -23.211  0.00  0.00    +0.059 A 
ATOM     10  C   UNL     1      32.327  -8.610 -21.281  0.00  0.00    +0.057 C 
ATOM     11  C   UNL     1      30.723 -11.127 -20.499  0.00  0.00    +0.094 C 
ATOM     12  C   UNL     1      31.627  -8.782 -19.984  0.00  0.00    +0.246 C 
ATOM     13  C   UNL     1      33.802  -8.116 -23.660  0.00  0.00    +0.047 C 
ATOM     14  C   UNL     1      32.584  -7.298 -21.729  0.00  0.00    +0.034 C 
ATOM     15  C   UNL     1      33.302  -7.060 -22.899  0.00  0.00    +0.142 C 
ATOM     16  H   UNL     1      34.460 -10.726 -24.573  0.00  0.00    +0.166 HD
ATOM     17  H   UNL     1      30.657 -10.027 -18.740  0.00  0.00    +0.150 HD
ENDROOT
BRANCH   8  18
ATOM     18  C   UNL     1      33.691 -13.027 -23.360  0.00  0.00    +0.015 C 
ATOM     19  C   UNL     1      34.522 -13.817 -22.568  0.00  0.00    +0.001 C 
ATOM     20  C   UNL     1      33.099 -13.560 -24.504  0.00  0.00    +0.001 C 
ATOM     21  C   UNL     1      34.168 -15.681 -24.065  0.00  0.00    -0.044 C 
ATOM     22  C   UNL     1      34.760 -15.146 -22.920  0.00  0.00    -0.006 C 
ATOM     23  C   UNL     1      33.338 -14.888 -24.855  0.00  0.00    -0.006 C 
BRANCH  21  24
ATOM     24  C   UNL     1      34.422 -17.101 -24.441  0.00  0.00    -0.054 C 
BRANCH  24  25
ATOM     25  N   UNL     1      35.150 -17.816 -23.423  0.00  0.00    +0.385 N 
ATOM     26  C   UNL     1      34.456 -19.041 -23.028  0.00  0.00    -0.105 C 
ATOM     27  H   UNL     1      35.252 -17.215 -22.605  0.00  0.00    -0.084 HD
ATOM     28  H   UNL     1      36.061 -18.072 -23.802  0.00  0.00    -0.084 HD
ENDBRANCH  24  25
ENDBRANCH  21  24
ENDBRANCH   8  18
TORSDOF 3
ENDMDL
MODEL 6
REMARK VINA RESULT:      -9.7     10.774     14.636
REMARK  Name = 9931954
REMARK  3 active torsions:
REMARK  status: ('A' for Active; 'I' for Inactive)
REMARK    1  A    between atoms: C_8  and  C_18
REMARK    2  A    between atoms: C_21  and  C_24
REMARK    3  A    between atoms: C_24  and  N_25
REMARK                            x       y       z     vdW  Elec       q    Type
REMARK                         _______ _______ _______ _____ _____    ______ ____
ROOT
ATOM      1  F   UNL     1      31.899 -14.290 -19.174  0.00  0.00    -0.204 F 
ATOM      2  O   UNL     1      34.968 -14.362 -23.066  0.00  0.00    -0.270 OA
ATOM      3  N   UNL     1      31.874  -9.840 -21.127  0.00  0.00    -0.353 N 
ATOM      4  N   UNL     1      34.364 -12.706 -24.501  0.00  0.00    -0.301 N 
ATOM      5  C   UNL     1      33.070 -10.381 -22.921  0.00  0.00    -0.003 A 
ATOM      6  C   UNL     1      32.928 -11.549 -22.110  0.00  0.00    +0.018 A 
ATOM      7  C   UNL     1      33.755 -10.320 -24.239  0.00  0.00    +0.049 C 
ATOM      8  C   UNL     1      32.420  -9.348 -22.279  0.00  0.00    +0.053 A 
ATOM      9  C   UNL     1      32.157 -11.180 -21.003  0.00  0.00    +0.059 A 
ATOM     10  C   UNL     1      33.376 -12.886 -22.212  0.00  0.00    +0.057 C 
ATOM     11  C   UNL     1      33.553 -11.613 -25.017  0.00  0.00    +0.094 C 
ATOM     12  C   UNL     1      34.279 -13.364 -23.288  0.00  0.00    +0.246 C 
ATOM     13  C   UNL     1      31.790 -12.078 -19.996  0.00  0.00    +0.047 C 
ATOM     14  C   UNL     1      33.010 -13.795 -21.198  0.00  0.00    +0.034 C 
ATOM     15  C   UNL     1      32.227 -13.396 -20.117  0.00  0.00    +0.142 C 
ATOM     16  H   UNL     1      31.354  -9.311 -20.480  0.00  0.00    +0.166 HD
ATOM     17  H   UNL     1      35.075 -13.022 -25.102  0.00  0.00    +0.150 HD
ENDROOT
BRANCH   8  18
ATOM     18  C   UNL     1      32.255  -7.962 -22.653  0.00  0.00    +0.015 C 
ATOM     19  C   UNL     1      31.067  -7.539 -23.247  0.00  0.00    +0.001 C 
ATOM     20  C   UNL     1      33.284  -7.051 -22.418  0.00  0.00    +0.001 C 
ATOM     21  C   UNL     1      31.937  -5.289 -23.373  0.00  0.00    -0.044 C 
ATOM     22  C   UNL     1      30.908  -6.201 -23.607  0.00  0.00    -0.006 C 
ATOM     23  C   UNL     1      33.124  -5.713 -22.779  0.00  0.00    -0.006 C 
BRANCH  21  24
ATOM     24  C   UNL     1      31.767  -3.858 -23.759  0.00  0.00    -0.054 C 
BRANCH  24  25
ATOM     25  N   UNL     1      30.558  -3.286 -23.220  0.00  0.00    +0.385 N 
ATOM     26  C   UNL     1      30.731  -2.882 -21.826  0.00  0.00    -0.105 C 
ATOM     27  H   UNL     1      29.811  -3.978 -23.275  0.00  0.00    -0.084 HD
ATOM     28  H   UNL     1      30.327  -2.457 -23.767  0.00  0.00    -0.084 HD
ENDBRANCH  24  25
ENDBRANCH  21  24
ENDBRANCH   8  18
TORSDOF 3
ENDMDL
MODEL 7
REMARK VINA RESULT:      -9.3      9.254     12.711
REMARK  Name = 9931954
REMARK  3 active torsions:
REMARK  status: ('A' for Active; 'I' for Inactive)
REMARK    1  A    between atoms: C_8  and  C_18
REMARK    2  A    between atoms: C_21  and  C_24
REMARK    3  A    between atoms: C_24  and  N_25
REMARK                            x       y       z     vdW  Elec       q    Type
REMARK                         _______ _______ _______ _____ _____    ______ ____
ROOT
ATOM      1  F   UNL     1      35.639 -17.141 -20.253  0.00  0.00    -0.204 F 
ATOM      2  O   UNL     1      35.356 -16.586 -25.170  0.00  0.00    -0.270 OA
ATOM      3  N   UNL     1      33.714 -12.763 -21.112  0.00  0.00    -0.353 N 
ATOM      4  N   UNL     1      33.733 -15.065 -25.639  0.00  0.00    -0.301 N 
ATOM      5  C   UNL     1      33.492 -13.047 -23.305  0.00  0.00    -0.003 A 
ATOM      6  C   UNL     1      34.085 -14.228 -22.760  0.00  0.00    +0.018 A 
ATOM      7  C   UNL     1      33.122 -12.844 -24.730  0.00  0.00    +0.049 C 
ATOM      8  C   UNL     1      33.290 -12.165 -22.265  0.00  0.00    +0.053 A 
ATOM      9  C   UNL     1      34.192 -14.024 -21.380  0.00  0.00    +0.059 A 
ATOM     10  C   UNL     1      34.535 -15.452 -23.304  0.00  0.00    +0.057 C 
ATOM     11  C   UNL     1      32.640 -14.145 -25.359  0.00  0.00    +0.094 C 
ATOM     12  C   UNL     1      34.561 -15.737 -24.760  0.00  0.00    +0.246 C 
ATOM     13  C   UNL     1      34.709 -14.985 -20.506  0.00  0.00    +0.047 C 
ATOM     14  C   UNL     1      35.059 -16.423 -22.427  0.00  0.00    +0.034 C 
ATOM     15  C   UNL     1      35.137 -16.193 -21.055  0.00  0.00    +0.142 C 
ATOM     16  H   UNL     1      33.682 -12.350 -20.219  0.00  0.00    +0.166 HD
ATOM     17  H   UNL     1      33.907 -15.232 -26.593  0.00  0.00    +0.150 HD
ENDROOT
BRANCH   8  18
ATOM     18  C   UNL     1      32.729 -10.834 -22.255  0.00  0.00    +0.015 C 
ATOM     19  C   UNL     1      31.749 -10.500 -21.321  0.00  0.00    +0.001 C 
ATOM     20  C   UNL     1      33.168  -9.886 -23.178  0.00  0.00    +0.001 C 
ATOM     21  C   UNL     1      31.646  -8.265 -22.235  0.00  0.00    -0.044 C 
ATOM     22  C   UNL     1      31.207  -9.215 -21.311  0.00  0.00    -0.006 C 
ATOM     23  C   UNL     1      32.625  -8.601 -23.168  0.00  0.00    -0.006 C 
BRANCH  21  24
ATOM     24  C   UNL     1      31.067  -6.892 -22.223  0.00  0.00    -0.054 C 
BRANCH  24  25
ATOM     25  N   UNL     1      31.306  -6.206 -20.978  0.00  0.00    +0.385 N 
ATOM     26  C   UNL     1      32.644  -5.618 -20.938  0.00  0.00    -0.105 C 
ATOM     27  H   UNL     1      31.213  -6.872 -20.211  0.00  0.00    -0.084 HD
ATOM     28  H   UNL     1      30.623  -5.454 -20.891  0.00  0.00    -0.084 HD
ENDBRANCH  24  25
ENDBRANCH  21  24
ENDBRANCH   8  18
TORSDOF 3
ENDMDL
MODEL 8
REMARK VINA RESULT:      -9.2      8.212     13.113
REMARK  Name = 9931954
REMARK  3 active torsions:
REMARK  status: ('A' for Active; 'I' for Inactive)
REMARK    1  A    between atoms: C_8  and  C_18
REMARK    2  A    between atoms: C_21  and  C_24
REMARK    3  A    between atoms: C_24  and  N_25
REMARK                            x       y       z     vdW  Elec       q    Type
REMARK                         _______ _______ _______ _____ _____    ______ ____
ROOT
ATOM      1  F   UNL     1      34.016  -7.265 -24.314  0.00  0.00    -0.204 F 
ATOM      2  O   UNL     1      31.486  -8.489 -20.231  0.00  0.00    -0.270 OA
ATOM      3  N   UNL     1      34.596 -12.040 -23.622  0.00  0.00    -0.353 N 
ATOM      4  N   UNL     1      30.967 -10.700 -20.331  0.00  0.00    -0.301 N 
ATOM      5  C   UNL     1      33.123 -12.202 -21.965  0.00  0.00    -0.003 A 
ATOM      6  C   UNL     1      33.184 -10.835 -22.376  0.00  0.00    +0.018 A 
ATOM      7  C   UNL     1      32.223 -12.752 -20.918  0.00  0.00    +0.049 C 
ATOM      8  C   UNL     1      34.013 -12.910 -22.744  0.00  0.00    +0.053 A 
ATOM      9  C   UNL     1      34.102 -10.771 -23.430  0.00  0.00    +0.059 A 
ATOM     10  C   UNL     1      32.544  -9.646 -21.959  0.00  0.00    +0.057 C 
ATOM     11  C   UNL     1      30.882 -12.029 -20.918  0.00  0.00    +0.094 C 
ATOM     12  C   UNL     1      31.630  -9.577 -20.792  0.00  0.00    +0.246 C 
ATOM     13  C   UNL     1      34.405  -9.585 -24.107  0.00  0.00    +0.047 C 
ATOM     14  C   UNL     1      32.847  -8.447 -22.637  0.00  0.00    +0.034 C 
ATOM     15  C   UNL     1      33.755  -8.423 -23.693  0.00  0.00    +0.142 C 
ATOM     16  H   UNL     1      35.270 -12.286 -24.295  0.00  0.00    +0.166 HD
ATOM     17  H   UNL     1      30.482 -10.583 -19.483  0.00  0.00    +0.150 HD
ENDROOT
BRANCH   8  18
ATOM     18  C   UNL     1      34.350 -14.315 -22.748  0.00  0.00    +0.015 C 
ATOM     19  C   UNL     1      34.800 -14.925 -21.579  0.00  0.00    +0.001 C 
ATOM     20  C   UNL     1      34.226 -15.057 -23.922  0.00  0.00    +0.001 C 
ATOM     21  C   UNL     1      35.002 -17.025 -22.757  0.00  0.00    -0.044 C 
ATOM     22  C   UNL     1      35.126 -16.282 -21.583  0.00  0.00    -0.006 C 
ATOM     23  C   UNL     1      34.552 -16.413 -23.926  0.00  0.00    -0.006 C 
BRANCH  21  24
ATOM     24  C   UNL     1      35.350 -18.475 -22.762  0.00  0.00    -0.054 C 
BRANCH  24  25
ATOM     25  N   UNL     1      34.427 -19.263 -21.984  0.00  0.00    +0.385 N 
ATOM     26  C   UNL     1      35.057 -19.789 -20.775  0.00  0.00    -0.105 C 
ATOM     27  H   UNL     1      34.097 -20.043 -22.553  0.00  0.00    -0.084 HD
ATOM     28  H   UNL     1      33.651 -18.663 -21.705  0.00  0.00    -0.084 HD
ENDBRANCH  24  25
ENDBRANCH  21  24
ENDBRANCH   8  18
TORSDOF 3
ENDMDL
MODEL 9
REMARK VINA RESULT:      -9.1     11.245     15.050
REMARK  Name = 9931954
REMARK  3 active torsions:
REMARK  status: ('A' for Active; 'I' for Inactive)
REMARK    1  A    between atoms: C_8  and  C_18
REMARK    2  A    between atoms: C_21  and  C_24
REMARK    3  A    between atoms: C_24  and  N_25
REMARK                            x       y       z     vdW  Elec       q    Type
REMARK                         _______ _______ _______ _____ _____    ______ ____
ROOT
ATOM      1  F   UNL     1      34.411 -14.445 -24.106  0.00  0.00    -0.204 F 
ATOM      2  O   UNL     1      31.681 -13.784 -20.023  0.00  0.00    -0.270 OA
ATOM      3  N   UNL     1      33.230  -9.736 -23.895  0.00  0.00    -0.353 N 
ATOM      4  N   UNL     1      31.843 -11.609 -19.383  0.00  0.00    -0.301 N 
ATOM      5  C   UNL     1      32.329  -9.827 -21.865  0.00  0.00    -0.003 A 
ATOM      6  C   UNL     1      32.766 -11.141 -22.219  0.00  0.00    +0.018 A 
ATOM      7  C   UNL     1      31.718  -9.438 -20.567  0.00  0.00    +0.049 C 
ATOM      8  C   UNL     1      32.619  -8.993 -22.924  0.00  0.00    +0.053 A 
ATOM      9  C   UNL     1      33.344 -11.045 -23.489  0.00  0.00    +0.059 A 
ATOM     10  C   UNL     1      32.733 -12.401 -21.580  0.00  0.00    +0.057 C 
ATOM     11  C   UNL     1      32.324 -10.236 -19.420  0.00  0.00    +0.094 C 
ATOM     12  C   UNL     1      32.059 -12.639 -20.279  0.00  0.00    +0.246 C 
ATOM     13  C   UNL     1      33.910 -12.138 -24.153  0.00  0.00    +0.047 C 
ATOM     14  C   UNL     1      33.299 -13.506 -22.247  0.00  0.00    +0.034 C 
ATOM     15  C   UNL     1      33.881 -13.372 -23.505  0.00  0.00    +0.142 C 
ATOM     16  H   UNL     1      33.543  -9.385 -24.759  0.00  0.00    +0.166 HD
ATOM     17  H   UNL     1      31.283 -11.838 -18.607  0.00  0.00    +0.150 HD
ENDROOT
BRANCH   8  18
ATOM     18  C   UNL     1      32.391  -7.577 -23.099  0.00  0.00    +0.015 C 
ATOM     19  C   UNL     1      31.119  -7.115 -23.433  0.00  0.00    +0.001 C 
ATOM     20  C   UNL     1      33.443  -6.678 -22.932  0.00  0.00    +0.001 C 
ATOM     21  C   UNL     1      31.950  -4.846 -23.435  0.00  0.00    -0.044 C 
ATOM     22  C   UNL     1      30.899  -5.748 -23.602  0.00  0.00    -0.006 C 
ATOM     23  C   UNL     1      33.221  -5.311 -23.101  0.00  0.00    -0.006 C 
BRANCH  21  24
ATOM     24  C   UNL     1      31.714  -3.385 -23.616  0.00  0.00    -0.054 C 
BRANCH  24  25
ATOM     25  N   UNL     1      30.445  -2.964 -23.076  0.00  0.00    +0.385 N 
ATOM     26  C   UNL     1      30.584  -2.457 -21.712  0.00  0.00    -0.105 C 
ATOM     27  H   UNL     1      29.808  -3.760 -23.071  0.00  0.00    -0.084 HD
ATOM     28  H   UNL     1      30.083  -2.212 -23.662  0.00  0.00    -0.084 HD
ENDBRANCH  24  25
ENDBRANCH  21  24
ENDBRANCH   8  18
TORSDOF 3
ENDMDL
