MODEL 1
REMARK VINA RESULT:     -12.4      0.000      0.000
REMARK  Name = 9969613
REMARK  5 active torsions:
REMARK  status: ('A' for Active; 'I' for Inactive)
REMARK    1  A    between atoms: C_3  and  O_7
REMARK    2  A    between atoms: C_4  and  O_17
REMARK    3  A    between atoms: O_7  and  C_13
REMARK    4  A    between atoms: O_17  and  C_21
REMARK    5  A    between atoms: C_18  and  N_24
REMARK                            x       y       z     vdW  Elec       q    Type
REMARK                         _______ _______ _______ _____ _____    ______ ____
ROOT
ATOM      1  N   UNL     1      34.603 -23.170 -16.191  0.00  0.00    -0.283 NA
ATOM      2  N   UNL     1      32.237 -23.204 -16.650  0.00  0.00    -0.151 NA
ATOM      3  C   UNL     1      34.297 -23.076 -14.887  0.00  0.00    +0.296 C 
ATOM      4  C   UNL     1      33.535 -23.229 -17.010  0.00  0.00    +0.260 C 
ATOM      5  C   UNL     1      33.022 -23.041 -14.380  0.00  0.00    +0.094 C 
ATOM      6  C   UNL     1      32.016 -23.109 -15.322  0.00  0.00    +0.119 C 
ENDROOT
BRANCH   3   7
ATOM      7  O   UNL     1      35.363 -23.012 -14.005  0.00  0.00    -0.427 OA
BRANCH   7  13
ATOM      8  O   UNL     1      39.926 -24.568 -14.131  0.00  0.00    -0.435 OA
ATOM      9  O   UNL     1      39.227 -26.870 -14.274  0.00  0.00    -0.435 OA
ATOM     10  C   UNL     1      38.571 -24.698 -14.132  0.00  0.00    +0.179 C 
ATOM     11  C   UNL     1      38.172 -26.013 -14.213  0.00  0.00    +0.177 C 
ATOM     12  C   UNL     1      37.659 -23.666 -14.060  0.00  0.00    +0.078 C 
ATOM     13  C   UNL     1      36.301 -23.997 -14.074  0.00  0.00    +0.151 C 
ATOM     14  C   UNL     1      36.838 -26.367 -14.228  0.00  0.00    +0.043 C 
ATOM     15  C   UNL     1      40.335 -25.947 -14.221  0.00  0.00    +0.429 C 
ATOM     16  C   UNL     1      35.894 -25.339 -14.158  0.00  0.00    +0.041 C 
ENDBRANCH   7  13
ENDBRANCH   3   7
BRANCH   4  17
ATOM     17  O   UNL     1      33.798 -23.326 -18.356  0.00  0.00    -0.383 OA
BRANCH  17  21
ATOM     18  C   UNL     1      34.647 -19.803 -20.380  0.00  0.00    +0.057 C 
ATOM     19  C   UNL     1      33.322 -20.164 -20.133  0.00  0.00    +0.018 C 
ATOM     20  C   UNL     1      35.687 -20.626 -19.946  0.00  0.00    +0.018 C 
ATOM     21  C   UNL     1      34.080 -22.156 -19.028  0.00  0.00    +0.160 C 
ATOM     22  C   UNL     1      33.038 -21.348 -19.453  0.00  0.00    +0.040 C 
ATOM     23  C   UNL     1      35.401 -21.810 -19.266  0.00  0.00    +0.040 C 
BRANCH  18  24
ATOM     24  N   UNL     1      34.930 -18.629 -21.054  0.00  0.00    -0.246 N 
ATOM     25  N   UNL     1      35.500 -16.502 -21.397  0.00  0.00    -0.224 NA
ATOM     26  C   UNL     1      34.903 -18.439 -22.412  0.00  0.00    +0.092 C 
ATOM     27  C   UNL     1      35.296 -17.433 -20.491  0.00  0.00    +0.172 C 
ATOM     28  C   UNL     1      35.256 -17.123 -22.597  0.00  0.00    +0.117 C 
ENDBRANCH  18  24
ENDBRANCH  17  21
ENDBRANCH   4  17
TORSDOF 5
ENDMDL
MODEL 2
REMARK VINA RESULT:     -12.0      2.775      5.576
REMARK  Name = 9969613
REMARK  5 active torsions:
REMARK  status: ('A' for Active; 'I' for Inactive)
REMARK    1  A    between atoms: C_3  and  O_7
REMARK    2  A    between atoms: C_4  and  O_17
REMARK    3  A    between atoms: O_7  and  C_13
REMARK    4  A    between atoms: O_17  and  C_21
REMARK    5  A    between atoms: C_18  and  N_24
REMARK                            x       y       z     vdW  Elec       q    Type
REMARK                         _______ _______ _______ _____ _____    ______ ____
ROOT
ATOM      1  N   UNL     1      33.311 -23.289 -15.993  0.00  0.00    -0.283 NA
ATOM      2  N   UNL     1      35.650 -22.802 -16.313  0.00  0.00    -0.151 NA
ATOM      3  C   UNL     1      33.517 -23.160 -14.672  0.00  0.00    +0.296 C 
ATOM      4  C   UNL     1      34.410 -23.098 -16.748  0.00  0.00    +0.260 C 
ATOM      5  C   UNL     1      34.724 -22.862 -14.092  0.00  0.00    +0.094 C 
ATOM      6  C   UNL     1      35.772 -22.690 -14.973  0.00  0.00    +0.119 C 
ENDROOT
BRANCH   3   7
ATOM      7  O   UNL     1      32.415 -23.348 -13.854  0.00  0.00    -0.427 OA
BRANCH   7  13
ATOM      8  O   UNL     1      28.648 -22.044 -16.568  0.00  0.00    -0.435 OA
ATOM      9  O   UNL     1      27.607 -24.201 -16.311  0.00  0.00    -0.435 OA
ATOM     10  C   UNL     1      29.389 -22.887 -15.799  0.00  0.00    +0.179 C 
ATOM     11  C   UNL     1      28.795 -24.120 -15.653  0.00  0.00    +0.177 C 
ATOM     12  C   UNL     1      30.602 -22.592 -15.211  0.00  0.00    +0.078 C 
ATOM     13  C   UNL     1      31.217 -23.593 -14.454  0.00  0.00    +0.151 C 
ATOM     14  C   UNL     1      29.381 -25.125 -14.910  0.00  0.00    +0.043 C 
ATOM     15  C   UNL     1      27.521 -22.882 -16.889  0.00  0.00    +0.429 C 
ATOM     16  C   UNL     1      30.609 -24.851 -14.303  0.00  0.00    +0.041 C 
ENDBRANCH   7  13
ENDBRANCH   3   7
BRANCH   4  17
ATOM     17  O   UNL     1      34.249 -23.218 -18.109  0.00  0.00    -0.383 OA
BRANCH  17  21
ATOM     18  C   UNL     1      34.769 -19.788 -20.388  0.00  0.00    +0.057 C 
ATOM     19  C   UNL     1      33.485 -20.200 -20.030  0.00  0.00    +0.018 C 
ATOM     20  C   UNL     1      35.878 -20.529 -19.980  0.00  0.00    +0.018 C 
ATOM     21  C   UNL     1      34.422 -22.079 -18.866  0.00  0.00    +0.160 C 
ATOM     22  C   UNL     1      33.311 -21.352 -19.264  0.00  0.00    +0.040 C 
ATOM     23  C   UNL     1      35.703 -21.682 -19.214  0.00  0.00    +0.040 C 
BRANCH  18  24
ATOM     24  N   UNL     1      34.943 -18.646 -21.148  0.00  0.00    -0.246 N 
ATOM     25  N   UNL     1      34.995 -17.310 -22.931  0.00  0.00    -0.224 NA
ATOM     26  C   UNL     1      35.336 -17.413 -20.692  0.00  0.00    +0.092 C 
ATOM     27  C   UNL     1      34.750 -18.527 -22.501  0.00  0.00    +0.172 C 
ATOM     28  C   UNL     1      35.362 -16.610 -21.808  0.00  0.00    +0.117 C 
ENDBRANCH  18  24
ENDBRANCH  17  21
ENDBRANCH   4  17
TORSDOF 5
ENDMDL
MODEL 3
REMARK VINA RESULT:     -12.0      1.076      1.689
REMARK  Name = 9969613
REMARK  5 active torsions:
REMARK  status: ('A' for Active; 'I' for Inactive)
REMARK    1  A    between atoms: C_3  and  O_7
REMARK    2  A    between atoms: C_4  and  O_17
REMARK    3  A    between atoms: O_7  and  C_13
REMARK    4  A    between atoms: O_17  and  C_21
REMARK    5  A    between atoms: C_18  and  N_24
REMARK                            x       y       z     vdW  Elec       q    Type
REMARK                         _______ _______ _______ _____ _____    ______ ____
ROOT
ATOM      1  N   UNL     1      35.379 -22.702 -16.856  0.00  0.00    -0.283 NA
ATOM      2  N   UNL     1      33.315 -22.736 -18.101  0.00  0.00    -0.151 NA
ATOM      3  C   UNL     1      34.656 -22.937 -15.749  0.00  0.00    +0.296 C 
ATOM      4  C   UNL     1      34.652 -22.614 -17.987  0.00  0.00    +0.260 C 
ATOM      5  C   UNL     1      33.291 -23.083 -15.719  0.00  0.00    +0.094 C 
ATOM      6  C   UNL     1      32.663 -22.971 -16.943  0.00  0.00    +0.119 C 
ENDROOT
BRANCH   3   7
ATOM      7  O   UNL     1      35.360 -23.036 -14.561  0.00  0.00    -0.427 OA
BRANCH   7  13
ATOM      8  O   UNL     1      39.931 -24.547 -14.289  0.00  0.00    -0.435 OA
ATOM      9  O   UNL     1      39.252 -26.855 -14.176  0.00  0.00    -0.435 OA
ATOM     10  C   UNL     1      38.579 -24.690 -14.334  0.00  0.00    +0.179 C 
ATOM     11  C   UNL     1      38.190 -26.009 -14.269  0.00  0.00    +0.177 C 
ATOM     12  C   UNL     1      37.659 -23.666 -14.432  0.00  0.00    +0.078 C 
ATOM     13  C   UNL     1      36.305 -24.012 -14.465  0.00  0.00    +0.151 C 
ATOM     14  C   UNL     1      36.860 -26.376 -14.299  0.00  0.00    +0.043 C 
ATOM     15  C   UNL     1      40.351 -25.922 -14.189  0.00  0.00    +0.429 C 
ATOM     16  C   UNL     1      35.909 -25.358 -14.400  0.00  0.00    +0.041 C 
ENDBRANCH   7  13
ENDBRANCH   3   7
BRANCH   4  17
ATOM     17  O   UNL     1      35.349 -22.375 -19.148  0.00  0.00    -0.383 OA
BRANCH  17  21
ATOM     18  C   UNL     1      35.253 -18.506 -20.651  0.00  0.00    +0.057 C 
ATOM     19  C   UNL     1      36.469 -19.080 -20.279  0.00  0.00    +0.018 C 
ATOM     20  C   UNL     1      34.069 -19.232 -20.518  0.00  0.00    +0.018 C 
ATOM     21  C   UNL     1      35.317 -21.090 -19.647  0.00  0.00    +0.160 C 
ATOM     22  C   UNL     1      36.500 -20.380 -19.774  0.00  0.00    +0.040 C 
ATOM     23  C   UNL     1      34.101 -20.532 -20.013  0.00  0.00    +0.040 C 
BRANCH  18  24
ATOM     24  N   UNL     1      35.221 -17.218 -21.151  0.00  0.00    -0.246 N 
ATOM     25  N   UNL     1      35.357 -15.539 -22.611  0.00  0.00    -0.224 NA
ATOM     26  C   UNL     1      34.931 -16.075 -20.450  0.00  0.00    +0.092 C 
ATOM     27  C   UNL     1      35.469 -16.839 -22.446  0.00  0.00    +0.172 C 
ATOM     28  C   UNL     1      35.022 -15.057 -21.371  0.00  0.00    +0.117 C 
ENDBRANCH  18  24
ENDBRANCH  17  21
ENDBRANCH   4  17
TORSDOF 5
ENDMDL
MODEL 4
REMARK VINA RESULT:     -11.8      4.365      8.294
REMARK  Name = 9969613
REMARK  5 active torsions:
REMARK  status: ('A' for Active; 'I' for Inactive)
REMARK    1  A    between atoms: C_3  and  O_7
REMARK    2  A    between atoms: C_4  and  O_17
REMARK    3  A    between atoms: O_7  and  C_13
REMARK    4  A    between atoms: O_17  and  C_21
REMARK    5  A    between atoms: C_18  and  N_24
REMARK                            x       y       z     vdW  Elec       q    Type
REMARK                         _______ _______ _______ _____ _____    ______ ____
ROOT
ATOM      1  N   UNL     1      35.736 -17.379 -22.117  0.00  0.00    -0.283 NA
ATOM      2  N   UNL     1      34.402 -17.120 -24.107  0.00  0.00    -0.151 NA
ATOM      3  C   UNL     1      35.379 -18.673 -22.107  0.00  0.00    +0.296 C 
ATOM      4  C   UNL     1      35.217 -16.667 -23.135  0.00  0.00    +0.260 C 
ATOM      5  C   UNL     1      34.557 -19.268 -23.032  0.00  0.00    +0.094 C 
ATOM      6  C   UNL     1      34.091 -18.431 -24.025  0.00  0.00    +0.119 C 
ENDROOT
BRANCH   3   7
ATOM      7  O   UNL     1      35.888 -19.446 -21.077  0.00  0.00    -0.427 OA
BRANCH   7  13
ATOM      8  O   UNL     1      34.788 -22.838 -17.830  0.00  0.00    -0.435 OA
ATOM      9  O   UNL     1      32.440 -22.310 -17.947  0.00  0.00    -0.435 OA
ATOM     10  C   UNL     1      34.529 -21.830 -18.705  0.00  0.00    +0.179 C 
ATOM     11  C   UNL     1      33.188 -21.527 -18.772  0.00  0.00    +0.177 C 
ATOM     12  C   UNL     1      35.463 -21.154 -19.463  0.00  0.00    +0.078 C 
ATOM     13  C   UNL     1      35.003 -20.141 -20.310  0.00  0.00    +0.151 C 
ATOM     14  C   UNL     1      32.707 -20.532 -19.600  0.00  0.00    +0.043 C 
ATOM     15  C   UNL     1      33.462 -23.138 -17.353  0.00  0.00    +0.429 C 
ATOM     16  C   UNL     1      33.633 -19.834 -20.378  0.00  0.00    +0.041 C 
ENDBRANCH   7  13
ENDBRANCH   3   7
BRANCH   4  17
ATOM     17  O   UNL     1      35.555 -15.335 -23.189  0.00  0.00    -0.383 OA
BRANCH  17  21
ATOM     18  C   UNL     1      32.971 -12.650 -21.360  0.00  0.00    +0.057 C 
ATOM     19  C   UNL     1      33.619 -13.623 -20.599  0.00  0.00    +0.018 C 
ATOM     20  C   UNL     1      33.192 -12.579 -22.736  0.00  0.00    +0.018 C 
ATOM     21  C   UNL     1      34.697 -14.443 -22.582  0.00  0.00    +0.160 C 
ATOM     22  C   UNL     1      34.487 -14.524 -21.214  0.00  0.00    +0.040 C 
ATOM     23  C   UNL     1      34.060 -13.481 -23.350  0.00  0.00    +0.040 C 
BRANCH  18  24
ATOM     24  N   UNL     1      32.110 -11.755 -20.752  0.00  0.00    -0.246 N 
ATOM     25  N   UNL     1      30.393 -10.359 -20.485  0.00  0.00    -0.224 NA
ATOM     26  C   UNL     1      32.188 -11.294 -19.463  0.00  0.00    +0.092 C 
ATOM     27  C   UNL     1      31.012 -11.162 -21.322  0.00  0.00    +0.172 C 
ATOM     28  C   UNL     1      31.121 -10.437 -19.324  0.00  0.00    +0.117 C 
ENDBRANCH  18  24
ENDBRANCH  17  21
ENDBRANCH   4  17
TORSDOF 5
ENDMDL
MODEL 5
REMARK VINA RESULT:     -11.4      0.976      1.845
REMARK  Name = 9969613
REMARK  5 active torsions:
REMARK  status: ('A' for Active; 'I' for Inactive)
REMARK    1  A    between atoms: C_3  and  O_7
REMARK    2  A    between atoms: C_4  and  O_17
REMARK    3  A    between atoms: O_7  and  C_13
REMARK    4  A    between atoms: O_17  and  C_21
REMARK    5  A    between atoms: C_18  and  N_24
REMARK                            x       y       z     vdW  Elec       q    Type
REMARK                         _______ _______ _______ _____ _____    ______ ____
ROOT
ATOM      1  N   UNL     1      34.296 -23.581 -16.379  0.00  0.00    -0.283 NA
ATOM      2  N   UNL     1      32.555 -22.545 -17.686  0.00  0.00    -0.151 NA
ATOM      3  C   UNL     1      33.429 -23.626 -15.354  0.00  0.00    +0.296 C 
ATOM      4  C   UNL     1      33.798 -23.033 -17.504  0.00  0.00    +0.260 C 
ATOM      5  C   UNL     1      32.136 -23.167 -15.399  0.00  0.00    +0.094 C 
ATOM      6  C   UNL     1      31.747 -22.629 -16.608  0.00  0.00    +0.119 C 
ENDROOT
BRANCH   3   7
ATOM      7  O   UNL     1      33.897 -24.181 -14.174  0.00  0.00    -0.427 OA
BRANCH   7  13
ATOM      8  O   UNL     1      38.136 -26.448 -14.552  0.00  0.00    -0.435 OA
ATOM      9  O   UNL     1      39.309 -24.605 -13.536  0.00  0.00    -0.435 OA
ATOM     10  C   UNL     1      37.302 -25.427 -14.216  0.00  0.00    +0.179 C 
ATOM     11  C   UNL     1      37.972 -24.373 -13.637  0.00  0.00    +0.177 C 
ATOM     12  C   UNL     1      35.936 -25.398 -14.413  0.00  0.00    +0.078 C 
ATOM     13  C   UNL     1      35.245 -24.255 -14.001  0.00  0.00    +0.151 C 
ATOM     14  C   UNL     1      37.313 -23.234 -13.221  0.00  0.00    +0.043 C 
ATOM     15  C   UNL     1      39.405 -25.921 -14.118  0.00  0.00    +0.429 C 
ATOM     16  C   UNL     1      35.929 -23.180 -13.408  0.00  0.00    +0.041 C 
ENDBRANCH   7  13
ENDBRANCH   3   7
BRANCH   4  17
ATOM     17  O   UNL     1      34.648 -22.965 -18.583  0.00  0.00    -0.383 OA
BRANCH  17  21
ATOM     18  C   UNL     1      34.968 -19.304 -20.515  0.00  0.00    +0.057 C 
ATOM     19  C   UNL     1      36.117 -19.971 -20.090  0.00  0.00    +0.018 C 
ATOM     20  C   UNL     1      33.711 -19.867 -20.290  0.00  0.00    +0.018 C 
ATOM     21  C   UNL     1      34.754 -21.749 -19.225  0.00  0.00    +0.160 C 
ATOM     22  C   UNL     1      36.009 -21.201 -19.441  0.00  0.00    +0.040 C 
ATOM     23  C   UNL     1      33.604 -21.098 -19.641  0.00  0.00    +0.040 C 
BRANCH  18  24
ATOM     24  N   UNL     1      35.073 -18.085 -21.158  0.00  0.00    -0.246 N 
ATOM     25  N   UNL     1      35.213 -16.603 -22.817  0.00  0.00    -0.224 NA
ATOM     26  C   UNL     1      35.158 -16.852 -20.564  0.00  0.00    +0.092 C 
ATOM     27  C   UNL     1      35.110 -17.878 -22.514  0.00  0.00    +0.172 C 
ATOM     28  C   UNL     1      35.244 -15.958 -21.606  0.00  0.00    +0.117 C 
ENDBRANCH  18  24
ENDBRANCH  17  21
ENDBRANCH   4  17
TORSDOF 5
ENDMDL
MODEL 6
REMARK VINA RESULT:     -11.0      2.778      5.250
REMARK  Name = 9969613
REMARK  5 active torsions:
REMARK  status: ('A' for Active; 'I' for Inactive)
REMARK    1  A    between atoms: C_3  and  O_7
REMARK    2  A    between atoms: C_4  and  O_17
REMARK    3  A    between atoms: O_7  and  C_13
REMARK    4  A    between atoms: O_17  and  C_21
REMARK    5  A    between atoms: C_18  and  N_24
REMARK                            x       y       z     vdW  Elec       q    Type
REMARK                         _______ _______ _______ _____ _____    ______ ____
ROOT
ATOM      1  N   UNL     1      35.118 -22.791 -17.509  0.00  0.00    -0.283 NA
ATOM      2  N   UNL     1      36.816 -21.081 -17.585  0.00  0.00    -0.151 NA
ATOM      3  C   UNL     1      35.349 -22.890 -16.190  0.00  0.00    +0.296 C 
ATOM      4  C   UNL     1      35.880 -21.875 -18.139  0.00  0.00    +0.260 C 
ATOM      5  C   UNL     1      36.270 -22.146 -15.496  0.00  0.00    +0.094 C 
ATOM      6  C   UNL     1      36.986 -21.243 -16.256  0.00  0.00    +0.119 C 
ENDROOT
BRANCH   3   7
ATOM      7  O   UNL     1      34.590 -23.819 -15.499  0.00  0.00    -0.427 OA
BRANCH   7  13
ATOM      8  O   UNL     1      30.066 -22.680 -16.721  0.00  0.00    -0.435 OA
ATOM      9  O   UNL     1      29.403 -22.477 -14.414  0.00  0.00    -0.435 OA
ATOM     10  C   UNL     1      31.093 -22.930 -15.865  0.00  0.00    +0.179 C 
ATOM     11  C   UNL     1      30.715 -22.815 -14.546  0.00  0.00    +0.177 C 
ATOM     12  C   UNL     1      32.383 -23.265 -16.222  0.00  0.00    +0.078 C 
ATOM     13  C   UNL     1      33.305 -23.486 -15.195  0.00  0.00    +0.151 C 
ATOM     14  C   UNL     1      31.605 -23.027 -13.513  0.00  0.00    +0.043 C 
ATOM     15  C   UNL     1      28.999 -22.394 -15.796  0.00  0.00    +0.429 C 
ATOM     16  C   UNL     1      32.918 -23.367 -13.849  0.00  0.00    +0.041 C 
ENDBRANCH   7  13
ENDBRANCH   3   7
BRANCH   4  17
ATOM     17  O   UNL     1      35.679 -21.736 -19.493  0.00  0.00    -0.383 OA
BRANCH  17  21
ATOM     18  C   UNL     1      35.286 -17.874 -20.962  0.00  0.00    +0.057 C 
ATOM     19  C   UNL     1      36.552 -18.392 -20.692  0.00  0.00    +0.018 C 
ATOM     20  C   UNL     1      34.151 -18.654 -20.738  0.00  0.00    +0.018 C 
ATOM     21  C   UNL     1      35.548 -20.454 -19.981  0.00  0.00    +0.160 C 
ATOM     22  C   UNL     1      36.684 -19.690 -20.198  0.00  0.00    +0.040 C 
ATOM     23  C   UNL     1      34.283 -19.952 -20.245  0.00  0.00    +0.040 C 
BRANCH  18  24
ATOM     24  N   UNL     1      35.154 -16.587 -21.451  0.00  0.00    -0.246 N 
ATOM     25  N   UNL     1      35.117 -14.898 -22.905  0.00  0.00    -0.224 NA
ATOM     26  C   UNL     1      34.841 -15.465 -20.727  0.00  0.00    +0.092 C 
ATOM     27  C   UNL     1      35.310 -16.190 -22.755  0.00  0.00    +0.172 C 
ATOM     28  C   UNL     1      34.825 -14.440 -21.644  0.00  0.00    +0.117 C 
ENDBRANCH  18  24
ENDBRANCH  17  21
ENDBRANCH   4  17
TORSDOF 5
ENDMDL
MODEL 7
REMARK VINA RESULT:     -11.0      6.254     12.439
REMARK  Name = 9969613
REMARK  5 active torsions:
REMARK  status: ('A' for Active; 'I' for Inactive)
REMARK    1  A    between atoms: C_3  and  O_7
REMARK    2  A    between atoms: C_4  and  O_17
REMARK    3  A    between atoms: O_7  and  C_13
REMARK    4  A    between atoms: O_17  and  C_21
REMARK    5  A    between atoms: C_18  and  N_24
REMARK                            x       y       z     vdW  Elec       q    Type
REMARK                         _______ _______ _______ _____ _____    ______ ____
ROOT
ATOM      1  N   UNL     1      34.670 -15.326 -22.693  0.00  0.00    -0.283 NA
ATOM      2  N   UNL     1      34.398 -16.156 -24.940  0.00  0.00    -0.151 NA
ATOM      3  C   UNL     1      33.741 -14.400 -22.977  0.00  0.00    +0.296 C 
ATOM      4  C   UNL     1      34.948 -16.165 -23.711  0.00  0.00    +0.260 C 
ATOM      5  C   UNL     1      33.100 -14.275 -24.184  0.00  0.00    +0.094 C 
ATOM      6  C   UNL     1      33.473 -15.193 -25.143  0.00  0.00    +0.119 C 
ENDROOT
BRANCH   3   7
ATOM      7  O   UNL     1      33.422 -13.514 -21.961  0.00  0.00    -0.427 OA
BRANCH   7  13
ATOM      8  O   UNL     1      31.210  -9.253 -21.508  0.00  0.00    -0.435 OA
ATOM      9  O   UNL     1      32.595  -8.256 -23.209  0.00  0.00    -0.435 OA
ATOM     10  C   UNL     1      32.110 -10.134 -22.022  0.00  0.00    +0.179 C 
ATOM     11  C   UNL     1      32.903  -9.565 -22.994  0.00  0.00    +0.177 C 
ATOM     12  C   UNL     1      32.256 -11.454 -21.650  0.00  0.00    +0.078 C 
ATOM     13  C   UNL     1      33.241 -12.206 -22.295  0.00  0.00    +0.151 C 
ATOM     14  C   UNL     1      33.882 -10.285 -23.647  0.00  0.00    +0.043 C 
ATOM     15  C   UNL     1      31.523  -8.066 -22.263  0.00  0.00    +0.429 C 
ATOM     16  C   UNL     1      34.049 -11.625 -23.288  0.00  0.00    +0.041 C 
ENDBRANCH   7  13
ENDBRANCH   3   7
BRANCH   4  17
ATOM     17  O   UNL     1      35.894 -17.133 -23.468  0.00  0.00    -0.383 OA
BRANCH  17  21
ATOM     18  C   UNL     1      35.020 -19.942 -20.539  0.00  0.00    +0.057 C 
ATOM     19  C   UNL     1      36.220 -19.232 -20.488  0.00  0.00    +0.018 C 
ATOM     20  C   UNL     1      34.114 -19.709 -21.574  0.00  0.00    +0.018 C 
ATOM     21  C   UNL     1      35.603 -18.066 -22.495  0.00  0.00    +0.160 C 
ATOM     22  C   UNL     1      36.512 -18.288 -21.473  0.00  0.00    +0.040 C 
ATOM     23  C   UNL     1      34.408 -18.764 -22.558  0.00  0.00    +0.040 C 
BRANCH  18  24
ATOM     24  N   UNL     1      34.729 -20.878 -19.563  0.00  0.00    -0.246 N 
ATOM     25  N   UNL     1      35.046 -22.398 -17.964  0.00  0.00    -0.224 NA
ATOM     26  C   UNL     1      33.480 -21.276 -19.160  0.00  0.00    +0.092 C 
ATOM     27  C   UNL     1      35.635 -21.583 -18.812  0.00  0.00    +0.172 C 
ATOM     28  C   UNL     1      33.703 -22.211 -18.176  0.00  0.00    +0.117 C 
ENDBRANCH  18  24
ENDBRANCH  17  21
ENDBRANCH   4  17
TORSDOF 5
ENDMDL
MODEL 8
REMARK VINA RESULT:     -11.0      3.143      5.459
REMARK  Name = 9969613
REMARK  5 active torsions:
REMARK  status: ('A' for Active; 'I' for Inactive)
REMARK    1  A    between atoms: C_3  and  O_7
REMARK    2  A    between atoms: C_4  and  O_17
REMARK    3  A    between atoms: O_7  and  C_13
REMARK    4  A    between atoms: O_17  and  C_21
REMARK    5  A    between atoms: C_18  and  N_24
REMARK                            x       y       z     vdW  Elec       q    Type
REMARK                         _______ _______ _______ _____ _____    ______ ____
ROOT
ATOM      1  N   UNL     1      35.500 -21.029 -19.438  0.00  0.00    -0.283 NA
ATOM      2  N   UNL     1      33.774 -19.696 -20.464  0.00  0.00    -0.151 NA
ATOM      3  C   UNL     1      34.527 -21.767 -18.879  0.00  0.00    +0.296 C 
ATOM      4  C   UNL     1      35.057 -20.020 -20.211  0.00  0.00    +0.260 C 
ATOM      5  C   UNL     1      33.182 -21.552 -19.050  0.00  0.00    +0.094 C 
ATOM      6  C   UNL     1      32.859 -20.487 -19.865  0.00  0.00    +0.119 C 
ENDROOT
BRANCH   3   7
ATOM      7  O   UNL     1      34.935 -22.818 -18.073  0.00  0.00    -0.427 OA
BRANCH   7  13
ATOM      8  O   UNL     1      31.073 -23.547 -15.278  0.00  0.00    -0.435 OA
ATOM      9  O   UNL     1      32.392 -23.390 -13.268  0.00  0.00    -0.435 OA
ATOM     10  C   UNL     1      32.389 -23.320 -15.540  0.00  0.00    +0.179 C 
ATOM     11  C   UNL     1      33.143 -23.231 -14.392  0.00  0.00    +0.177 C 
ATOM     12  C   UNL     1      32.955 -23.186 -16.791  0.00  0.00    +0.078 C 
ATOM     13  C   UNL     1      34.332 -22.956 -16.860  0.00  0.00    +0.151 C 
ATOM     14  C   UNL     1      34.504 -23.003 -14.432  0.00  0.00    +0.043 C 
ATOM     15  C   UNL     1      31.082 -23.590 -13.838  0.00  0.00    +0.429 C 
ATOM     16  C   UNL     1      35.101 -22.863 -15.688  0.00  0.00    +0.041 C 
ENDBRANCH   7  13
ENDBRANCH   3   7
BRANCH   4  17
ATOM     17  O   UNL     1      36.017 -19.235 -20.807  0.00  0.00    -0.383 OA
BRANCH  17  21
ATOM     18  C   UNL     1      34.750 -15.690 -22.557  0.00  0.00    +0.057 C 
ATOM     19  C   UNL     1      34.984 -16.815 -23.348  0.00  0.00    +0.018 C 
ATOM     20  C   UNL     1      34.942 -15.758 -21.176  0.00  0.00    +0.018 C 
ATOM     21  C   UNL     1      35.596 -18.058 -21.388  0.00  0.00    +0.160 C 
ATOM     22  C   UNL     1      35.409 -18.006 -22.760  0.00  0.00    +0.040 C 
ATOM     23  C   UNL     1      35.368 -16.949 -20.588  0.00  0.00    +0.040 C 
BRANCH  18  24
ATOM     24  N   UNL     1      34.328 -14.510 -23.139  0.00  0.00    -0.246 N 
ATOM     25  N   UNL     1      33.447 -13.118 -24.641  0.00  0.00    -0.224 NA
ATOM     26  C   UNL     1      34.417 -13.253 -22.596  0.00  0.00    +0.092 C 
ATOM     27  C   UNL     1      33.736 -14.372 -24.369  0.00  0.00    +0.172 C 
ATOM     28  C   UNL     1      33.869 -12.416 -23.540  0.00  0.00    +0.117 C 
ENDBRANCH  18  24
ENDBRANCH  17  21
ENDBRANCH   4  17
TORSDOF 5
ENDMDL
MODEL 9
REMARK VINA RESULT:     -10.8      4.732      8.369
REMARK  Name = 9969613
REMARK  5 active torsions:
REMARK  status: ('A' for Active; 'I' for Inactive)
REMARK    1  A    between atoms: C_3  and  O_7
REMARK    2  A    between atoms: C_4  and  O_17
REMARK    3  A    between atoms: O_7  and  C_13
REMARK    4  A    between atoms: O_17  and  C_21
REMARK    5  A    between atoms: C_18  and  N_24
REMARK                            x       y       z     vdW  Elec       q    Type
REMARK                         _______ _______ _______ _____ _____    ______ ____
ROOT
ATOM      1  N   UNL     1      35.541 -17.191 -22.856  0.00  0.00    -0.283 NA
ATOM      2  N   UNL     1      34.086 -17.923 -24.633  0.00  0.00    -0.151 NA
ATOM      3  C   UNL     1      35.522 -18.450 -22.391  0.00  0.00    +0.296 C 
ATOM      4  C   UNL     1      34.808 -16.999 -23.970  0.00  0.00    +0.260 C 
ATOM      5  C   UNL     1      34.831 -19.489 -22.964  0.00  0.00    +0.094 C 
ATOM      6  C   UNL     1      34.120 -19.163 -24.099  0.00  0.00    +0.119 C 
ENDROOT
BRANCH   3   7
ATOM      7  O   UNL     1      36.262 -18.696 -21.246  0.00  0.00    -0.427 OA
BRANCH   7  13
ATOM      8  O   UNL     1      32.770 -21.214 -19.074  0.00  0.00    -0.435 OA
ATOM      9  O   UNL     1      34.368 -22.591 -17.910  0.00  0.00    -0.435 OA
ATOM     10  C   UNL     1      34.054 -20.877 -19.370  0.00  0.00    +0.179 C 
ATOM     11  C   UNL     1      34.968 -21.664 -18.706  0.00  0.00    +0.177 C 
ATOM     12  C   UNL     1      34.451 -19.873 -20.229  0.00  0.00    +0.078 C 
ATOM     13  C   UNL     1      35.823 -19.676 -20.407  0.00  0.00    +0.151 C 
ATOM     14  C   UNL     1      36.328 -21.489 -18.864  0.00  0.00    +0.043 C 
ATOM     15  C   UNL     1      32.976 -22.300 -18.149  0.00  0.00    +0.429 C 
ATOM     16  C   UNL     1      36.755 -20.478 -19.728  0.00  0.00    +0.041 C 
ENDBRANCH   7  13
ENDBRANCH   3   7
BRANCH   4  17
ATOM     17  O   UNL     1      34.797 -15.724 -24.486  0.00  0.00    -0.383 OA
BRANCH  17  21
ATOM     18  C   UNL     1      33.035 -12.762 -22.172  0.00  0.00    +0.057 C 
ATOM     19  C   UNL     1      34.128 -13.475 -21.679  0.00  0.00    +0.018 C 
ATOM     20  C   UNL     1      32.535 -13.044 -23.444  0.00  0.00    +0.018 C 
ATOM     21  C   UNL     1      34.212 -14.740 -23.718  0.00  0.00    +0.160 C 
ATOM     22  C   UNL     1      34.719 -14.470 -22.457  0.00  0.00    +0.040 C 
ATOM     23  C   UNL     1      33.127 -14.040 -24.221  0.00  0.00    +0.040 C 
BRANCH  18  24
ATOM     24  N   UNL     1      32.448 -11.775 -21.402  0.00  0.00    -0.246 N 
ATOM     25  N   UNL     1      31.628  -9.784 -20.827  0.00  0.00    -0.224 NA
ATOM     26  C   UNL     1      31.999 -11.903 -20.113  0.00  0.00    +0.092 C 
ATOM     27  C   UNL     1      32.200 -10.481 -21.784  0.00  0.00    +0.172 C 
ATOM     28  C   UNL     1      31.500 -10.664 -19.782  0.00  0.00    +0.117 C 
ENDBRANCH  18  24
ENDBRANCH  17  21
ENDBRANCH   4  17
TORSDOF 5
ENDMDL
