MODEL 1
REMARK VINA RESULT:     -11.4      0.000      0.000
REMARK  Name = 447653
REMARK  8 active torsions:
REMARK  status: ('A' for Active; 'I' for Inactive)
REMARK    1  A    between atoms: N_2  and  C_20
REMARK    2  A    between atoms: C_4  and  C_11
REMARK    3  A    between atoms: C_19  and  O_25
REMARK    4  A    between atoms: O_25  and  C_26
REMARK    5  A    between atoms: C_26  and  C_27
REMARK    6  A    between atoms: C_27  and  O_28
REMARK    7  A    between atoms: C_27  and  C_30
REMARK    8  A    between atoms: C_30  and  N_31
REMARK                            x       y       z     vdW  Elec       q    Type
REMARK                         _______ _______ _______ _____ _____    ______ ____
ROOT
ATOM      1  N   UNL     1      34.418 -22.856 -16.520  0.00  0.00    -0.340 NA
ATOM      2  N   UNL     1      32.666 -22.102 -17.885  0.00  0.00    -0.247 N 
ATOM      3  N   UNL     1      32.124 -23.355 -15.977  0.00  0.00    -0.170 NA
ATOM      4  C   UNL     1      34.782 -23.536 -15.416  0.00  0.00    +0.148 C 
ATOM      5  C   UNL     1      33.898 -24.144 -14.555  0.00  0.00    +0.052 C 
ATOM      6  C   UNL     1      33.090 -22.805 -16.738  0.00  0.00    +0.148 C 
ATOM      7  C   UNL     1      32.565 -24.020 -14.890  0.00  0.00    +0.114 C 
ATOM      8  H   UNL     1      31.688 -22.090 -18.004  0.00  0.00    +0.165 HD
ENDROOT
BRANCH   4  11
ATOM      9  N   UNL     1      36.865 -24.638 -14.597  0.00  0.00    -0.251 N 
ATOM     10  N   UNL     1      38.424 -23.112 -15.090  0.00  0.00    -0.393 NA
ATOM     11  C   UNL     1      36.208 -23.588 -15.185  0.00  0.00    +0.181 C 
ATOM     12  C   UNL     1      38.215 -24.300 -14.561  0.00  0.00    +0.187 C 
ATOM     13  C   UNL     1      37.185 -22.667 -15.479  0.00  0.00    +0.114 C 
ATOM     14  C   UNL     1      36.358 -25.838 -14.106  0.00  0.00    +0.068 C 
ATOM     15  C   UNL     1      39.106 -25.253 -13.984  0.00  0.00    +0.048 C 
ATOM     16  C   UNL     1      37.044 -21.349 -16.119  0.00  0.00    +0.064 C 
ATOM     17  C   UNL     1      37.203 -26.730 -13.564  0.00  0.00    +0.016 C 
ATOM     18  C   UNL     1      38.621 -26.416 -13.507  0.00  0.00    +0.005 C 
ENDBRANCH   4  11
BRANCH   2  20
ATOM     19  C   UNL     1      34.754 -20.042 -20.892  0.00  0.00    +0.139 C 
ATOM     20  C   UNL     1      33.366 -21.412 -18.893  0.00  0.00    +0.058 C 
ATOM     21  C   UNL     1      35.437 -20.904 -20.034  0.00  0.00    +0.038 C 
ATOM     22  C   UNL     1      33.378 -19.864 -20.751  0.00  0.00    +0.038 C 
ATOM     23  C   UNL     1      34.743 -21.588 -19.035  0.00  0.00    +0.018 C 
ATOM     24  C   UNL     1      32.684 -20.548 -19.753  0.00  0.00    +0.018 C 
BRANCH  19  25
ATOM     25  O   UNL     1      35.431 -19.374 -21.866  0.00  0.00    -0.473 OA
BRANCH  25  26
ATOM     26  C   UNL     1      34.653 -18.643 -22.813  0.00  0.00    +0.232 C 
BRANCH  26  27
ATOM     27  C   UNL     1      35.023 -17.165 -22.719  0.00  0.00    +0.133 C 
BRANCH  27  28
ATOM     28  O   UNL     1      36.399 -17.060 -22.344  0.00  0.00    -0.383 OA
ATOM     29  H   UNL     1      36.892 -16.605 -23.044  0.00  0.00    +0.210 HD
ENDBRANCH  27  28
BRANCH  27  30
ATOM     30  C   UNL     1      34.828 -16.408 -24.034  0.00  0.00    -0.044 C 
BRANCH  30  31
ATOM     31  N   UNL     1      33.885 -15.305 -23.897  0.00  0.00    +0.386 N 
ATOM     32  C   UNL     1      34.461 -14.233 -23.083  0.00  0.00    -0.101 C 
ATOM     33  C   UNL     1      33.497 -14.790 -25.212  0.00  0.00    -0.101 C 
ATOM     34  H   UNL     1      33.052 -15.658 -23.426  0.00  0.00    -0.080 HD
ENDBRANCH  30  31
ENDBRANCH  27  30
ENDBRANCH  26  27
ENDBRANCH  25  26
ENDBRANCH  19  25
ENDBRANCH   2  20
TORSDOF 8
ENDMDL
MODEL 2
REMARK VINA RESULT:     -10.9      1.882      2.142
REMARK  Name = 447653
REMARK  8 active torsions:
REMARK  status: ('A' for Active; 'I' for Inactive)
REMARK    1  A    between atoms: N_2  and  C_20
REMARK    2  A    between atoms: C_4  and  C_11
REMARK    3  A    between atoms: C_19  and  O_25
REMARK    4  A    between atoms: O_25  and  C_26
REMARK    5  A    between atoms: C_26  and  C_27
REMARK    6  A    between atoms: C_27  and  O_28
REMARK    7  A    between atoms: C_27  and  C_30
REMARK    8  A    between atoms: C_30  and  N_31
REMARK                            x       y       z     vdW  Elec       q    Type
REMARK                         _______ _______ _______ _____ _____    ______ ____
ROOT
ATOM      1  N   UNL     1      33.794 -22.994 -15.657  0.00  0.00    -0.340 NA
ATOM      2  N   UNL     1      32.266 -22.646 -17.404  0.00  0.00    -0.247 N 
ATOM      3  N   UNL     1      31.527 -23.797 -15.496  0.00  0.00    -0.170 NA
ATOM      4  C   UNL     1      34.017 -23.509 -14.433  0.00  0.00    +0.148 C 
ATOM      5  C   UNL     1      33.069 -24.171 -13.687  0.00  0.00    +0.052 C 
ATOM      6  C   UNL     1      32.542 -23.172 -16.123  0.00  0.00    +0.148 C 
ATOM      7  C   UNL     1      31.826 -24.286 -14.276  0.00  0.00    +0.114 C 
ATOM      8  H   UNL     1      31.340 -22.798 -17.703  0.00  0.00    +0.165 HD
ENDROOT
BRANCH   4  11
ATOM      9  N   UNL     1      35.761 -23.573 -12.651  0.00  0.00    -0.251 N 
ATOM     10  N   UNL     1      37.568 -22.832 -13.741  0.00  0.00    -0.393 NA
ATOM     11  C   UNL     1      35.361 -23.317 -13.937  0.00  0.00    +0.181 C 
ATOM     12  C   UNL     1      37.116 -23.260 -12.580  0.00  0.00    +0.187 C 
ATOM     13  C   UNL     1      36.486 -22.865 -14.585  0.00  0.00    +0.114 C 
ATOM     14  C   UNL     1      35.023 -24.050 -11.571  0.00  0.00    +0.068 C 
ATOM     15  C   UNL     1      37.759 -23.449 -11.321  0.00  0.00    +0.048 C 
ATOM     16  C   UNL     1      36.633 -22.443 -15.987  0.00  0.00    +0.064 C 
ATOM     17  C   UNL     1      35.636 -24.225 -10.389  0.00  0.00    +0.016 C 
ATOM     18  C   UNL     1      37.051 -23.910 -10.273  0.00  0.00    +0.005 C 
ENDBRANCH   4  11
BRANCH   2  20
ATOM     19  C   UNL     1      34.615 -20.556 -20.188  0.00  0.00    +0.139 C 
ATOM     20  C   UNL     1      33.053 -21.947 -18.337  0.00  0.00    +0.058 C 
ATOM     21  C   UNL     1      35.179 -21.583 -19.430  0.00  0.00    +0.038 C 
ATOM     22  C   UNL     1      33.271 -20.225 -20.021  0.00  0.00    +0.038 C 
ATOM     23  C   UNL     1      34.399 -22.277 -18.505  0.00  0.00    +0.018 C 
ATOM     24  C   UNL     1      32.491 -20.918 -19.096  0.00  0.00    +0.018 C 
BRANCH  19  25
ATOM     25  O   UNL     1      35.377 -19.879 -21.090  0.00  0.00    -0.473 OA
BRANCH  25  26
ATOM     26  C   UNL     1      36.494 -19.152 -20.580  0.00  0.00    +0.232 C 
BRANCH  26  27
ATOM     27  C   UNL     1      36.805 -17.997 -21.527  0.00  0.00    +0.133 C 
BRANCH  27  28
ATOM     28  O   UNL     1      38.097 -18.209 -22.102  0.00  0.00    -0.383 OA
ATOM     29  H   UNL     1      38.301 -17.487 -22.716  0.00  0.00    +0.210 HD
ENDBRANCH  27  28
BRANCH  27  30
ATOM     30  C   UNL     1      35.793 -17.859 -22.667  0.00  0.00    -0.044 C 
BRANCH  30  31
ATOM     31  N   UNL     1      35.655 -16.480 -23.115  0.00  0.00    +0.386 N 
ATOM     32  C   UNL     1      34.834 -16.409 -24.325  0.00  0.00    -0.101 C 
ATOM     33  C   UNL     1      35.072 -15.650 -22.058  0.00  0.00    -0.101 C 
ATOM     34  H   UNL     1      36.585 -16.124 -23.333  0.00  0.00    -0.080 HD
ENDBRANCH  30  31
ENDBRANCH  27  30
ENDBRANCH  26  27
ENDBRANCH  25  26
ENDBRANCH  19  25
ENDBRANCH   2  20
TORSDOF 8
ENDMDL
MODEL 3
REMARK VINA RESULT:     -10.3      3.527     11.874
REMARK  Name = 447653
REMARK  8 active torsions:
REMARK  status: ('A' for Active; 'I' for Inactive)
REMARK    1  A    between atoms: N_2  and  C_20
REMARK    2  A    between atoms: C_4  and  C_11
REMARK    3  A    between atoms: C_19  and  O_25
REMARK    4  A    between atoms: O_25  and  C_26
REMARK    5  A    between atoms: C_26  and  C_27
REMARK    6  A    between atoms: C_27  and  O_28
REMARK    7  A    between atoms: C_27  and  C_30
REMARK    8  A    between atoms: C_30  and  N_31
REMARK                            x       y       z     vdW  Elec       q    Type
REMARK                         _______ _______ _______ _____ _____    ______ ____
ROOT
ATOM      1  N   UNL     1      33.647 -14.178 -23.206  0.00  0.00    -0.340 NA
ATOM      2  N   UNL     1      34.524 -16.100 -24.228  0.00  0.00    -0.247 N 
ATOM      3  N   UNL     1      33.935 -14.286 -25.597  0.00  0.00    -0.170 NA
ATOM      4  C   UNL     1      33.162 -12.932 -23.365  0.00  0.00    +0.148 C 
ATOM      5  C   UNL     1      33.032 -12.300 -24.580  0.00  0.00    +0.052 C 
ATOM      6  C   UNL     1      34.010 -14.791 -24.350  0.00  0.00    +0.148 C 
ATOM      7  C   UNL     1      33.439 -13.035 -25.676  0.00  0.00    +0.114 C 
ATOM      8  H   UNL     1      34.777 -16.507 -25.088  0.00  0.00    +0.165 HD
ENDROOT
BRANCH   4  11
ATOM      9  N   UNL     1      32.504 -10.939 -22.016  0.00  0.00    -0.251 N 
ATOM     10  N   UNL     1      32.217 -11.827 -19.983  0.00  0.00    -0.393 NA
ATOM     11  C   UNL     1      32.773 -12.279 -22.136  0.00  0.00    +0.181 C 
ATOM     12  C   UNL     1      32.170 -10.712 -20.683  0.00  0.00    +0.187 C 
ATOM     13  C   UNL     1      32.589 -12.800 -20.877  0.00  0.00    +0.114 C 
ATOM     14  C   UNL     1      32.535  -9.939 -22.983  0.00  0.00    +0.068 C 
ATOM     15  C   UNL     1      31.847  -9.373 -20.316  0.00  0.00    +0.048 C 
ATOM     16  C   UNL     1      32.743 -14.193 -20.427  0.00  0.00    +0.064 C 
ATOM     17  C   UNL     1      32.230  -8.680 -22.630  0.00  0.00    +0.016 C 
ATOM     18  C   UNL     1      31.875  -8.400 -21.247  0.00  0.00    +0.005 C 
ENDBRANCH   4  11
BRANCH   2  20
ATOM     19  C   UNL     1      35.190 -18.599 -20.919  0.00  0.00    +0.139 C 
ATOM     20  C   UNL     1      34.747 -16.936 -23.119  0.00  0.00    +0.058 C 
ATOM     21  C   UNL     1      35.495 -17.240 -20.840  0.00  0.00    +0.038 C 
ATOM     22  C   UNL     1      34.665 -19.127 -22.098  0.00  0.00    +0.038 C 
ATOM     23  C   UNL     1      35.273 -16.410 -21.938  0.00  0.00    +0.018 C 
ATOM     24  C   UNL     1      34.444 -18.298 -23.197  0.00  0.00    +0.018 C 
BRANCH  19  25
ATOM     25  O   UNL     1      35.406 -19.409 -19.846  0.00  0.00    -0.473 OA
BRANCH  25  26
ATOM     26  C   UNL     1      36.639 -20.126 -19.814  0.00  0.00    +0.232 C 
BRANCH  26  27
ATOM     27  C   UNL     1      36.435 -21.422 -19.033  0.00  0.00    +0.133 C 
BRANCH  27  28
ATOM     28  O   UNL     1      36.467 -21.125 -17.634  0.00  0.00    -0.383 OA
ATOM     29  H   UNL     1      36.980 -21.805 -17.171  0.00  0.00    +0.210 HD
ENDBRANCH  27  28
BRANCH  27  30
ATOM     30  C   UNL     1      35.105 -22.113 -19.343  0.00  0.00    -0.044 C 
BRANCH  30  31
ATOM     31  N   UNL     1      34.067 -21.759 -18.384  0.00  0.00    +0.386 N 
ATOM     32  C   UNL     1      32.938 -21.115 -19.059  0.00  0.00    -0.101 C 
ATOM     33  C   UNL     1      33.612 -22.944 -17.656  0.00  0.00    -0.101 C 
ATOM     34  H   UNL     1      34.465 -21.099 -17.717  0.00  0.00    -0.080 HD
ENDBRANCH  30  31
ENDBRANCH  27  30
ENDBRANCH  26  27
ENDBRANCH  25  26
ENDBRANCH  19  25
ENDBRANCH   2  20
TORSDOF 8
ENDMDL
MODEL 4
REMARK VINA RESULT:      -9.9      1.773      3.973
REMARK  Name = 447653
REMARK  8 active torsions:
REMARK  status: ('A' for Active; 'I' for Inactive)
REMARK    1  A    between atoms: N_2  and  C_20
REMARK    2  A    between atoms: C_4  and  C_11
REMARK    3  A    between atoms: C_19  and  O_25
REMARK    4  A    between atoms: O_25  and  C_26
REMARK    5  A    between atoms: C_26  and  C_27
REMARK    6  A    between atoms: C_27  and  O_28
REMARK    7  A    between atoms: C_27  and  C_30
REMARK    8  A    between atoms: C_30  and  N_31
REMARK                            x       y       z     vdW  Elec       q    Type
REMARK                         _______ _______ _______ _____ _____    ______ ____
ROOT
ATOM      1  N   UNL     1      35.043 -22.173 -17.013  0.00  0.00    -0.340 NA
ATOM      2  N   UNL     1      36.834 -21.220 -18.191  0.00  0.00    -0.247 N 
ATOM      3  N   UNL     1      37.317 -22.490 -16.278  0.00  0.00    -0.170 NA
ATOM      4  C   UNL     1      34.646 -22.922 -15.966  0.00  0.00    +0.148 C 
ATOM      5  C   UNL     1      35.503 -23.482 -15.046  0.00  0.00    +0.052 C 
ATOM      6  C   UNL     1      36.376 -22.000 -17.107  0.00  0.00    +0.148 C 
ATOM      7  C   UNL     1      36.843 -23.229 -15.254  0.00  0.00    +0.114 C 
ATOM      8  H   UNL     1      37.813 -21.120 -18.221  0.00  0.00    +0.165 HD
ENDROOT
BRANCH   4  11
ATOM      9  N   UNL     1      32.583 -23.760 -14.842  0.00  0.00    -0.251 N 
ATOM     10  N   UNL     1      30.980 -23.083 -16.247  0.00  0.00    -0.393 NA
ATOM     11  C   UNL     1      33.216 -23.106 -15.868  0.00  0.00    +0.181 C 
ATOM     12  C   UNL     1      31.219 -23.720 -15.120  0.00  0.00    +0.187 C 
ATOM     13  C   UNL     1      32.212 -22.700 -16.715  0.00  0.00    +0.114 C 
ATOM     14  C   UNL     1      33.122 -24.371 -13.714  0.00  0.00    +0.068 C 
ATOM     15  C   UNL     1      30.349 -24.347 -14.179  0.00  0.00    +0.048 C 
ATOM     16  C   UNL     1      32.321 -21.953 -17.979  0.00  0.00    +0.064 C 
ATOM     17  C   UNL     1      32.296 -24.959 -12.833  0.00  0.00    +0.016 C 
ATOM     18  C   UNL     1      30.864 -24.939 -13.085  0.00  0.00    +0.005 C 
ENDBRANCH   4  11
BRANCH   2  20
ATOM     19  C   UNL     1      34.839 -19.245 -21.315  0.00  0.00    +0.139 C 
ATOM     20  C   UNL     1      36.166 -20.558 -19.239  0.00  0.00    +0.058 C 
ATOM     21  C   UNL     1      36.166 -18.927 -21.024  0.00  0.00    +0.038 C 
ATOM     22  C   UNL     1      34.175 -20.218 -20.569  0.00  0.00    +0.038 C 
ATOM     23  C   UNL     1      36.829 -19.584 -19.986  0.00  0.00    +0.018 C 
ATOM     24  C   UNL     1      34.837 -20.874 -19.531  0.00  0.00    +0.018 C 
BRANCH  19  25
ATOM     25  O   UNL     1      34.193 -18.604 -22.328  0.00  0.00    -0.473 OA
BRANCH  25  26
ATOM     26  C   UNL     1      35.003 -17.955 -23.306  0.00  0.00    +0.232 C 
BRANCH  26  27
ATOM     27  C   UNL     1      34.774 -16.448 -23.216  0.00  0.00    +0.133 C 
BRANCH  27  28
ATOM     28  O   UNL     1      36.000 -15.820 -22.831  0.00  0.00    -0.383 OA
ATOM     29  H   UNL     1      35.809 -14.969 -22.408  0.00  0.00    +0.210 HD
ENDBRANCH  27  28
BRANCH  27  30
ATOM     30  C   UNL     1      34.313 -15.826 -24.536  0.00  0.00    -0.044 C 
BRANCH  30  31
ATOM     31  N   UNL     1      33.247 -14.853 -24.339  0.00  0.00    +0.386 N 
ATOM     32  C   UNL     1      33.446 -14.114 -23.091  0.00  0.00    -0.101 C 
ATOM     33  C   UNL     1      33.179 -13.926 -25.471  0.00  0.00    -0.101 C 
ATOM     34  H   UNL     1      32.364 -15.359 -24.279  0.00  0.00    -0.080 HD
ENDBRANCH  30  31
ENDBRANCH  27  30
ENDBRANCH  26  27
ENDBRANCH  25  26
ENDBRANCH  19  25
ENDBRANCH   2  20
TORSDOF 8
ENDMDL
MODEL 5
REMARK VINA RESULT:      -9.6      6.642     13.817
REMARK  Name = 447653
REMARK  8 active torsions:
REMARK  status: ('A' for Active; 'I' for Inactive)
REMARK    1  A    between atoms: N_2  and  C_20
REMARK    2  A    between atoms: C_4  and  C_11
REMARK    3  A    between atoms: C_19  and  O_25
REMARK    4  A    between atoms: O_25  and  C_26
REMARK    5  A    between atoms: C_26  and  C_27
REMARK    6  A    between atoms: C_27  and  O_28
REMARK    7  A    between atoms: C_27  and  C_30
REMARK    8  A    between atoms: C_30  and  N_31
REMARK                            x       y       z     vdW  Elec       q    Type
REMARK                         _______ _______ _______ _____ _____    ______ ____
ROOT
ATOM      1  N   UNL     1      32.556 -10.406 -21.188  0.00  0.00    -0.340 NA
ATOM      2  N   UNL     1      32.327 -12.567 -20.302  0.00  0.00    -0.247 N 
ATOM      3  N   UNL     1      31.309 -10.787 -19.161  0.00  0.00    -0.170 NA
ATOM      4  C   UNL     1      32.271  -9.096 -21.067  0.00  0.00    +0.148 C 
ATOM      5  C   UNL     1      31.525  -8.558 -20.043  0.00  0.00    +0.052 C 
ATOM      6  C   UNL     1      32.050 -11.186 -20.212  0.00  0.00    +0.148 C 
ATOM      7  C   UNL     1      31.065  -9.461 -19.107  0.00  0.00    +0.114 C 
ATOM      8  H   UNL     1      31.938 -13.097 -19.569  0.00  0.00    +0.165 HD
ENDROOT
BRANCH   4  11
ATOM      9  N   UNL     1      32.546  -6.927 -22.269  0.00  0.00    -0.251 N 
ATOM     10  N   UNL     1      33.944  -7.486 -23.923  0.00  0.00    -0.393 NA
ATOM     11  C   UNL     1      32.815  -8.263 -22.115  0.00  0.00    +0.181 C 
ATOM     12  C   UNL     1      33.257  -6.498 -23.387  0.00  0.00    +0.187 C 
ATOM     13  C   UNL     1      33.675  -8.581 -23.140  0.00  0.00    +0.114 C 
ATOM     14  C   UNL     1      31.734  -6.093 -21.506  0.00  0.00    +0.068 C 
ATOM     15  C   UNL     1      33.130  -5.124 -23.747  0.00  0.00    +0.048 C 
ATOM     16  C   UNL     1      34.286  -9.882 -23.457  0.00  0.00    +0.064 C 
ATOM     17  C   UNL     1      31.619  -4.801 -21.851  0.00  0.00    +0.016 C 
ATOM     18  C   UNL     1      32.346  -4.312 -23.012  0.00  0.00    +0.005 C 
ENDBRANCH   4  11
BRANCH   2  20
ATOM     19  C   UNL     1      34.484 -14.862 -23.080  0.00  0.00    +0.139 C 
ATOM     20  C   UNL     1      33.050 -13.335 -21.234  0.00  0.00    +0.058 C 
ATOM     21  C   UNL     1      33.447 -14.036 -23.514  0.00  0.00    +0.038 C 
ATOM     22  C   UNL     1      34.804 -14.926 -21.725  0.00  0.00    +0.038 C 
ATOM     23  C   UNL     1      32.731 -13.273 -22.591  0.00  0.00    +0.018 C 
ATOM     24  C   UNL     1      34.088 -14.164 -20.802  0.00  0.00    +0.018 C 
BRANCH  19  25
ATOM     25  O   UNL     1      35.183 -15.607 -23.982  0.00  0.00    -0.473 OA
BRANCH  25  26
ATOM     26  C   UNL     1      34.425 -16.335 -24.947  0.00  0.00    +0.232 C 
BRANCH  26  27
ATOM     27  C   UNL     1      33.681 -17.464 -24.240  0.00  0.00    +0.133 C 
BRANCH  27  28
ATOM     28  O   UNL     1      32.756 -18.051 -25.160  0.00  0.00    -0.383 OA
ATOM     29  H   UNL     1      32.054 -18.505 -24.668  0.00  0.00    +0.210 HD
ENDBRANCH  27  28
BRANCH  27  30
ATOM     30  C   UNL     1      34.606 -18.569 -23.724  0.00  0.00    -0.044 C 
BRANCH  30  31
ATOM     31  N   UNL     1      34.938 -18.393 -22.316  0.00  0.00    +0.386 N 
ATOM     32  C   UNL     1      34.427 -19.512 -21.522  0.00  0.00    -0.101 C 
ATOM     33  C   UNL     1      36.385 -18.264 -22.138  0.00  0.00    -0.101 C 
ATOM     34  H   UNL     1      34.492 -17.535 -21.991  0.00  0.00    -0.080 HD
ENDBRANCH  30  31
ENDBRANCH  27  30
ENDBRANCH  26  27
ENDBRANCH  25  26
ENDBRANCH  19  25
ENDBRANCH   2  20
TORSDOF 8
ENDMDL
MODEL 6
REMARK VINA RESULT:      -9.5      1.535      4.274
REMARK  Name = 447653
REMARK  8 active torsions:
REMARK  status: ('A' for Active; 'I' for Inactive)
REMARK    1  A    between atoms: N_2  and  C_20
REMARK    2  A    between atoms: C_4  and  C_11
REMARK    3  A    between atoms: C_19  and  O_25
REMARK    4  A    between atoms: O_25  and  C_26
REMARK    5  A    between atoms: C_26  and  C_27
REMARK    6  A    between atoms: C_27  and  O_28
REMARK    7  A    between atoms: C_27  and  C_30
REMARK    8  A    between atoms: C_30  and  N_31
REMARK                            x       y       z     vdW  Elec       q    Type
REMARK                         _______ _______ _______ _____ _____    ______ ____
ROOT
ATOM      1  N   UNL     1      35.895 -22.801 -15.641  0.00  0.00    -0.340 NA
ATOM      2  N   UNL     1      37.429 -22.090 -17.268  0.00  0.00    -0.247 N 
ATOM      3  N   UNL     1      38.252 -23.239 -15.394  0.00  0.00    -0.170 NA
ATOM      4  C   UNL     1      35.699 -23.431 -14.466  0.00  0.00    +0.148 C 
ATOM      5  C   UNL     1      36.705 -23.982 -13.707  0.00  0.00    +0.052 C 
ATOM      6  C   UNL     1      37.180 -22.742 -16.041  0.00  0.00    +0.148 C 
ATOM      7  C   UNL     1      37.977 -23.854 -14.226  0.00  0.00    +0.114 C 
ATOM      8  H   UNL     1      38.380 -22.071 -17.520  0.00  0.00    +0.165 HD
ENDROOT
BRANCH   4  11
ATOM      9  N   UNL     1      33.240 -23.296 -14.864  0.00  0.00    -0.251 N 
ATOM     10  N   UNL     1      32.415 -23.709 -12.827  0.00  0.00    -0.393 NA
ATOM     11  C   UNL     1      34.319 -23.492 -14.041  0.00  0.00    +0.181 C 
ATOM     12  C   UNL     1      32.100 -23.439 -14.077  0.00  0.00    +0.187 C 
ATOM     13  C   UNL     1      33.787 -23.744 -12.799  0.00  0.00    +0.114 C 
ATOM     14  C   UNL     1      33.204 -23.008 -16.226  0.00  0.00    +0.068 C 
ATOM     15  C   UNL     1      30.841 -23.275 -14.725  0.00  0.00    +0.048 C 
ATOM     16  C   UNL     1      34.491 -24.024 -11.537  0.00  0.00    +0.064 C 
ATOM     17  C   UNL     1      32.015 -22.856 -16.829  0.00  0.00    +0.016 C 
ATOM     18  C   UNL     1      30.800 -22.997 -16.042  0.00  0.00    +0.005 C 
ENDBRANCH   4  11
BRANCH   2  20
ATOM     19  C   UNL     1      34.909 -20.215 -20.056  0.00  0.00    +0.139 C 
ATOM     20  C   UNL     1      36.584 -21.462 -18.202  0.00  0.00    +0.058 C 
ATOM     21  C   UNL     1      34.425 -21.264 -19.274  0.00  0.00    +0.038 C 
ATOM     22  C   UNL     1      36.229 -19.790 -19.913  0.00  0.00    +0.038 C 
ATOM     23  C   UNL     1      35.262 -21.886 -18.347  0.00  0.00    +0.018 C 
ATOM     24  C   UNL     1      37.066 -20.413 -18.987  0.00  0.00    +0.018 C 
BRANCH  19  25
ATOM     25  O   UNL     1      34.092 -19.608 -20.961  0.00  0.00    -0.473 OA
BRANCH  25  26
ATOM     26  C   UNL     1      34.593 -19.455 -22.287  0.00  0.00    +0.232 C 
BRANCH  26  27
ATOM     27  C   UNL     1      34.945 -17.987 -22.515  0.00  0.00    +0.133 C 
BRANCH  27  28
ATOM     28  O   UNL     1      36.368 -17.861 -22.576  0.00  0.00    -0.383 OA
ATOM     29  H   UNL     1      36.768 -18.325 -21.824  0.00  0.00    +0.210 HD
ENDBRANCH  27  28
BRANCH  27  30
ATOM     30  C   UNL     1      34.360 -17.417 -23.809  0.00  0.00    -0.044 C 
BRANCH  30  31
ATOM     31  N   UNL     1      34.754 -16.031 -24.025  0.00  0.00    +0.386 N 
ATOM     32  C   UNL     1      34.048 -15.467 -25.177  0.00  0.00    -0.101 C 
ATOM     33  C   UNL     1      34.494 -15.228 -22.828  0.00  0.00    -0.101 C 
ATOM     34  H   UNL     1      35.755 -16.014 -24.217  0.00  0.00    -0.080 HD
ENDBRANCH  30  31
ENDBRANCH  27  30
ENDBRANCH  26  27
ENDBRANCH  25  26
ENDBRANCH  19  25
ENDBRANCH   2  20
TORSDOF 8
ENDMDL
MODEL 7
REMARK VINA RESULT:      -9.3      7.433     12.051
REMARK  Name = 447653
REMARK  8 active torsions:
REMARK  status: ('A' for Active; 'I' for Inactive)
REMARK    1  A    between atoms: N_2  and  C_20
REMARK    2  A    between atoms: C_4  and  C_11
REMARK    3  A    between atoms: C_19  and  O_25
REMARK    4  A    between atoms: O_25  and  C_26
REMARK    5  A    between atoms: C_26  and  C_27
REMARK    6  A    between atoms: C_27  and  O_28
REMARK    7  A    between atoms: C_27  and  C_30
REMARK    8  A    between atoms: C_30  and  N_31
REMARK                            x       y       z     vdW  Elec       q    Type
REMARK                         _______ _______ _______ _____ _____    ______ ____
ROOT
ATOM      1  N   UNL     1      33.825 -13.115 -23.447  0.00  0.00    -0.340 NA
ATOM      2  N   UNL     1      33.236 -11.173 -24.624  0.00  0.00    -0.247 N 
ATOM      3  N   UNL     1      33.467 -13.173 -25.830  0.00  0.00    -0.170 NA
ATOM      4  C   UNL     1      34.093 -14.434 -23.499  0.00  0.00    +0.148 C 
ATOM      5  C   UNL     1      34.070 -15.184 -24.653  0.00  0.00    +0.052 C 
ATOM      6  C   UNL     1      33.523 -12.555 -24.635  0.00  0.00    +0.148 C 
ATOM      7  C   UNL     1      33.747 -14.492 -25.802  0.00  0.00    +0.114 C 
ATOM      8  H   UNL     1      33.021 -10.807 -25.512  0.00  0.00    +0.165 HD
ENDROOT
BRANCH   4  11
ATOM      9  N   UNL     1      35.010 -16.257 -22.064  0.00  0.00    -0.251 N 
ATOM     10  N   UNL     1      34.678 -15.443 -20.008  0.00  0.00    -0.393 NA
ATOM     11  C   UNL     1      34.416 -15.031 -22.223  0.00  0.00    +0.181 C 
ATOM     12  C   UNL     1      35.148 -16.464 -20.694  0.00  0.00    +0.187 C 
ATOM     13  C   UNL     1      34.224 -14.553 -20.949  0.00  0.00    +0.114 C 
ATOM     14  C   UNL     1      35.423 -17.174 -23.028  0.00  0.00    +0.068 C 
ATOM     15  C   UNL     1      35.749 -17.691 -20.282  0.00  0.00    +0.048 C 
ATOM     16  C   UNL     1      33.623 -13.278 -20.526  0.00  0.00    +0.064 C 
ATOM     17  C   UNL     1      35.987 -18.326 -22.632  0.00  0.00    +0.016 C 
ATOM     18  C   UNL     1      36.150 -18.581 -21.209  0.00  0.00    +0.005 C 
ENDBRANCH   4  11
BRANCH   2  20
ATOM     19  C   UNL     1      33.117  -8.318 -21.546  0.00  0.00    +0.139 C 
ATOM     20  C   UNL     1      33.197 -10.215 -23.593  0.00  0.00    +0.058 C 
ATOM     21  C   UNL     1      34.005  -8.160 -22.610  0.00  0.00    +0.038 C 
ATOM     22  C   UNL     1      32.270  -9.424 -21.504  0.00  0.00    +0.038 C 
ATOM     23  C   UNL     1      34.044  -9.108 -23.633  0.00  0.00    +0.018 C 
ATOM     24  C   UNL     1      32.309 -10.373 -22.526  0.00  0.00    +0.018 C 
BRANCH  19  25
ATOM     25  O   UNL     1      33.080  -7.392 -20.548  0.00  0.00    -0.473 OA
BRANCH  25  26
ATOM     26  C   UNL     1      31.821  -6.776 -20.283  0.00  0.00    +0.232 C 
BRANCH  26  27
ATOM     27  C   UNL     1      31.498  -5.806 -21.417  0.00  0.00    +0.133 C 
BRANCH  27  28
ATOM     28  O   UNL     1      30.088  -5.566 -21.428  0.00  0.00    -0.383 OA
ATOM     29  H   UNL     1      29.917  -4.654 -21.708  0.00  0.00    +0.210 HD
ENDBRANCH  27  28
BRANCH  27  30
ATOM     30  C   UNL     1      32.210  -4.458 -21.283  0.00  0.00    -0.044 C 
BRANCH  30  31
ATOM     31  N   UNL     1      31.626  -3.441 -22.147  0.00  0.00    +0.386 N 
ATOM     32  C   UNL     1      31.826  -2.106 -21.581  0.00  0.00    -0.101 C 
ATOM     33  C   UNL     1      32.201  -3.513 -23.492  0.00  0.00    -0.101 C 
ATOM     34  H   UNL     1      30.624  -3.619 -22.212  0.00  0.00    -0.080 HD
ENDBRANCH  30  31
ENDBRANCH  27  30
ENDBRANCH  26  27
ENDBRANCH  25  26
ENDBRANCH  19  25
ENDBRANCH   2  20
TORSDOF 8
ENDMDL
MODEL 8
REMARK VINA RESULT:      -9.2      3.285     11.956
REMARK  Name = 447653
REMARK  8 active torsions:
REMARK  status: ('A' for Active; 'I' for Inactive)
REMARK    1  A    between atoms: N_2  and  C_20
REMARK    2  A    between atoms: C_4  and  C_11
REMARK    3  A    between atoms: C_19  and  O_25
REMARK    4  A    between atoms: O_25  and  C_26
REMARK    5  A    between atoms: C_26  and  C_27
REMARK    6  A    between atoms: C_27  and  O_28
REMARK    7  A    between atoms: C_27  and  C_30
REMARK    8  A    between atoms: C_30  and  N_31
REMARK                            x       y       z     vdW  Elec       q    Type
REMARK                         _______ _______ _______ _____ _____    ______ ____
ROOT
ATOM      1  N   UNL     1      33.484 -13.532 -23.576  0.00  0.00    -0.340 NA
ATOM      2  N   UNL     1      34.164 -14.995 -25.279  0.00  0.00    -0.247 N 
ATOM      3  N   UNL     1      33.733 -12.759 -25.845  0.00  0.00    -0.170 NA
ATOM      4  C   UNL     1      33.116 -12.281 -23.236  0.00  0.00    +0.148 C 
ATOM      5  C   UNL     1      33.033 -11.232 -24.122  0.00  0.00    +0.052 C 
ATOM      6  C   UNL     1      33.775 -13.698 -24.881  0.00  0.00    +0.148 C 
ATOM      7  C   UNL     1      33.356 -11.533 -25.429  0.00  0.00    +0.114 C 
ATOM      8  H   UNL     1      34.368 -15.070 -26.240  0.00  0.00    +0.165 HD
ENDROOT
BRANCH   4  11
ATOM      9  N   UNL     1      32.327 -10.947 -21.282  0.00  0.00    -0.251 N 
ATOM     10  N   UNL     1      32.504 -12.422 -19.610  0.00  0.00    -0.393 NA
ATOM     11  C   UNL     1      32.806 -12.107 -21.836  0.00  0.00    +0.181 C 
ATOM     12  C   UNL     1      32.159 -11.189 -19.921  0.00  0.00    +0.187 C 
ATOM     13  C   UNL     1      32.904 -12.995 -20.791  0.00  0.00    +0.114 C 
ATOM     14  C   UNL     1      32.040  -9.728 -21.889  0.00  0.00    +0.068 C 
ATOM     15  C   UNL     1      31.665 -10.111 -19.128  0.00  0.00    +0.048 C 
ATOM     16  C   UNL     1      33.364 -14.393 -20.812  0.00  0.00    +0.064 C 
ATOM     17  C   UNL     1      31.575  -8.718 -21.136  0.00  0.00    +0.016 C 
ATOM     18  C   UNL     1      31.385  -8.929 -19.709  0.00  0.00    +0.005 C 
ENDBRANCH   4  11
BRANCH   2  20
ATOM     19  C   UNL     1      34.631 -18.596 -23.168  0.00  0.00    +0.139 C 
ATOM     20  C   UNL     1      34.321 -16.202 -24.572  0.00  0.00    +0.058 C 
ATOM     21  C   UNL     1      33.760 -18.533 -24.256  0.00  0.00    +0.038 C 
ATOM     22  C   UNL     1      35.346 -17.463 -22.781  0.00  0.00    +0.038 C 
ATOM     23  C   UNL     1      33.605 -17.337 -24.957  0.00  0.00    +0.018 C 
ATOM     24  C   UNL     1      35.191 -16.267 -23.482  0.00  0.00    +0.018 C 
BRANCH  19  25
ATOM     25  O   UNL     1      34.782 -19.764 -22.484  0.00  0.00    -0.473 OA
BRANCH  25  26
ATOM     26  C   UNL     1      34.140 -19.858 -21.213  0.00  0.00    +0.232 C 
BRANCH  26  27
ATOM     27  C   UNL     1      35.105 -20.500 -20.220  0.00  0.00    +0.133 C 
BRANCH  27  28
ATOM     28  O   UNL     1      36.100 -19.538 -19.860  0.00  0.00    -0.383 OA
ATOM     29  H   UNL     1      35.699 -18.847 -19.310  0.00  0.00    +0.210 HD
ENDBRANCH  27  28
BRANCH  27  30
ATOM     30  C   UNL     1      34.423 -20.984 -18.938  0.00  0.00    -0.044 C 
BRANCH  30  31
ATOM     31  N   UNL     1      35.100 -22.136 -18.359  0.00  0.00    +0.386 N 
ATOM     32  C   UNL     1      36.367 -21.735 -17.744  0.00  0.00    -0.101 C 
ATOM     33  C   UNL     1      34.243 -22.795 -17.370  0.00  0.00    -0.101 C 
ATOM     34  H   UNL     1      35.298 -22.797 -19.109  0.00  0.00    -0.080 HD
ENDBRANCH  30  31
ENDBRANCH  27  30
ENDBRANCH  26  27
ENDBRANCH  25  26
ENDBRANCH  19  25
ENDBRANCH   2  20
TORSDOF 8
ENDMDL
MODEL 9
REMARK VINA RESULT:      -9.1      1.947      2.767
REMARK  Name = 447653
REMARK  8 active torsions:
REMARK  status: ('A' for Active; 'I' for Inactive)
REMARK    1  A    between atoms: N_2  and  C_20
REMARK    2  A    between atoms: C_4  and  C_11
REMARK    3  A    between atoms: C_19  and  O_25
REMARK    4  A    between atoms: O_25  and  C_26
REMARK    5  A    between atoms: C_26  and  C_27
REMARK    6  A    between atoms: C_27  and  O_28
REMARK    7  A    between atoms: C_27  and  C_30
REMARK    8  A    between atoms: C_30  and  N_31
REMARK                            x       y       z     vdW  Elec       q    Type
REMARK                         _______ _______ _______ _____ _____    ______ ____
ROOT
ATOM      1  N   UNL     1      33.880 -23.825 -14.663  0.00  0.00    -0.340 NA
ATOM      2  N   UNL     1      32.343 -23.085 -16.273  0.00  0.00    -0.247 N 
ATOM      3  N   UNL     1      31.511 -24.142 -14.350  0.00  0.00    -0.170 NA
ATOM      4  C   UNL     1      34.074 -24.431 -13.476  0.00  0.00    +0.148 C 
ATOM      5  C   UNL     1      33.062 -24.912 -12.678  0.00  0.00    +0.052 C 
ATOM      6  C   UNL     1      32.590 -23.715 -15.034  0.00  0.00    +0.148 C 
ATOM      7  C   UNL     1      31.785 -24.738 -13.172  0.00  0.00    +0.114 C 
ATOM      8  H   UNL     1      31.387 -23.026 -16.504  0.00  0.00    +0.165 HD
ENDROOT
BRANCH   4  11
ATOM      9  N   UNL     1      36.378 -25.364 -13.688  0.00  0.00    -0.251 N 
ATOM     10  N   UNL     1      37.461 -24.312 -12.039  0.00  0.00    -0.393 NA
ATOM     11  C   UNL     1      35.460 -24.547 -13.081  0.00  0.00    +0.181 C 
ATOM     12  C   UNL     1      37.584 -25.186 -13.016  0.00  0.00    +0.187 C 
ATOM     13  C   UNL     1      36.148 -23.913 -12.074  0.00  0.00    +0.114 C 
ATOM     14  C   UNL     1      36.217 -26.230 -14.766  0.00  0.00    +0.068 C 
ATOM     15  C   UNL     1      38.701 -25.944 -13.478  0.00  0.00    +0.048 C 
ATOM     16  C   UNL     1      35.653 -22.924 -11.103  0.00  0.00    +0.064 C 
ATOM     17  C   UNL     1      37.273 -26.941 -15.195  0.00  0.00    +0.016 C 
ATOM     18  C   UNL     1      38.552 -26.784 -14.520  0.00  0.00    +0.005 C 
ENDBRANCH   4  11
BRANCH   2  20
ATOM     19  C   UNL     1      34.880 -21.409 -19.170  0.00  0.00    +0.139 C 
ATOM     20  C   UNL     1      33.194 -22.524 -17.244  0.00  0.00    +0.058 C 
ATOM     21  C   UNL     1      35.421 -22.076 -18.070  0.00  0.00    +0.038 C 
ATOM     22  C   UNL     1      33.497 -21.299 -19.307  0.00  0.00    +0.038 C 
ATOM     23  C   UNL     1      34.578 -22.633 -17.108  0.00  0.00    +0.018 C 
ATOM     24  C   UNL     1      32.654 -21.855 -18.345  0.00  0.00    +0.018 C 
BRANCH  19  25
ATOM     25  O   UNL     1      35.703 -20.866 -20.108  0.00  0.00    -0.473 OA
BRANCH  25  26
ATOM     26  C   UNL     1      36.833 -20.134 -19.635  0.00  0.00    +0.232 C 
BRANCH  26  27
ATOM     27  C   UNL     1      36.801 -18.732 -20.239  0.00  0.00    +0.133 C 
BRANCH  27  28
ATOM     28  O   UNL     1      37.850 -18.625 -21.205  0.00  0.00    -0.383 OA
ATOM     29  H   UNL     1      37.472 -18.413 -22.072  0.00  0.00    +0.210 HD
ENDBRANCH  27  28
BRANCH  27  30
ATOM     30  C   UNL     1      35.478 -18.403 -20.934  0.00  0.00    -0.044 C 
BRANCH  30  31
ATOM     31  N   UNL     1      35.619 -18.346 -22.383  0.00  0.00    +0.386 N 
ATOM     32  C   UNL     1      34.822 -19.395 -23.021  0.00  0.00    -0.101 C 
ATOM     33  C   UNL     1      35.224 -17.030 -22.889  0.00  0.00    -0.101 C 
ATOM     34  H   UNL     1      36.601 -18.501 -22.611  0.00  0.00    -0.080 HD
ENDBRANCH  30  31
ENDBRANCH  27  30
ENDBRANCH  26  27
ENDBRANCH  25  26
ENDBRANCH  19  25
ENDBRANCH   2  20
TORSDOF 8
ENDMDL
