MODEL 1
REMARK VINA RESULT:     -11.8      0.000      0.000
REMARK  Name = 42628060
REMARK  6 active torsions:
REMARK  status: ('A' for Active; 'I' for Inactive)
REMARK    1  A    between atoms: N_2  and  C_6
REMARK    2  A    between atoms: C_3  and  C_19
REMARK    3  A    between atoms: C_9  and  N_13
REMARK    4  A    between atoms: C_19  and  N_20
REMARK    5  A    between atoms: C_21  and  N_27
REMARK    6  A    between atoms: C_28  and  C_32
REMARK                            x       y       z     vdW  Elec       q    Type
REMARK                         _______ _______ _______ _____ _____    ______ ____
ROOT
ATOM      1  O   UNL     1      32.526 -13.736 -22.892  0.00  0.00    -0.277 OA
ATOM      2  N   UNL     1      34.506 -14.649 -23.764  0.00  0.00    -0.284 N 
ATOM      3  C   UNL     1      33.469 -13.722 -23.676  0.00  0.00    +0.205 C 
ATOM      4  H   UNL     1      35.180 -14.482 -24.460  0.00  0.00    +0.155 HD
ENDROOT
BRANCH   2   6
ATOM      5  F   UNL     1      34.365 -17.210 -24.850  0.00  0.00    -0.203 F 
ATOM      6  C   UNL     1      34.702 -15.801 -22.968  0.00  0.00    +0.078 C 
ATOM      7  C   UNL     1      34.624 -17.070 -23.542  0.00  0.00    +0.155 C 
ATOM      8  C   UNL     1      34.971 -15.668 -21.605  0.00  0.00    +0.018 C 
ATOM      9  C   UNL     1      35.086 -18.072 -21.393  0.00  0.00    +0.061 C 
ATOM     10  C   UNL     1      34.817 -18.206 -22.754  0.00  0.00    +0.046 C 
ATOM     11  C   UNL     1      35.164 -16.804 -20.817  0.00  0.00    +0.017 C 
BRANCH   9  13
ATOM     12  O   UNL     1      37.630 -18.976 -20.355  0.00  0.00    -0.269 OA
ATOM     13  N   UNL     1      35.285 -19.252 -20.573  0.00  0.00    -0.233 N 
ATOM     14  C   UNL     1      36.594 -19.612 -20.160  0.00  0.00    +0.257 C 
ATOM     15  C   UNL     1      34.195 -20.027 -20.170  0.00  0.00    +0.072 C 
ATOM     16  C   UNL     1      36.716 -20.868 -19.356  0.00  0.00    +0.059 C 
ATOM     17  C   UNL     1      34.328 -21.128 -19.423  0.00  0.00    +0.017 C 
ATOM     18  C   UNL     1      35.629 -21.562 -19.011  0.00  0.00    +0.006 C 
ENDBRANCH   9  13
ENDBRANCH   2   6
BRANCH   3  19
ATOM     19  C   UNL     1      33.645 -12.636 -24.724  0.00  0.00    +0.010 C 
BRANCH  19  20
ATOM     20  N   UNL     1      34.296 -11.482 -24.120  0.00  0.00    +0.394 N 
ATOM     21  C   UNL     1      34.172  -9.338 -23.214  0.00  0.00    +0.049 C 
ATOM     22  C   UNL     1      35.197  -9.332 -24.352  0.00  0.00    -0.005 C 
ATOM     23  C   UNL     1      33.347 -10.601 -23.437  0.00  0.00    -0.057 C 
ATOM     24  C   UNL     1      34.952 -10.630 -25.112  0.00  0.00    -0.075 C 
ATOM     25  H   UNL     1      34.967 -11.889 -23.470  0.00  0.00    -0.079 HD
BRANCH  21  27
ATOM     26  O   UNL     1      33.124  -8.030 -20.883  0.00  0.00    -0.270 OA
ATOM     27  N   UNL     1      33.360  -8.153 -23.187  0.00  0.00    -0.304 N 
ATOM     28  C   UNL     1      32.895  -7.588 -22.006  0.00  0.00    +0.252 C 
ATOM     29  H   UNL     1      33.123  -7.724 -24.042  0.00  0.00    +0.150 HD
BRANCH  28  32
ATOM     30 CL   UNL     1      30.562  -2.969 -23.960  0.00  0.00    -0.075 Cl
ATOM     31  S   UNL     1      32.206  -5.406 -23.551  0.00  0.00    -0.071 S 
ATOM     32  C   UNL     1      32.044  -6.378 -22.150  0.00  0.00    +0.084 C 
ATOM     33  C   UNL     1      31.090  -5.886 -21.287  0.00  0.00    +0.012 C 
ATOM     34  C   UNL     1      30.484  -4.695 -21.783  0.00  0.00    +0.019 C 
ATOM     35  C   UNL     1      30.998  -4.323 -23.005  0.00  0.00    +0.087 C 
ENDBRANCH  28  32
ENDBRANCH  21  27
ENDBRANCH  19  20
ENDBRANCH   3  19
TORSDOF 6
ENDMDL
MODEL 2
REMARK VINA RESULT:     -11.4      7.330     13.738
REMARK  Name = 42628060
REMARK  6 active torsions:
REMARK  status: ('A' for Active; 'I' for Inactive)
REMARK    1  A    between atoms: N_2  and  C_6
REMARK    2  A    between atoms: C_3  and  C_19
REMARK    3  A    between atoms: C_9  and  N_13
REMARK    4  A    between atoms: C_19  and  N_20
REMARK    5  A    between atoms: C_21  and  N_27
REMARK    6  A    between atoms: C_28  and  C_32
REMARK                            x       y       z     vdW  Elec       q    Type
REMARK                         _______ _______ _______ _____ _____    ______ ____
ROOT
ATOM      1  O   UNL     1      33.649 -19.915 -20.309  0.00  0.00    -0.277 OA
ATOM      2  N   UNL     1      35.685 -19.117 -21.166  0.00  0.00    -0.284 N 
ATOM      3  C   UNL     1      34.863 -20.001 -20.470  0.00  0.00    +0.205 C 
ATOM      4  H   UNL     1      36.643 -19.342 -21.190  0.00  0.00    +0.155 HD
ENDROOT
BRANCH   2   6
ATOM      5  F   UNL     1      34.826 -19.169 -23.816  0.00  0.00    -0.203 F 
ATOM      6  C   UNL     1      35.303 -17.935 -21.843  0.00  0.00    +0.078 C 
ATOM      7  C   UNL     1      34.878 -17.995 -23.170  0.00  0.00    +0.155 C 
ATOM      8  C   UNL     1      35.354 -16.708 -21.182  0.00  0.00    +0.018 C 
ATOM      9  C   UNL     1      34.553 -15.601 -23.174  0.00  0.00    +0.061 C 
ATOM     10  C   UNL     1      34.502 -16.827 -23.836  0.00  0.00    +0.046 C 
ATOM     11  C   UNL     1      34.979 -15.540 -21.848  0.00  0.00    +0.017 C 
BRANCH   9  13
ATOM     12  O   UNL     1      33.543 -15.470 -25.881  0.00  0.00    -0.269 OA
ATOM     13  N   UNL     1      34.164 -14.387 -23.866  0.00  0.00    -0.233 N 
ATOM     14  C   UNL     1      33.720 -14.452 -25.212  0.00  0.00    +0.257 C 
ATOM     15  C   UNL     1      34.203 -13.154 -23.210  0.00  0.00    +0.072 C 
ATOM     16  C   UNL     1      33.382 -13.149 -25.865  0.00  0.00    +0.059 C 
ATOM     17  C   UNL     1      33.864 -12.007 -23.807  0.00  0.00    +0.017 C 
ATOM     18  C   UNL     1      33.448 -12.007 -25.177  0.00  0.00    +0.006 C 
ENDBRANCH   9  13
ENDBRANCH   2   6
BRANCH   3  19
ATOM     19  C   UNL     1      35.685 -21.142 -19.895  0.00  0.00    +0.010 C 
BRANCH  19  20
ATOM     20  N   UNL     1      35.315 -21.352 -18.504  0.00  0.00    +0.394 N 
ATOM     21  C   UNL     1      35.827 -22.154 -16.376  0.00  0.00    +0.049 C 
ATOM     22  C   UNL     1      34.507 -22.780 -16.832  0.00  0.00    -0.005 C 
ATOM     23  C   UNL     1      36.474 -21.631 -17.654  0.00  0.00    -0.057 C 
ATOM     24  C   UNL     1      34.436 -22.509 -18.330  0.00  0.00    -0.075 C 
ATOM     25  H   UNL     1      34.852 -20.484 -18.237  0.00  0.00    -0.079 HD
BRANCH  21  27
ATOM     26  O   UNL     1      35.702 -22.821 -13.586  0.00  0.00    -0.270 OA
ATOM     27  N   UNL     1      36.673 -23.081 -15.676  0.00  0.00    -0.304 N 
ATOM     28  C   UNL     1      36.540 -23.342 -14.318  0.00  0.00    +0.252 C 
ATOM     29  H   UNL     1      37.377 -23.550 -16.180  0.00  0.00    +0.150 HD
BRANCH  28  32
ATOM     30 CL   UNL     1      40.959 -26.580 -13.554  0.00  0.00    -0.075 Cl
ATOM     31  S   UNL     1      38.939 -24.675 -14.606  0.00  0.00    -0.071 S 
ATOM     32  C   UNL     1      37.510 -24.307 -13.739  0.00  0.00    +0.084 C 
ATOM     33  C   UNL     1      37.438 -24.992 -12.545  0.00  0.00    +0.012 C 
ATOM     34  C   UNL     1      38.573 -25.829 -12.341  0.00  0.00    +0.019 C 
ATOM     35  C   UNL     1      39.468 -25.752 -13.385  0.00  0.00    +0.087 C 
ENDBRANCH  28  32
ENDBRANCH  21  27
ENDBRANCH  19  20
ENDBRANCH   3  19
TORSDOF 6
ENDMDL
MODEL 3
REMARK VINA RESULT:     -11.4      1.614      2.028
REMARK  Name = 42628060
REMARK  6 active torsions:
REMARK  status: ('A' for Active; 'I' for Inactive)
REMARK    1  A    between atoms: N_2  and  C_6
REMARK    2  A    between atoms: C_3  and  C_19
REMARK    3  A    between atoms: C_9  and  N_13
REMARK    4  A    between atoms: C_19  and  N_20
REMARK    5  A    between atoms: C_21  and  N_27
REMARK    6  A    between atoms: C_28  and  C_32
REMARK                            x       y       z     vdW  Elec       q    Type
REMARK                         _______ _______ _______ _____ _____    ______ ____
ROOT
ATOM      1  O   UNL     1      32.647 -15.245 -25.383  0.00  0.00    -0.277 OA
ATOM      2  N   UNL     1      34.267 -14.392 -23.913  0.00  0.00    -0.284 N 
ATOM      3  C   UNL     1      33.342 -14.330 -24.954  0.00  0.00    +0.205 C 
ATOM      4  H   UNL     1      34.742 -13.556 -23.704  0.00  0.00    +0.155 HD
ENDROOT
BRANCH   2   6
ATOM      5  F   UNL     1      34.632 -14.179 -21.159  0.00  0.00    -0.203 F 
ATOM      6  C   UNL     1      34.602 -15.516 -23.123  0.00  0.00    +0.078 C 
ATOM      7  C   UNL     1      34.778 -15.376 -21.746  0.00  0.00    +0.155 C 
ATOM      8  C   UNL     1      34.759 -16.766 -23.722  0.00  0.00    +0.018 C 
ATOM      9  C   UNL     1      35.266 -17.735 -21.568  0.00  0.00    +0.061 C 
ATOM     10  C   UNL     1      35.110 -16.486 -20.969  0.00  0.00    +0.046 C 
ATOM     11  C   UNL     1      35.090 -17.876 -22.944  0.00  0.00    +0.017 C 
BRANCH   9  13
ATOM     12  O   UNL     1      33.448 -19.856 -20.820  0.00  0.00    -0.269 OA
ATOM     13  N   UNL     1      35.612 -18.889 -20.761  0.00  0.00    -0.233 N 
ATOM     14  C   UNL     1      34.615 -19.843 -20.428  0.00  0.00    +0.257 C 
ATOM     15  C   UNL     1      36.925 -19.082 -20.325  0.00  0.00    +0.072 C 
ATOM     16  C   UNL     1      35.045 -20.978 -19.554  0.00  0.00    +0.059 C 
ATOM     17  C   UNL     1      37.291 -20.123 -19.571  0.00  0.00    +0.017 C 
ATOM     18  C   UNL     1      36.318 -21.095 -19.170  0.00  0.00    +0.006 C 
ENDBRANCH   9  13
ENDBRANCH   2   6
BRANCH   3  19
ATOM     19  C   UNL     1      33.295 -12.926 -25.532  0.00  0.00    +0.010 C 
BRANCH  19  20
ATOM     20  N   UNL     1      34.022 -12.018 -24.658  0.00  0.00    +0.394 N 
ATOM     21  C   UNL     1      34.081 -10.097 -23.339  0.00  0.00    +0.049 C 
ATOM     22  C   UNL     1      35.206 -10.017 -24.375  0.00  0.00    -0.005 C 
ATOM     23  C   UNL     1      33.129 -11.159 -23.878  0.00  0.00    -0.057 C 
ATOM     24  C   UNL     1      34.877 -11.093 -25.402  0.00  0.00    -0.075 C 
ATOM     25  H   UNL     1      34.569 -12.636 -24.059  0.00  0.00    -0.079 HD
BRANCH  21  27
ATOM     26  O   UNL     1      32.405  -9.388 -21.119  0.00  0.00    -0.270 OA
ATOM     27  N   UNL     1      33.426  -8.835 -23.127  0.00  0.00    -0.304 N 
ATOM     28  C   UNL     1      32.630  -8.580 -22.018  0.00  0.00    +0.252 C 
ATOM     29  H   UNL     1      33.547  -8.123 -23.796  0.00  0.00    +0.150 HD
BRANCH  28  32
ATOM     30 CL   UNL     1      31.735  -3.201 -21.089  0.00  0.00    -0.075 Cl
ATOM     31  S   UNL     1      32.875  -5.937 -21.262  0.00  0.00    -0.071 S 
ATOM     32  C   UNL     1      32.002  -7.235 -21.958  0.00  0.00    +0.084 C 
ATOM     33  C   UNL     1      30.757  -6.843 -22.400  0.00  0.00    +0.012 C 
ATOM     34  C   UNL     1      30.518  -5.458 -22.164  0.00  0.00    +0.019 C 
ATOM     35  C   UNL     1      31.588  -4.845 -21.551  0.00  0.00    +0.087 C 
ENDBRANCH  28  32
ENDBRANCH  21  27
ENDBRANCH  19  20
ENDBRANCH   3  19
TORSDOF 6
ENDMDL
MODEL 4
REMARK VINA RESULT:     -11.3      4.933      8.219
REMARK  Name = 42628060
REMARK  6 active torsions:
REMARK  status: ('A' for Active; 'I' for Inactive)
REMARK    1  A    between atoms: N_2  and  C_6
REMARK    2  A    between atoms: C_3  and  C_19
REMARK    3  A    between atoms: C_9  and  N_13
REMARK    4  A    between atoms: C_19  and  N_20
REMARK    5  A    between atoms: C_21  and  N_27
REMARK    6  A    between atoms: C_28  and  C_32
REMARK                            x       y       z     vdW  Elec       q    Type
REMARK                         _______ _______ _______ _____ _____    ______ ____
ROOT
ATOM      1  O   UNL     1      36.642 -20.126 -19.421  0.00  0.00    -0.277 OA
ATOM      2  N   UNL     1      34.826 -21.442 -18.725  0.00  0.00    -0.284 N 
ATOM      3  C   UNL     1      35.501 -20.555 -19.562  0.00  0.00    +0.205 C 
ATOM      4  H   UNL     1      33.907 -21.676 -18.991  0.00  0.00    +0.155 HD
ENDROOT
BRANCH   2   6
ATOM      5  F   UNL     1      33.171 -22.988 -17.103  0.00  0.00    -0.203 F 
ATOM      6  C   UNL     1      35.307 -22.045 -17.540  0.00  0.00    +0.078 C 
ATOM      7  C   UNL     1      34.452 -22.813 -16.749  0.00  0.00    +0.155 C 
ATOM      8  C   UNL     1      36.637 -21.869 -17.160  0.00  0.00    +0.018 C 
ATOM      9  C   UNL     1      36.259 -23.230 -15.201  0.00  0.00    +0.061 C 
ATOM     10  C   UNL     1      34.929 -23.407 -15.579  0.00  0.00    +0.046 C 
ATOM     11  C   UNL     1      37.114 -22.462 -15.991  0.00  0.00    +0.017 C 
BRANCH   9  13
ATOM     12  O   UNL     1      36.853 -26.042 -14.873  0.00  0.00    -0.269 OA
ATOM     13  N   UNL     1      36.755 -23.846 -13.985  0.00  0.00    -0.233 N 
ATOM     14  C   UNL     1      36.969 -25.248 -13.939  0.00  0.00    +0.257 C 
ATOM     15  C   UNL     1      37.044 -23.066 -12.863  0.00  0.00    +0.072 C 
ATOM     16  C   UNL     1      37.438 -25.807 -12.633  0.00  0.00    +0.059 C 
ATOM     17  C   UNL     1      37.493 -23.587 -11.716  0.00  0.00    +0.017 C 
ATOM     18  C   UNL     1      37.689 -25.001 -11.599  0.00  0.00    +0.006 C 
ENDBRANCH   9  13
ENDBRANCH   2   6
BRANCH   3  19
ATOM     19  C   UNL     1      34.613 -20.152 -20.726  0.00  0.00    +0.010 C 
BRANCH  19  20
ATOM     20  N   UNL     1      35.270 -19.106 -21.496  0.00  0.00    +0.394 N 
ATOM     21  C   UNL     1      35.426 -16.874 -22.151  0.00  0.00    +0.049 C 
ATOM     22  C   UNL     1      35.326 -17.747 -23.404  0.00  0.00    -0.005 C 
ATOM     23  C   UNL     1      34.936 -17.764 -21.013  0.00  0.00    -0.057 C 
ATOM     24  C   UNL     1      34.864 -19.110 -22.902  0.00  0.00    -0.075 C 
ATOM     25  H   UNL     1      36.263 -19.308 -21.391  0.00  0.00    -0.079 HD
BRANCH  21  27
ATOM     26  O   UNL     1      34.966 -14.956 -20.064  0.00  0.00    -0.270 OA
ATOM     27  N   UNL     1      34.668 -15.657 -22.255  0.00  0.00    -0.304 N 
ATOM     28  C   UNL     1      34.497 -14.785 -21.188  0.00  0.00    +0.252 C 
ATOM     29  H   UNL     1      34.252 -15.433 -23.119  0.00  0.00    +0.150 HD
BRANCH  28  32
ATOM     30 CL   UNL     1      30.641 -10.838 -20.798  0.00  0.00    -0.075 Cl
ATOM     31  S   UNL     1      32.375 -13.213 -20.386  0.00  0.00    -0.071 S 
ATOM     32  C   UNL     1      33.664 -13.583 -21.451  0.00  0.00    +0.084 C 
ATOM     33  C   UNL     1      33.769 -12.666 -22.474  0.00  0.00    +0.012 C 
ATOM     34  C   UNL     1      32.779 -11.646 -22.381  0.00  0.00    +0.019 C 
ATOM     35  C   UNL     1      31.955 -11.822 -21.292  0.00  0.00    +0.087 C 
ENDBRANCH  28  32
ENDBRANCH  21  27
ENDBRANCH  19  20
ENDBRANCH   3  19
TORSDOF 6
ENDMDL
MODEL 5
REMARK VINA RESULT:     -10.7      4.891     11.573
REMARK  Name = 42628060
REMARK  6 active torsions:
REMARK  status: ('A' for Active; 'I' for Inactive)
REMARK    1  A    between atoms: N_2  and  C_6
REMARK    2  A    between atoms: C_3  and  C_19
REMARK    3  A    between atoms: C_9  and  N_13
REMARK    4  A    between atoms: C_19  and  N_20
REMARK    5  A    between atoms: C_21  and  N_27
REMARK    6  A    between atoms: C_28  and  C_32
REMARK                            x       y       z     vdW  Elec       q    Type
REMARK                         _______ _______ _______ _____ _____    ______ ____
ROOT
ATOM      1  O   UNL     1      32.414 -13.533 -24.975  0.00  0.00    -0.277 OA
ATOM      2  N   UNL     1      34.100 -12.795 -23.516  0.00  0.00    -0.284 N 
ATOM      3  C   UNL     1      33.442 -13.715 -24.330  0.00  0.00    +0.205 C 
ATOM      4  H   UNL     1      34.914 -13.116 -23.067  0.00  0.00    +0.155 HD
ENDROOT
BRANCH   2   6
ATOM      5  F   UNL     1      32.028 -12.157 -21.767  0.00  0.00    -0.203 F 
ATOM      6  C   UNL     1      33.734 -11.452 -23.262  0.00  0.00    +0.078 C 
ATOM      7  C   UNL     1      32.692 -11.167 -22.380  0.00  0.00    +0.155 C 
ATOM      8  C   UNL     1      34.416 -10.413 -23.895  0.00  0.00    +0.018 C 
ATOM      9  C   UNL     1      33.014  -8.803 -22.765  0.00  0.00    +0.061 C 
ATOM     10  C   UNL     1      32.332  -9.841 -22.132  0.00  0.00    +0.046 C 
ATOM     11  C   UNL     1      34.056  -9.088 -23.647  0.00  0.00    +0.017 C 
BRANCH   9  13
ATOM     12  O   UNL     1      33.656  -7.317 -20.369  0.00  0.00    -0.269 OA
ATOM     13  N   UNL     1      32.640  -7.426 -22.508  0.00  0.00    -0.233 N 
ATOM     14  C   UNL     1      32.982  -6.820 -21.271  0.00  0.00    +0.257 C 
ATOM     15  C   UNL     1      31.963  -6.682 -23.478  0.00  0.00    +0.072 C 
ATOM     16  C   UNL     1      32.518  -5.412 -21.069  0.00  0.00    +0.059 C 
ATOM     17  C   UNL     1      31.588  -5.414 -23.284  0.00  0.00    +0.017 C 
ATOM     18  C   UNL     1      31.870  -4.764 -22.040  0.00  0.00    +0.006 C 
ENDBRANCH   9  13
ENDBRANCH   2   6
BRANCH   3  19
ATOM     19  C   UNL     1      34.177 -15.045 -24.320  0.00  0.00    +0.010 C 
BRANCH  19  20
ATOM     20  N   UNL     1      34.902 -15.188 -23.067  0.00  0.00    +0.394 N 
ATOM     21  C   UNL     1      35.672 -16.524 -21.319  0.00  0.00    +0.049 C 
ATOM     22  C   UNL     1      34.865 -15.364 -20.731  0.00  0.00    -0.005 C 
ATOM     23  C   UNL     1      35.266 -16.578 -22.788  0.00  0.00    -0.057 C 
ATOM     24  C   UNL     1      34.107 -14.770 -21.912  0.00  0.00    -0.075 C 
ATOM     25  H   UNL     1      35.726 -14.600 -23.189  0.00  0.00    -0.079 HD
BRANCH  21  27
ATOM     26  O   UNL     1      37.556 -18.658 -20.944  0.00  0.00    -0.270 OA
ATOM     27  N   UNL     1      35.434 -17.769 -20.642  0.00  0.00    -0.304 N 
ATOM     28  C   UNL     1      36.410 -18.749 -20.508  0.00  0.00    +0.252 C 
ATOM     29  H   UNL     1      34.543 -17.935 -20.257  0.00  0.00    +0.150 HD
BRANCH  28  32
ATOM     30 CL   UNL     1      33.410 -22.940 -18.500  0.00  0.00    -0.075 Cl
ATOM     31  S   UNL     1      34.358 -20.476 -19.859  0.00  0.00    -0.071 S 
ATOM     32  C   UNL     1      35.999 -19.992 -19.804  0.00  0.00    +0.084 C 
ATOM     33  C   UNL     1      36.772 -20.866 -19.072  0.00  0.00    +0.012 C 
ATOM     34  C   UNL     1      36.007 -21.949 -18.551  0.00  0.00    +0.019 C 
ATOM     35  C   UNL     1      34.678 -21.861 -18.903  0.00  0.00    +0.087 C 
ENDBRANCH  28  32
ENDBRANCH  21  27
ENDBRANCH  19  20
ENDBRANCH   3  19
TORSDOF 6
ENDMDL
MODEL 6
REMARK VINA RESULT:     -10.4      4.931     11.554
REMARK  Name = 42628060
REMARK  6 active torsions:
REMARK  status: ('A' for Active; 'I' for Inactive)
REMARK    1  A    between atoms: N_2  and  C_6
REMARK    2  A    between atoms: C_3  and  C_19
REMARK    3  A    between atoms: C_9  and  N_13
REMARK    4  A    between atoms: C_19  and  N_20
REMARK    5  A    between atoms: C_21  and  N_27
REMARK    6  A    between atoms: C_28  and  C_32
REMARK                            x       y       z     vdW  Elec       q    Type
REMARK                         _______ _______ _______ _____ _____    ______ ____
ROOT
ATOM      1  O   UNL     1      32.746 -13.218 -25.538  0.00  0.00    -0.277 OA
ATOM      2  N   UNL     1      33.748 -12.919 -23.435  0.00  0.00    -0.284 N 
ATOM      3  C   UNL     1      33.394 -13.629 -24.581  0.00  0.00    +0.205 C 
ATOM      4  H   UNL     1      34.269 -13.412 -22.762  0.00  0.00    +0.155 HD
ENDROOT
BRANCH   2   6
ATOM      5  F   UNL     1      35.027 -10.807 -24.726  0.00  0.00    -0.203 F 
ATOM      6  C   UNL     1      33.445 -11.572 -23.128  0.00  0.00    +0.078 C 
ATOM      7  C   UNL     1      34.104 -10.537 -23.792  0.00  0.00    +0.155 C 
ATOM      8  C   UNL     1      32.487 -11.278 -22.157  0.00  0.00    +0.018 C 
ATOM      9  C   UNL     1      32.846  -8.917 -22.516  0.00  0.00    +0.061 C 
ATOM     10  C   UNL     1      33.804  -9.209 -23.486  0.00  0.00    +0.046 C 
ATOM     11  C   UNL     1      32.187  -9.950 -21.851  0.00  0.00    +0.017 C 
BRANCH   9  13
ATOM     12  O   UNL     1      30.951  -7.259 -23.938  0.00  0.00    -0.269 OA
ATOM     13  N   UNL     1      32.535  -7.537 -22.197  0.00  0.00    -0.233 N 
ATOM     14  C   UNL     1      31.613  -6.817 -22.999  0.00  0.00    +0.257 C 
ATOM     15  C   UNL     1      33.121  -6.915 -21.091  0.00  0.00    +0.072 C 
ATOM     16  C   UNL     1      31.384  -5.385 -22.629  0.00  0.00    +0.059 C 
ATOM     17  C   UNL     1      32.874  -5.643 -20.762  0.00  0.00    +0.017 C 
ATOM     18  C   UNL     1      31.984  -4.855 -21.560  0.00  0.00    +0.006 C 
ENDBRANCH   9  13
ENDBRANCH   2   6
BRANCH   3  19
ATOM     19  C   UNL     1      33.924 -15.051 -24.502  0.00  0.00    +0.010 C 
BRANCH  19  20
ATOM     20  N   UNL     1      34.740 -15.197 -23.306  0.00  0.00    +0.394 N 
ATOM     21  C   UNL     1      35.605 -16.531 -21.601  0.00  0.00    +0.049 C 
ATOM     22  C   UNL     1      34.881 -15.337 -20.972  0.00  0.00    -0.005 C 
ATOM     23  C   UNL     1      35.084 -16.594 -23.033  0.00  0.00    -0.057 C 
ATOM     24  C   UNL     1      34.051 -14.738 -22.101  0.00  0.00    -0.075 C 
ATOM     25  H   UNL     1      35.569 -14.637 -23.503  0.00  0.00    -0.079 HD
BRANCH  21  27
ATOM     26  O   UNL     1      37.564 -18.543 -21.006  0.00  0.00    -0.270 OA
ATOM     27  N   UNL     1      35.385 -17.757 -20.886  0.00  0.00    -0.304 N 
ATOM     28  C   UNL     1      36.398 -18.677 -20.643  0.00  0.00    +0.252 C 
ATOM     29  H   UNL     1      34.479 -17.955 -20.554  0.00  0.00    +0.150 HD
BRANCH  28  32
ATOM     30 CL   UNL     1      33.445 -22.847 -18.524  0.00  0.00    -0.075 Cl
ATOM     31  S   UNL     1      34.362 -20.402 -19.937  0.00  0.00    -0.071 S 
ATOM     32  C   UNL     1      36.002 -19.909 -19.913  0.00  0.00    +0.084 C 
ATOM     33  C   UNL     1      36.790 -20.768 -19.178  0.00  0.00    +0.012 C 
ATOM     34  C   UNL     1      36.037 -21.845 -18.628  0.00  0.00    +0.019 C 
ATOM     35  C   UNL     1      34.703 -21.769 -18.963  0.00  0.00    +0.087 C 
ENDBRANCH  28  32
ENDBRANCH  21  27
ENDBRANCH  19  20
ENDBRANCH   3  19
TORSDOF 6
ENDMDL
MODEL 7
REMARK VINA RESULT:     -10.3      9.253     14.690
REMARK  Name = 42628060
REMARK  6 active torsions:
REMARK  status: ('A' for Active; 'I' for Inactive)
REMARK    1  A    between atoms: N_2  and  C_6
REMARK    2  A    between atoms: C_3  and  C_19
REMARK    3  A    between atoms: C_9  and  N_13
REMARK    4  A    between atoms: C_19  and  N_20
REMARK    5  A    between atoms: C_21  and  N_27
REMARK    6  A    between atoms: C_28  and  C_32
REMARK                            x       y       z     vdW  Elec       q    Type
REMARK                         _______ _______ _______ _____ _____    ______ ____
ROOT
ATOM      1  O   UNL     1      31.054 -22.028 -17.036  0.00  0.00    -0.277 OA
ATOM      2  N   UNL     1      33.259 -22.598 -17.609  0.00  0.00    -0.284 N 
ATOM      3  C   UNL     1      32.058 -22.721 -16.912  0.00  0.00    +0.205 C 
ATOM      4  H   UNL     1      33.965 -23.242 -17.375  0.00  0.00    +0.155 HD
ENDROOT
BRANCH   2   6
ATOM      5  F   UNL     1      35.900 -22.079 -18.328  0.00  0.00    -0.203 F 
ATOM      6  C   UNL     1      33.581 -21.656 -18.613  0.00  0.00    +0.078 C 
ATOM      7  C   UNL     1      34.913 -21.419 -18.950  0.00  0.00    +0.155 C 
ATOM      8  C   UNL     1      32.562 -20.961 -19.266  0.00  0.00    +0.018 C 
ATOM      9  C   UNL     1      34.209 -19.793 -20.593  0.00  0.00    +0.061 C 
ATOM     10  C   UNL     1      35.228 -20.488 -19.941  0.00  0.00    +0.046 C 
ATOM     11  C   UNL     1      32.877 -20.029 -20.257  0.00  0.00    +0.017 C 
BRANCH   9  13
ATOM     12  O   UNL     1      35.585 -17.287 -20.154  0.00  0.00    -0.269 OA
ATOM     13  N   UNL     1      34.535 -18.825 -21.622  0.00  0.00    -0.233 N 
ATOM     14  C   UNL     1      35.179 -17.610 -21.271  0.00  0.00    +0.257 C 
ATOM     15  C   UNL     1      34.240 -19.087 -22.962  0.00  0.00    +0.072 C 
ATOM     16  C   UNL     1      35.438 -16.647 -22.386  0.00  0.00    +0.059 C 
ATOM     17  C   UNL     1      34.512 -18.223 -23.945  0.00  0.00    +0.017 C 
ATOM     18  C   UNL     1      35.123 -16.964 -23.644  0.00  0.00    +0.006 C 
ENDBRANCH   9  13
ENDBRANCH   2   6
BRANCH   3  19
ATOM     19  C   UNL     1      32.142 -23.869 -15.920  0.00  0.00    +0.010 C 
BRANCH  19  20
ATOM     20  N   UNL     1      32.915 -23.452 -14.760  0.00  0.00    +0.394 N 
ATOM     21  C   UNL     1      34.972 -23.152 -13.704  0.00  0.00    +0.049 C 
ATOM     22  C   UNL     1      34.082 -24.020 -12.810  0.00  0.00    -0.005 C 
ATOM     23  C   UNL     1      34.324 -23.219 -15.083  0.00  0.00    -0.057 C 
ATOM     24  C   UNL     1      32.934 -24.467 -13.708  0.00  0.00    -0.075 C 
ATOM     25  H   UNL     1      32.454 -22.597 -14.450  0.00  0.00    -0.079 HD
BRANCH  21  27
ATOM     26  O   UNL     1      36.010 -25.484 -15.018  0.00  0.00    -0.270 OA
ATOM     27  N   UNL     1      36.341 -23.588 -13.722  0.00  0.00    -0.304 N 
ATOM     28  C   UNL     1      36.754 -24.736 -14.388  0.00  0.00    +0.252 C 
ATOM     29  H   UNL     1      37.013 -23.052 -13.243  0.00  0.00    +0.150 HD
BRANCH  28  32
ATOM     30 CL   UNL     1      41.535 -27.238 -13.171  0.00  0.00    -0.075 Cl
ATOM     31  S   UNL     1      38.680 -26.468 -13.434  0.00  0.00    -0.071 S 
ATOM     32  C   UNL     1      38.200 -25.064 -14.289  0.00  0.00    +0.084 C 
ATOM     33  C   UNL     1      39.278 -24.381 -14.808  0.00  0.00    +0.012 C 
ATOM     34  C   UNL     1      40.514 -25.019 -14.498  0.00  0.00    +0.019 C 
ATOM     35  C   UNL     1      40.334 -26.165 -13.756  0.00  0.00    +0.087 C 
ENDBRANCH  28  32
ENDBRANCH  21  27
ENDBRANCH  19  20
ENDBRANCH   3  19
TORSDOF 6
ENDMDL
MODEL 8
REMARK VINA RESULT:     -10.3      5.127      8.608
REMARK  Name = 42628060
REMARK  6 active torsions:
REMARK  status: ('A' for Active; 'I' for Inactive)
REMARK    1  A    between atoms: N_2  and  C_6
REMARK    2  A    between atoms: C_3  and  C_19
REMARK    3  A    between atoms: C_9  and  N_13
REMARK    4  A    between atoms: C_19  and  N_20
REMARK    5  A    between atoms: C_21  and  N_27
REMARK    6  A    between atoms: C_28  and  C_32
REMARK                            x       y       z     vdW  Elec       q    Type
REMARK                         _______ _______ _______ _____ _____    ______ ____
ROOT
ATOM      1  O   UNL     1      32.425 -21.569 -18.381  0.00  0.00    -0.277 OA
ATOM      2  N   UNL     1      34.758 -21.429 -18.617  0.00  0.00    -0.284 N 
ATOM      3  C   UNL     1      33.431 -21.237 -19.000  0.00  0.00    +0.205 C 
ATOM      4  H   UNL     1      35.442 -21.100 -19.243  0.00  0.00    +0.155 HD
ENDROOT
BRANCH   2   6
ATOM      5  F   UNL     1      37.313 -20.912 -17.636  0.00  0.00    -0.203 F 
ATOM      6  C   UNL     1      35.234 -22.042 -17.435  0.00  0.00    +0.078 C 
ATOM      7  C   UNL     1      36.519 -21.762 -16.970  0.00  0.00    +0.155 C 
ATOM      8  C   UNL     1      34.417 -22.930 -16.734  0.00  0.00    +0.018 C 
ATOM      9  C   UNL     1      36.170 -23.257 -15.104  0.00  0.00    +0.061 C 
ATOM     10  C   UNL     1      36.987 -22.369 -15.804  0.00  0.00    +0.046 C 
ATOM     11  C   UNL     1      34.885 -23.537 -15.568  0.00  0.00    +0.017 C 
BRANCH   9  13
ATOM     12  O   UNL     1      37.114 -25.983 -14.904  0.00  0.00    -0.269 OA
ATOM     13  N   UNL     1      36.656 -23.888 -13.893  0.00  0.00    -0.233 N 
ATOM     14  C   UNL     1      37.055 -25.249 -13.917  0.00  0.00    +0.257 C 
ATOM     15  C   UNL     1      36.755 -23.161 -12.704  0.00  0.00    +0.072 C 
ATOM     16  C   UNL     1      37.500 -25.836 -12.614  0.00  0.00    +0.059 C 
ATOM     17  C   UNL     1      37.187 -23.700 -11.560  0.00  0.00    +0.017 C 
ATOM     18  C   UNL     1      37.564 -25.081 -11.516  0.00  0.00    +0.006 C 
ENDBRANCH   9  13
ENDBRANCH   2   6
BRANCH   3  19
ATOM     19  C   UNL     1      33.369 -20.536 -20.346  0.00  0.00    +0.010 C 
BRANCH  19  20
ATOM     20  N   UNL     1      34.441 -19.556 -20.431  0.00  0.00    +0.394 N 
ATOM     21  C   UNL     1      35.200 -17.439 -21.047  0.00  0.00    +0.049 C 
ATOM     22  C   UNL     1      36.098 -18.492 -21.701  0.00  0.00    -0.005 C 
ATOM     23  C   UNL     1      33.939 -18.196 -20.642  0.00  0.00    -0.057 C 
ATOM     24  C   UNL     1      35.336 -19.804 -21.561  0.00  0.00    -0.075 C 
ATOM     25  H   UNL     1      34.928 -19.643 -19.539  0.00  0.00    -0.079 HD
BRANCH  21  27
ATOM     26  O   UNL     1      34.474 -14.779 -20.247  0.00  0.00    -0.270 OA
ATOM     27  N   UNL     1      34.914 -16.330 -21.915  0.00  0.00    -0.304 N 
ATOM     28  C   UNL     1      34.569 -15.072 -21.437  0.00  0.00    +0.252 C 
ATOM     29  H   UNL     1      34.965 -16.468 -22.889  0.00  0.00    +0.150 HD
BRANCH  28  32
ATOM     30 CL   UNL     1      33.212 -12.568 -26.180  0.00  0.00    -0.075 Cl
ATOM     31  S   UNL     1      33.825 -14.533 -24.040  0.00  0.00    -0.071 S 
ATOM     32  C   UNL     1      34.278 -14.038 -22.465  0.00  0.00    +0.084 C 
ATOM     33  C   UNL     1      34.316 -12.666 -22.345  0.00  0.00    +0.012 C 
ATOM     34  C   UNL     1      33.968 -12.013 -23.562  0.00  0.00    +0.019 C 
ATOM     35  C   UNL     1      33.678 -12.910 -24.566  0.00  0.00    +0.087 C 
ENDBRANCH  28  32
ENDBRANCH  21  27
ENDBRANCH  19  20
ENDBRANCH   3  19
TORSDOF 6
ENDMDL
MODEL 9
REMARK VINA RESULT:     -10.3      5.541     11.907
REMARK  Name = 42628060
REMARK  6 active torsions:
REMARK  status: ('A' for Active; 'I' for Inactive)
REMARK    1  A    between atoms: N_2  and  C_6
REMARK    2  A    between atoms: C_3  and  C_19
REMARK    3  A    between atoms: C_9  and  N_13
REMARK    4  A    between atoms: C_19  and  N_20
REMARK    5  A    between atoms: C_21  and  N_27
REMARK    6  A    between atoms: C_28  and  C_32
REMARK                            x       y       z     vdW  Elec       q    Type
REMARK                         _______ _______ _______ _____ _____    ______ ____
ROOT
ATOM      1  O   UNL     1      35.770 -15.187 -23.462  0.00  0.00    -0.277 OA
ATOM      2  N   UNL     1      33.435 -14.943 -23.408  0.00  0.00    -0.284 N 
ATOM      3  C   UNL     1      34.633 -15.646 -23.513  0.00  0.00    +0.205 C 
ATOM      4  H   UNL     1      32.611 -15.476 -23.476  0.00  0.00    +0.155 HD
ENDROOT
BRANCH   2   6
ATOM      5  F   UNL     1      33.932 -13.117 -25.453  0.00  0.00    -0.203 F 
ATOM      6  C   UNL     1      33.265 -13.552 -23.215  0.00  0.00    +0.078 C 
ATOM      7  C   UNL     1      33.523 -12.664 -24.259  0.00  0.00    +0.155 C 
ATOM      8  C   UNL     1      32.842 -13.068 -21.977  0.00  0.00    +0.018 C 
ATOM      9  C   UNL     1      32.932 -10.809 -22.828  0.00  0.00    +0.061 C 
ATOM     10  C   UNL     1      33.356 -11.292 -24.066  0.00  0.00    +0.046 C 
ATOM     11  C   UNL     1      32.674 -11.696 -21.783  0.00  0.00    +0.017 C 
BRANCH   9  13
ATOM     12  O   UNL     1      30.708  -9.573 -21.453  0.00  0.00    -0.269 OA
ATOM     13  N   UNL     1      32.759  -9.384 -22.626  0.00  0.00    -0.233 N 
ATOM     14  C   UNL     1      31.600  -8.899 -21.968  0.00  0.00    +0.257 C 
ATOM     15  C   UNL     1      33.737  -8.483 -23.056  0.00  0.00    +0.072 C 
ATOM     16  C   UNL     1      31.478  -7.412 -21.843  0.00  0.00    +0.059 C 
ATOM     17  C   UNL     1      33.619  -7.160 -22.902  0.00  0.00    +0.017 C 
ATOM     18  C   UNL     1      32.451  -6.611 -22.282  0.00  0.00    +0.006 C 
ENDBRANCH   9  13
ENDBRANCH   2   6
BRANCH   3  19
ATOM     19  C   UNL     1      34.358 -17.126 -23.715  0.00  0.00    +0.010 C 
BRANCH  19  20
ATOM     20  N   UNL     1      35.238 -17.904 -22.856  0.00  0.00    +0.394 N 
ATOM     21  C   UNL     1      35.542 -19.571 -21.254  0.00  0.00    +0.049 C 
ATOM     22  C   UNL     1      36.170 -18.273 -20.739  0.00  0.00    -0.005 C 
ATOM     23  C   UNL     1      34.603 -19.133 -22.374  0.00  0.00    -0.057 C 
ATOM     24  C   UNL     1      35.618 -17.179 -21.644  0.00  0.00    -0.075 C 
ATOM     25  H   UNL     1      36.045 -18.104 -23.445  0.00  0.00    -0.079 HD
BRANCH  21  27
ATOM     26  O   UNL     1      36.738 -21.316 -19.313  0.00  0.00    -0.270 OA
ATOM     27  N   UNL     1      34.859 -20.308 -20.227  0.00  0.00    -0.304 N 
ATOM     28  C   UNL     1      35.523 -21.133 -19.327  0.00  0.00    +0.252 C 
ATOM     29  H   UNL     1      33.880 -20.225 -20.159  0.00  0.00    +0.150 HD
BRANCH  28  32
ATOM     30 CL   UNL     1      33.776 -23.849 -14.836  0.00  0.00    -0.075 Cl
ATOM     31  S   UNL     1      35.373 -22.415 -16.888  0.00  0.00    -0.071 S 
ATOM     32  C   UNL     1      34.670 -21.847 -18.342  0.00  0.00    +0.084 C 
ATOM     33  C   UNL     1      33.326 -22.141 -18.416  0.00  0.00    +0.012 C 
ATOM     34  C   UNL     1      32.868 -22.841 -17.263  0.00  0.00    +0.019 C 
ATOM     35  C   UNL     1      33.878 -23.056 -16.352  0.00  0.00    +0.087 C 
ENDBRANCH  28  32
ENDBRANCH  21  27
ENDBRANCH  19  20
ENDBRANCH   3  19
TORSDOF 6
ENDMDL
