MODEL 1
REMARK VINA RESULT:     -11.9      0.000      0.000
REMARK  Name = 445770
REMARK  5 active torsions:
REMARK  status: ('A' for Active; 'I' for Inactive)
REMARK    1  A    between atoms: N_2  and  C_17
REMARK    2  A    between atoms: C_3  and  C_5
REMARK    3  A    between atoms: C_6  and  S_11
REMARK    4  A    between atoms: S_11  and  N_14
REMARK    5  A    between atoms: C_17  and  C_23
REMARK                            x       y       z     vdW  Elec       q    Type
REMARK                         _______ _______ _______ _____ _____    ______ ____
ROOT
ATOM      1  O   UNL     1      37.197 -18.329 -21.451  0.00  0.00    -0.270 OA
ATOM      2  N   UNL     1      35.081 -17.810 -22.244  0.00  0.00    -0.297 N 
ATOM      3  C   UNL     1      35.971 -18.538 -21.446  0.00  0.00    +0.246 C 
ATOM      4  H   UNL     1      34.122 -18.028 -22.191  0.00  0.00    +0.150 HD
ENDROOT
BRANCH   3   5
ATOM      5  C   UNL     1      35.404 -19.587 -20.613  0.00  0.00    +0.053 C 
ATOM      6  C   UNL     1      34.316 -21.598 -19.015  0.00  0.00    +0.122 C 
ATOM      7  C   UNL     1      36.244 -20.424 -19.878  0.00  0.00    +0.006 C 
ATOM      8  C   UNL     1      34.020 -19.755 -20.549  0.00  0.00    +0.006 C 
ATOM      9  C   UNL     1      35.699 -21.430 -19.079  0.00  0.00    +0.020 C 
ATOM     10  C   UNL     1      33.477 -20.761 -19.749  0.00  0.00    +0.020 C 
BRANCH   6  11
ATOM     11  S   UNL     1      33.635 -22.856 -18.014  0.00  0.00    +0.057 S 
ATOM     12  O   UNL     1      33.750 -24.124 -18.721  0.00  0.00    -0.153 OA
ATOM     13  O   UNL     1      32.334 -22.410 -17.536  0.00  0.00    -0.153 OA
BRANCH  11  14
ATOM     14  N   UNL     1      34.732 -22.858 -16.703  0.00  0.00    -0.203 NA
ATOM     15  H   UNL     1      35.525 -22.256 -16.922  0.00  0.00    +0.144 HD
ATOM     16  H   UNL     1      35.062 -23.809 -16.538  0.00  0.00    +0.144 HD
ENDBRANCH  11  14
ENDBRANCH   6  11
ENDBRANCH   3   5
BRANCH   2  17
ATOM     17  C   UNL     1      35.493 -16.754 -23.142  0.00  0.00    +0.121 C 
BRANCH  17  23
ATOM     18  F   UNL     1      35.176 -15.445 -20.660  0.00  0.00    -0.202 F 
ATOM     19  F   UNL     1      34.103 -15.553 -25.283  0.00  0.00    -0.202 F 
ATOM     20  F   UNL     1      32.579 -13.313 -24.975  0.00  0.00    -0.199 F 
ATOM     21  F   UNL     1      33.653 -13.203 -20.364  0.00  0.00    -0.199 F 
ATOM     22  F   UNL     1      32.352 -12.135 -22.520  0.00  0.00    -0.199 F 
ATOM     23  C   UNL     1      34.652 -15.517 -22.974  0.00  0.00    +0.057 A 
ATOM     24  C   UNL     1      34.544 -14.927 -21.721  0.00  0.00    +0.170 A 
ATOM     25  C   UNL     1      33.997 -14.982 -24.075  0.00  0.00    +0.170 A 
ATOM     26  C   UNL     1      33.218 -13.836 -23.921  0.00  0.00    +0.197 A 
ATOM     27  C   UNL     1      33.764 -13.782 -21.568  0.00  0.00    +0.197 A 
ATOM     28  C   UNL     1      33.101 -13.235 -22.667  0.00  0.00    +0.199 A 
ENDBRANCH  17  23
ENDBRANCH   2  17
TORSDOF 5
ENDMDL
MODEL 2
REMARK VINA RESULT:     -11.9      0.014      2.338
REMARK  Name = 445770
REMARK  5 active torsions:
REMARK  status: ('A' for Active; 'I' for Inactive)
REMARK    1  A    between atoms: N_2  and  C_17
REMARK    2  A    between atoms: C_3  and  C_5
REMARK    3  A    between atoms: C_6  and  S_11
REMARK    4  A    between atoms: S_11  and  N_14
REMARK    5  A    between atoms: C_17  and  C_23
REMARK                            x       y       z     vdW  Elec       q    Type
REMARK                         _______ _______ _______ _____ _____    ______ ____
ROOT
ATOM      1  O   UNL     1      37.194 -18.328 -21.454  0.00  0.00    -0.270 OA
ATOM      2  N   UNL     1      35.080 -17.815 -22.253  0.00  0.00    -0.297 N 
ATOM      3  C   UNL     1      35.969 -18.539 -21.451  0.00  0.00    +0.246 C 
ATOM      4  H   UNL     1      34.121 -18.034 -22.202  0.00  0.00    +0.150 HD
ENDROOT
BRANCH   3   5
ATOM      5  C   UNL     1      35.402 -19.587 -20.617  0.00  0.00    +0.053 C 
ATOM      6  C   UNL     1      34.315 -21.597 -19.018  0.00  0.00    +0.122 C 
ATOM      7  C   UNL     1      34.019 -19.758 -20.556  0.00  0.00    +0.006 C 
ATOM      8  C   UNL     1      36.242 -20.421 -19.879  0.00  0.00    +0.006 C 
ATOM      9  C   UNL     1      33.475 -20.763 -19.756  0.00  0.00    +0.020 C 
ATOM     10  C   UNL     1      35.698 -21.427 -19.079  0.00  0.00    +0.020 C 
BRANCH   6  11
ATOM     11  S   UNL     1      33.635 -22.857 -18.018  0.00  0.00    +0.057 S 
ATOM     12  O   UNL     1      33.753 -24.124 -18.725  0.00  0.00    -0.153 OA
ATOM     13  O   UNL     1      32.332 -22.413 -17.542  0.00  0.00    -0.153 OA
BRANCH  11  14
ATOM     14  N   UNL     1      34.729 -22.856 -16.705  0.00  0.00    -0.203 NA
ATOM     15  H   UNL     1      34.209 -22.854 -15.828  0.00  0.00    +0.144 HD
ATOM     16  H   UNL     1      35.318 -22.024 -16.754  0.00  0.00    +0.144 HD
ENDBRANCH  11  14
ENDBRANCH   6  11
ENDBRANCH   3   5
BRANCH   2  17
ATOM     17  C   UNL     1      35.492 -16.759 -23.152  0.00  0.00    +0.121 C 
BRANCH  17  23
ATOM     18  F   UNL     1      34.104 -15.559 -25.300  0.00  0.00    -0.202 F 
ATOM     19  F   UNL     1      35.168 -15.451 -20.674  0.00  0.00    -0.202 F 
ATOM     20  F   UNL     1      33.641 -13.211 -20.382  0.00  0.00    -0.199 F 
ATOM     21  F   UNL     1      32.577 -13.322 -24.995  0.00  0.00    -0.199 F 
ATOM     22  F   UNL     1      32.344 -12.144 -22.538  0.00  0.00    -0.199 F 
ATOM     23  C   UNL     1      34.648 -15.523 -22.989  0.00  0.00    +0.057 A 
ATOM     24  C   UNL     1      33.995 -14.990 -24.092  0.00  0.00    +0.170 A 
ATOM     25  C   UNL     1      34.536 -14.935 -21.737  0.00  0.00    +0.170 A 
ATOM     26  C   UNL     1      33.755 -13.789 -21.584  0.00  0.00    +0.197 A 
ATOM     27  C   UNL     1      33.214 -13.845 -23.939  0.00  0.00    +0.197 A 
ATOM     28  C   UNL     1      33.093 -13.243 -22.686  0.00  0.00    +0.199 A 
ENDBRANCH  17  23
ENDBRANCH   2  17
TORSDOF 5
ENDMDL
MODEL 3
REMARK VINA RESULT:     -10.7      7.004     10.870
REMARK  Name = 445770
REMARK  5 active torsions:
REMARK  status: ('A' for Active; 'I' for Inactive)
REMARK    1  A    between atoms: N_2  and  C_17
REMARK    2  A    between atoms: C_3  and  C_5
REMARK    3  A    between atoms: C_6  and  S_11
REMARK    4  A    between atoms: S_11  and  N_14
REMARK    5  A    between atoms: C_17  and  C_23
REMARK                            x       y       z     vdW  Elec       q    Type
REMARK                         _______ _______ _______ _____ _____    ______ ____
ROOT
ATOM      1  O   UNL     1      33.489 -23.863 -17.720  0.00  0.00    -0.270 OA
ATOM      2  N   UNL     1      34.875 -23.004 -16.074  0.00  0.00    -0.297 N 
ATOM      3  C   UNL     1      34.316 -23.009 -17.356  0.00  0.00    +0.246 C 
ATOM      4  H   UNL     1      35.526 -22.298 -15.852  0.00  0.00    +0.150 HD
ENDROOT
BRANCH   3   5
ATOM      5  C   UNL     1      34.764 -21.975 -18.277  0.00  0.00    +0.053 C 
ATOM      6  C   UNL     1      35.624 -19.994 -20.041  0.00  0.00    +0.122 C 
ATOM      7  C   UNL     1      33.841 -21.315 -19.087  0.00  0.00    +0.006 C 
ATOM      8  C   UNL     1      36.118 -21.646 -18.349  0.00  0.00    +0.006 C 
ATOM      9  C   UNL     1      34.271 -20.324 -19.969  0.00  0.00    +0.020 C 
ATOM     10  C   UNL     1      36.548 -20.655 -19.231  0.00  0.00    +0.020 C 
BRANCH   6  11
ATOM     11  S   UNL     1      36.163 -18.753 -21.145  0.00  0.00    +0.057 S 
ATOM     12  O   UNL     1      35.544 -18.987 -22.442  0.00  0.00    -0.153 OA
ATOM     13  O   UNL     1      37.611 -18.645 -21.044  0.00  0.00    -0.153 OA
BRANCH  11  14
ATOM     14  N   UNL     1      35.457 -17.364 -20.442  0.00  0.00    -0.203 NA
ATOM     15  H   UNL     1      34.618 -17.109 -20.962  0.00  0.00    +0.144 HD
ATOM     16  H   UNL     1      36.124 -16.592 -20.472  0.00  0.00    +0.144 HD
ENDBRANCH  11  14
ENDBRANCH   6  11
ENDBRANCH   3   5
BRANCH   2  17
ATOM     17  C   UNL     1      34.550 -23.977 -15.055  0.00  0.00    +0.121 C 
BRANCH  17  23
ATOM     18  F   UNL     1      35.907 -22.441 -13.112  0.00  0.00    -0.202 F 
ATOM     19  F   UNL     1      35.687 -26.513 -15.544  0.00  0.00    -0.202 F 
ATOM     20  F   UNL     1      37.914 -27.401 -14.245  0.00  0.00    -0.199 F 
ATOM     21  F   UNL     1      38.130 -23.341 -11.817  0.00  0.00    -0.199 F 
ATOM     22  F   UNL     1      39.138 -25.820 -12.381  0.00  0.00    -0.199 F 
ATOM     23  C   UNL     1      35.779 -24.470 -14.338  0.00  0.00    +0.057 A 
ATOM     24  C   UNL     1      36.392 -23.658 -13.394  0.00  0.00    +0.170 A 
ATOM     25  C   UNL     1      36.281 -25.730 -14.632  0.00  0.00    +0.170 A 
ATOM     26  C   UNL     1      37.419 -26.188 -13.969  0.00  0.00    +0.197 A 
ATOM     27  C   UNL     1      37.531 -24.115 -12.731  0.00  0.00    +0.197 A 
ATOM     28  C   UNL     1      38.045 -25.380 -13.018  0.00  0.00    +0.199 A 
ENDBRANCH  17  23
ENDBRANCH   2  17
TORSDOF 5
ENDMDL
MODEL 4
REMARK VINA RESULT:     -10.7      7.001     10.978
REMARK  Name = 445770
REMARK  5 active torsions:
REMARK  status: ('A' for Active; 'I' for Inactive)
REMARK    1  A    between atoms: N_2  and  C_17
REMARK    2  A    between atoms: C_3  and  C_5
REMARK    3  A    between atoms: C_6  and  S_11
REMARK    4  A    between atoms: S_11  and  N_14
REMARK    5  A    between atoms: C_17  and  C_23
REMARK                            x       y       z     vdW  Elec       q    Type
REMARK                         _______ _______ _______ _____ _____    ______ ____
ROOT
ATOM      1  O   UNL     1      33.479 -23.850 -17.720  0.00  0.00    -0.270 OA
ATOM      2  N   UNL     1      34.879 -23.003 -16.079  0.00  0.00    -0.297 N 
ATOM      3  C   UNL     1      34.313 -23.002 -17.358  0.00  0.00    +0.246 C 
ATOM      4  H   UNL     1      35.534 -22.302 -15.858  0.00  0.00    +0.150 HD
ENDROOT
BRANCH   3   5
ATOM      5  C   UNL     1      34.762 -21.969 -18.278  0.00  0.00    +0.053 C 
ATOM      6  C   UNL     1      35.625 -19.988 -20.042  0.00  0.00    +0.122 C 
ATOM      7  C   UNL     1      33.840 -21.308 -19.090  0.00  0.00    +0.006 C 
ATOM      8  C   UNL     1      36.116 -21.640 -18.349  0.00  0.00    +0.006 C 
ATOM      9  C   UNL     1      34.272 -20.318 -19.972  0.00  0.00    +0.020 C 
ATOM     10  C   UNL     1      36.548 -20.648 -19.231  0.00  0.00    +0.020 C 
BRANCH   6  11
ATOM     11  S   UNL     1      36.165 -18.747 -21.145  0.00  0.00    +0.057 S 
ATOM     12  O   UNL     1      35.539 -18.974 -22.440  0.00  0.00    -0.153 OA
ATOM     13  O   UNL     1      37.615 -18.647 -21.051  0.00  0.00    -0.153 OA
BRANCH  11  14
ATOM     14  N   UNL     1      35.471 -17.356 -20.436  0.00  0.00    -0.203 NA
ATOM     15  H   UNL     1      36.158 -16.603 -20.420  0.00  0.00    +0.144 HD
ATOM     16  H   UNL     1      35.180 -17.570 -19.482  0.00  0.00    +0.144 HD
ENDBRANCH  11  14
ENDBRANCH   6  11
ENDBRANCH   3   5
BRANCH   2  17
ATOM     17  C   UNL     1      34.553 -23.978 -15.061  0.00  0.00    +0.121 C 
BRANCH  17  23
ATOM     18  F   UNL     1      35.689 -26.517 -15.549  0.00  0.00    -0.202 F 
ATOM     19  F   UNL     1      35.909 -22.443 -13.121  0.00  0.00    -0.202 F 
ATOM     20  F   UNL     1      38.133 -23.343 -11.825  0.00  0.00    -0.199 F 
ATOM     21  F   UNL     1      37.915 -27.405 -14.250  0.00  0.00    -0.199 F 
ATOM     22  F   UNL     1      39.140 -25.821 -12.386  0.00  0.00    -0.199 F 
ATOM     23  C   UNL     1      35.781 -24.473 -14.346  0.00  0.00    +0.057 A 
ATOM     24  C   UNL     1      36.283 -25.734 -14.639  0.00  0.00    +0.170 A 
ATOM     25  C   UNL     1      36.395 -23.660 -13.403  0.00  0.00    +0.170 A 
ATOM     26  C   UNL     1      37.533 -24.117 -12.738  0.00  0.00    +0.197 A 
ATOM     27  C   UNL     1      37.421 -26.191 -13.974  0.00  0.00    +0.197 A 
ATOM     28  C   UNL     1      38.047 -25.383 -13.024  0.00  0.00    +0.199 A 
ENDBRANCH  17  23
ENDBRANCH   2  17
TORSDOF 5
ENDMDL
MODEL 5
REMARK VINA RESULT:     -10.7      6.684     10.675
REMARK  Name = 445770
REMARK  5 active torsions:
REMARK  status: ('A' for Active; 'I' for Inactive)
REMARK    1  A    between atoms: N_2  and  C_17
REMARK    2  A    between atoms: C_3  and  C_5
REMARK    3  A    between atoms: C_6  and  S_11
REMARK    4  A    between atoms: S_11  and  N_14
REMARK    5  A    between atoms: C_17  and  C_23
REMARK                            x       y       z     vdW  Elec       q    Type
REMARK                         _______ _______ _______ _____ _____    ______ ____
ROOT
ATOM      1  O   UNL     1      33.443 -23.915 -18.025  0.00  0.00    -0.270 OA
ATOM      2  N   UNL     1      34.366 -22.825 -16.199  0.00  0.00    -0.297 N 
ATOM      3  C   UNL     1      34.082 -22.953 -17.564  0.00  0.00    +0.246 C 
ATOM      4  H   UNL     1      34.878 -22.038 -15.902  0.00  0.00    +0.150 HD
ENDROOT
BRANCH   3   5
ATOM      5  C   UNL     1      34.595 -21.916 -18.445  0.00  0.00    +0.053 C 
ATOM      6  C   UNL     1      35.579 -19.927 -20.136  0.00  0.00    +0.122 C 
ATOM      7  C   UNL     1      35.965 -21.657 -18.494  0.00  0.00    +0.006 C 
ATOM      8  C   UNL     1      33.717 -21.181 -19.241  0.00  0.00    +0.006 C 
ATOM      9  C   UNL     1      36.456 -20.663 -19.339  0.00  0.00    +0.020 C 
ATOM     10  C   UNL     1      34.209 -20.186 -20.087  0.00  0.00    +0.020 C 
BRANCH   6  11
ATOM     11  S   UNL     1      36.194 -18.683 -21.195  0.00  0.00    +0.057 S 
ATOM     12  O   UNL     1      35.609 -18.868 -22.515  0.00  0.00    -0.153 OA
ATOM     13  O   UNL     1      37.642 -18.628 -21.046  0.00  0.00    -0.153 OA
BRANCH  11  14
ATOM     14  N   UNL     1      35.514 -17.286 -20.484  0.00  0.00    -0.203 NA
ATOM     15  H   UNL     1      36.260 -16.682 -20.139  0.00  0.00    +0.144 HD
ATOM     16  H   UNL     1      34.910 -17.558 -19.709  0.00  0.00    +0.144 HD
ENDBRANCH  11  14
ENDBRANCH   6  11
ENDBRANCH   3   5
BRANCH   2  17
ATOM     17  C   UNL     1      33.946 -23.784 -15.202  0.00  0.00    +0.121 C 
BRANCH  17  23
ATOM     18  F   UNL     1      36.709 -23.544 -15.737  0.00  0.00    -0.202 F 
ATOM     19  F   UNL     1      33.326 -24.457 -12.533  0.00  0.00    -0.202 F 
ATOM     20  F   UNL     1      35.241 -24.844 -10.631  0.00  0.00    -0.199 F 
ATOM     21  F   UNL     1      38.614 -23.929 -13.826  0.00  0.00    -0.199 F 
ATOM     22  F   UNL     1      37.884 -24.580 -11.272  0.00  0.00    -0.199 F 
ATOM     23  C   UNL     1      35.002 -23.997 -14.150  0.00  0.00    +0.057 A 
ATOM     24  C   UNL     1      36.342 -23.861 -14.488  0.00  0.00    +0.170 A 
ATOM     25  C   UNL     1      34.620 -24.326 -12.857  0.00  0.00    +0.170 A 
ATOM     26  C   UNL     1      35.597 -24.524 -11.881  0.00  0.00    +0.197 A 
ATOM     27  C   UNL     1      37.318 -24.059 -13.512  0.00  0.00    +0.197 A 
ATOM     28  C   UNL     1      36.947 -24.390 -12.209  0.00  0.00    +0.199 A 
ENDBRANCH  17  23
ENDBRANCH   2  17
TORSDOF 5
ENDMDL
MODEL 6
REMARK VINA RESULT:     -10.5      6.614     10.487
REMARK  Name = 445770
REMARK  5 active torsions:
REMARK  status: ('A' for Active; 'I' for Inactive)
REMARK    1  A    between atoms: N_2  and  C_17
REMARK    2  A    between atoms: C_3  and  C_5
REMARK    3  A    between atoms: C_6  and  S_11
REMARK    4  A    between atoms: S_11  and  N_14
REMARK    5  A    between atoms: C_17  and  C_23
REMARK                            x       y       z     vdW  Elec       q    Type
REMARK                         _______ _______ _______ _____ _____    ______ ____
ROOT
ATOM      1  O   UNL     1      33.461 -23.939 -18.134  0.00  0.00    -0.270 OA
ATOM      2  N   UNL     1      34.290 -22.798 -16.296  0.00  0.00    -0.297 N 
ATOM      3  C   UNL     1      34.039 -22.944 -17.665  0.00  0.00    +0.246 C 
ATOM      4  H   UNL     1      34.754 -21.984 -15.991  0.00  0.00    +0.150 HD
ENDROOT
BRANCH   3   5
ATOM      5  C   UNL     1      34.512 -21.883 -18.540  0.00  0.00    +0.053 C 
ATOM      6  C   UNL     1      35.419 -19.848 -20.219  0.00  0.00    +0.122 C 
ATOM      7  C   UNL     1      35.877 -21.611 -18.631  0.00  0.00    +0.006 C 
ATOM      8  C   UNL     1      33.600 -21.138 -19.287  0.00  0.00    +0.006 C 
ATOM      9  C   UNL     1      36.330 -20.593 -19.470  0.00  0.00    +0.020 C 
ATOM     10  C   UNL     1      34.054 -20.120 -20.128  0.00  0.00    +0.020 C 
BRANCH   6  11
ATOM     11  S   UNL     1      35.986 -18.575 -21.270  0.00  0.00    +0.057 S 
ATOM     12  O   UNL     1      35.547 -17.297 -20.729  0.00  0.00    -0.153 OA
ATOM     13  O   UNL     1      35.654 -18.931 -22.643  0.00  0.00    -0.153 OA
BRANCH  11  14
ATOM     14  N   UNL     1      37.676 -18.709 -21.060  0.00  0.00    -0.203 NA
ATOM     15  H   UNL     1      37.897 -19.614 -20.646  0.00  0.00    +0.144 HD
ATOM     16  H   UNL     1      38.002 -17.964 -20.444  0.00  0.00    +0.144 HD
ENDBRANCH  11  14
ENDBRANCH   6  11
ENDBRANCH   3   5
BRANCH   2  17
ATOM     17  C   UNL     1      33.904 -23.776 -15.303  0.00  0.00    +0.121 C 
BRANCH  17  23
ATOM     18  F   UNL     1      33.320 -24.514 -12.640  0.00  0.00    -0.202 F 
ATOM     19  F   UNL     1      36.650 -23.412 -15.840  0.00  0.00    -0.202 F 
ATOM     20  F   UNL     1      38.577 -23.746 -13.939  0.00  0.00    -0.199 F 
ATOM     21  F   UNL     1      35.255 -24.849 -10.749  0.00  0.00    -0.199 F 
ATOM     22  F   UNL     1      37.885 -24.464 -11.394  0.00  0.00    -0.199 F 
ATOM     23  C   UNL     1      34.969 -23.961 -14.255  0.00  0.00    +0.057 A 
ATOM     24  C   UNL     1      34.606 -24.325 -12.966  0.00  0.00    +0.170 A 
ATOM     25  C   UNL     1      36.301 -23.764 -14.594  0.00  0.00    +0.170 A 
ATOM     26  C   UNL     1      37.289 -23.935 -13.625  0.00  0.00    +0.197 A 
ATOM     27  C   UNL     1      35.594 -24.495 -11.997  0.00  0.00    +0.197 A 
ATOM     28  C   UNL     1      36.936 -24.301 -12.325  0.00  0.00    +0.199 A 
ENDBRANCH  17  23
ENDBRANCH   2  17
TORSDOF 5
ENDMDL
MODEL 7
REMARK VINA RESULT:     -10.2      4.008      6.156
REMARK  Name = 445770
REMARK  5 active torsions:
REMARK  status: ('A' for Active; 'I' for Inactive)
REMARK    1  A    between atoms: N_2  and  C_17
REMARK    2  A    between atoms: C_3  and  C_5
REMARK    3  A    between atoms: C_6  and  S_11
REMARK    4  A    between atoms: S_11  and  N_14
REMARK    5  A    between atoms: C_17  and  C_23
REMARK                            x       y       z     vdW  Elec       q    Type
REMARK                         _______ _______ _______ _____ _____    ______ ____
ROOT
ATOM      1  O   UNL     1      32.955 -13.344 -24.852  0.00  0.00    -0.270 OA
ATOM      2  N   UNL     1      33.873 -12.075 -23.143  0.00  0.00    -0.297 N 
ATOM      3  C   UNL     1      33.636 -13.281 -23.813  0.00  0.00    +0.246 C 
ATOM      4  H   UNL     1      34.421 -12.097 -22.325  0.00  0.00    +0.150 HD
ENDROOT
BRANCH   3   5
ATOM      5  C   UNL     1      34.204 -14.485 -23.227  0.00  0.00    +0.053 C 
ATOM      6  C   UNL     1      35.293 -16.794 -22.103  0.00  0.00    +0.122 C 
ATOM      7  C   UNL     1      34.467 -15.594 -24.031  0.00  0.00    +0.006 C 
ATOM      8  C   UNL     1      34.484 -14.530 -21.862  0.00  0.00    +0.006 C 
ATOM      9  C   UNL     1      35.011 -16.749 -23.469  0.00  0.00    +0.020 C 
ATOM     10  C   UNL     1      35.030 -15.685 -21.300  0.00  0.00    +0.020 C 
BRANCH   6  11
ATOM     11  S   UNL     1      35.975 -18.239 -21.400  0.00  0.00    +0.057 S 
ATOM     12  O   UNL     1      35.211 -19.387 -21.868  0.00  0.00    -0.153 OA
ATOM     13  O   UNL     1      36.146 -18.018 -19.971  0.00  0.00    -0.153 OA
BRANCH  11  14
ATOM     14  N   UNL     1      37.515 -18.265 -22.141  0.00  0.00    -0.203 NA
ATOM     15  H   UNL     1      37.795 -17.313 -22.376  0.00  0.00    +0.144 HD
ATOM     16  H   UNL     1      37.473 -18.828 -22.991  0.00  0.00    +0.144 HD
ENDBRANCH  11  14
ENDBRANCH   6  11
ENDBRANCH   3   5
BRANCH   2  17
ATOM     17  C   UNL     1      33.357 -10.799 -23.586  0.00  0.00    +0.121 C 
BRANCH  17  23
ATOM     18  F   UNL     1      31.601 -11.804 -21.615  0.00  0.00    -0.202 F 
ATOM     19  F   UNL     1      34.104  -8.103 -23.221  0.00  0.00    -0.202 F 
ATOM     20  F   UNL     1      33.200  -6.596 -21.137  0.00  0.00    -0.199 F 
ATOM     21  F   UNL     1      30.707 -10.288 -19.533  0.00  0.00    -0.199 F 
ATOM     22  F   UNL     1      31.504  -7.683 -19.290  0.00  0.00    -0.199 F 
ATOM     23  C   UNL     1      32.860  -9.966 -22.435  0.00  0.00    +0.057 A 
ATOM     24  C   UNL     1      31.998 -10.529 -21.503  0.00  0.00    +0.170 A 
ATOM     25  C   UNL     1      33.272  -8.645 -22.321  0.00  0.00    +0.170 A 
ATOM     26  C   UNL     1      32.812  -7.872 -21.255  0.00  0.00    +0.197 A 
ATOM     27  C   UNL     1      31.538  -9.755 -20.439  0.00  0.00    +0.197 A 
ATOM     28  C   UNL     1      31.945  -8.426 -20.313  0.00  0.00    +0.199 A 
ENDBRANCH  17  23
ENDBRANCH   2  17
TORSDOF 5
ENDMDL
MODEL 8
REMARK VINA RESULT:     -10.2      4.011      6.237
REMARK  Name = 445770
REMARK  5 active torsions:
REMARK  status: ('A' for Active; 'I' for Inactive)
REMARK    1  A    between atoms: N_2  and  C_17
REMARK    2  A    between atoms: C_3  and  C_5
REMARK    3  A    between atoms: C_6  and  S_11
REMARK    4  A    between atoms: S_11  and  N_14
REMARK    5  A    between atoms: C_17  and  C_23
REMARK                            x       y       z     vdW  Elec       q    Type
REMARK                         _______ _______ _______ _____ _____    ______ ____
ROOT
ATOM      1  O   UNL     1      32.980 -13.327 -24.870  0.00  0.00    -0.270 OA
ATOM      2  N   UNL     1      33.853 -12.068 -23.130  0.00  0.00    -0.297 N 
ATOM      3  C   UNL     1      33.639 -13.269 -23.817  0.00  0.00    +0.246 C 
ATOM      4  H   UNL     1      34.384 -12.093 -22.301  0.00  0.00    +0.150 HD
ENDROOT
BRANCH   3   5
ATOM      5  C   UNL     1      34.203 -14.474 -23.230  0.00  0.00    +0.053 C 
ATOM      6  C   UNL     1      35.284 -16.786 -22.103  0.00  0.00    +0.122 C 
ATOM      7  C   UNL     1      34.459 -15.586 -24.032  0.00  0.00    +0.006 C 
ATOM      8  C   UNL     1      34.486 -14.517 -21.864  0.00  0.00    +0.006 C 
ATOM      9  C   UNL     1      34.999 -16.742 -23.468  0.00  0.00    +0.020 C 
ATOM     10  C   UNL     1      35.028 -15.674 -21.301  0.00  0.00    +0.020 C 
BRANCH   6  11
ATOM     11  S   UNL     1      35.961 -18.232 -21.399  0.00  0.00    +0.057 S 
ATOM     12  O   UNL     1      35.189 -19.377 -21.859  0.00  0.00    -0.153 OA
ATOM     13  O   UNL     1      36.141 -18.008 -19.971  0.00  0.00    -0.153 OA
BRANCH  11  14
ATOM     14  N   UNL     1      37.497 -18.270 -22.147  0.00  0.00    -0.203 NA
ATOM     15  H   UNL     1      38.182 -18.656 -21.498  0.00  0.00    +0.144 HD
ATOM     16  H   UNL     1      37.772 -17.323 -22.408  0.00  0.00    +0.144 HD
ENDBRANCH  11  14
ENDBRANCH   6  11
ENDBRANCH   3   5
BRANCH   2  17
ATOM     17  C   UNL     1      33.338 -10.791 -23.573  0.00  0.00    +0.121 C 
BRANCH  17  23
ATOM     18  F   UNL     1      34.083  -8.091 -23.214  0.00  0.00    -0.202 F 
ATOM     19  F   UNL     1      31.596 -11.796 -21.594  0.00  0.00    -0.202 F 
ATOM     20  F   UNL     1      30.711 -10.281 -19.507  0.00  0.00    -0.199 F 
ATOM     21  F   UNL     1      33.188  -6.584 -21.126  0.00  0.00    -0.199 F 
ATOM     22  F   UNL     1      31.503  -7.675 -19.270  0.00  0.00    -0.199 F 
ATOM     23  C   UNL     1      32.847  -9.956 -22.421  0.00  0.00    +0.057 A 
ATOM     24  C   UNL     1      33.256  -8.634 -22.310  0.00  0.00    +0.170 A 
ATOM     25  C   UNL     1      31.991 -10.520 -21.485  0.00  0.00    +0.170 A 
ATOM     26  C   UNL     1      31.535  -9.747 -20.417  0.00  0.00    +0.197 A 
ATOM     27  C   UNL     1      32.801  -7.861 -21.242  0.00  0.00    +0.197 A 
ATOM     28  C   UNL     1      31.940  -8.417 -20.295  0.00  0.00    +0.199 A 
ENDBRANCH  17  23
ENDBRANCH   2  17
TORSDOF 5
ENDMDL
MODEL 9
REMARK VINA RESULT:     -10.0      4.865      8.365
REMARK  Name = 445770
REMARK  5 active torsions:
REMARK  status: ('A' for Active; 'I' for Inactive)
REMARK    1  A    between atoms: N_2  and  C_17
REMARK    2  A    between atoms: C_3  and  C_5
REMARK    3  A    between atoms: C_6  and  S_11
REMARK    4  A    between atoms: S_11  and  N_14
REMARK    5  A    between atoms: C_17  and  C_23
REMARK                            x       y       z     vdW  Elec       q    Type
REMARK                         _______ _______ _______ _____ _____    ______ ____
ROOT
ATOM      1  O   UNL     1      37.732 -18.641 -21.011  0.00  0.00    -0.270 OA
ATOM      2  N   UNL     1      35.756 -19.551 -20.209  0.00  0.00    -0.297 N 
ATOM      3  C   UNL     1      36.503 -18.550 -20.840  0.00  0.00    +0.246 C 
ATOM      4  H   UNL     1      34.786 -19.414 -20.106  0.00  0.00    +0.150 HD
ENDROOT
BRANCH   3   5
ATOM      5  C   UNL     1      35.783 -17.363 -21.274  0.00  0.00    +0.053 C 
ATOM      6  C   UNL     1      34.402 -15.087 -22.106  0.00  0.00    +0.122 C 
ATOM      7  C   UNL     1      35.577 -17.131 -22.634  0.00  0.00    +0.006 C 
ATOM      8  C   UNL     1      35.300 -16.457 -20.330  0.00  0.00    +0.006 C 
ATOM      9  C   UNL     1      34.887 -15.993 -23.050  0.00  0.00    +0.020 C 
ATOM     10  C   UNL     1      34.609 -15.319 -20.747  0.00  0.00    +0.020 C 
BRANCH   6  11
ATOM     11  S   UNL     1      33.537 -13.663 -22.627  0.00  0.00    +0.057 S 
ATOM     12  O   UNL     1      34.502 -12.602 -22.880  0.00  0.00    -0.153 OA
ATOM     13  O   UNL     1      32.434 -13.432 -21.704  0.00  0.00    -0.153 OA
BRANCH  11  14
ATOM     14  N   UNL     1      32.902 -14.196 -24.121  0.00  0.00    -0.203 NA
ATOM     15  H   UNL     1      32.692 -15.192 -24.066  0.00  0.00    +0.144 HD
ATOM     16  H   UNL     1      33.588 -14.034 -24.859  0.00  0.00    +0.144 HD
ENDBRANCH  11  14
ENDBRANCH   6  11
ENDBRANCH   3   5
BRANCH   2  17
ATOM     17  C   UNL     1      36.330 -20.777 -19.701  0.00  0.00    +0.121 C 
BRANCH  17  23
ATOM     18  F   UNL     1      37.298 -21.975 -17.333  0.00  0.00    -0.202 F 
ATOM     19  F   UNL     1      33.533 -20.933 -20.032  0.00  0.00    -0.202 F 
ATOM     20  F   UNL     1      31.902 -22.144 -18.213  0.00  0.00    -0.199 F 
ATOM     21  F   UNL     1      35.657 -23.180 -15.520  0.00  0.00    -0.199 F 
ATOM     22  F   UNL     1      32.959 -23.267 -15.956  0.00  0.00    -0.199 F 
ATOM     23  C   UNL     1      35.428 -21.444 -18.697  0.00  0.00    +0.057 A 
ATOM     24  C   UNL     1      35.976 -22.012 -17.555  0.00  0.00    +0.170 A 
ATOM     25  C   UNL     1      34.060 -21.482 -18.928  0.00  0.00    +0.170 A 
ATOM     26  C   UNL     1      33.223 -22.099 -17.999  0.00  0.00    +0.197 A 
ATOM     27  C   UNL     1      35.140 -22.630 -16.627  0.00  0.00    +0.197 A 
ATOM     28  C   UNL     1      33.763 -22.674 -16.848  0.00  0.00    +0.199 A 
ENDBRANCH  17  23
ENDBRANCH   2  17
TORSDOF 5
ENDMDL
