MODEL 1
REMARK VINA RESULT:     -11.7      0.000      0.000
REMARK  Name = 444581
REMARK  5 active torsions:
REMARK  status: ('A' for Active; 'I' for Inactive)
REMARK    1  A    between atoms: N_2  and  C_7
REMARK    2  A    between atoms: N_3  and  C_20
REMARK    3  A    between atoms: C_8  and  O_13
REMARK    4  A    between atoms: O_13  and  C_14
REMARK    5  A    between atoms: C_21  and  C_28
REMARK                            x       y       z     vdW  Elec       q    Type
REMARK                         _______ _______ _______ _____ _____    ______ ____
ROOT
ATOM      1  O   UNL     1      35.585 -22.265 -18.502  0.00  0.00    -0.252 OA
ATOM      2  N   UNL     1      36.692 -20.211 -18.658  0.00  0.00    -0.268 N 
ATOM      3  N   UNL     1      36.973 -21.515 -16.771  0.00  0.00    -0.268 N 
ATOM      4  C   UNL     1      36.336 -21.417 -18.032  0.00  0.00    +0.308 C 
ATOM      5  H   UNL     1      37.306 -19.630 -18.154  0.00  0.00    +0.156 HD
ATOM      6  H   UNL     1      37.549 -20.756 -16.524  0.00  0.00    +0.156 HD
ENDROOT
BRANCH   2   7
ATOM      7  C   UNL     1      36.277 -19.730 -19.921  0.00  0.00    +0.052 C 
ATOM      8  C   UNL     1      35.462 -18.786 -22.395  0.00  0.00    +0.145 C 
ATOM      9  C   UNL     1      37.177 -19.036 -20.712  0.00  0.00    +0.018 C 
ATOM     10  C   UNL     1      34.978 -19.962 -20.341  0.00  0.00    +0.018 C 
ATOM     11  C   UNL     1      36.767 -18.560 -21.957  0.00  0.00    +0.039 C 
ATOM     12  C   UNL     1      34.567 -19.487 -21.587  0.00  0.00    +0.039 C 
BRANCH   8  13
ATOM     13  O   UNL     1      35.062 -18.323 -23.611  0.00  0.00    -0.453 OA
BRANCH  13  14
ATOM     14  C   UNL     1      34.649 -17.004 -23.694  0.00  0.00    +0.145 C 
ATOM     15  C   UNL     1      35.000 -16.124 -22.688  0.00  0.00    +0.037 C 
ATOM     16  C   UNL     1      33.895 -16.603 -24.782  0.00  0.00    +0.037 C 
ATOM     17  C   UNL     1      34.584 -14.795 -22.771  0.00  0.00    +0.003 C 
ATOM     18  C   UNL     1      33.478 -15.274 -24.865  0.00  0.00    +0.003 C 
ATOM     19  C   UNL     1      33.823 -14.370 -23.859  0.00  0.00    +0.000 C 
ENDBRANCH  13  14
ENDBRANCH   8  13
ENDBRANCH   2   7
BRANCH   3  20
ATOM     20  C   UNL     1      36.892 -22.544 -15.832  0.00  0.00    +0.052 C 
ATOM     21  C   UNL     1      36.732 -24.599 -13.953  0.00  0.00    +0.031 C 
ATOM     22  C   UNL     1      38.053 -23.179 -15.393  0.00  0.00    +0.015 C 
ATOM     23  C   UNL     1      35.651 -22.935 -15.331  0.00  0.00    +0.015 C 
ATOM     24  C   UNL     1      37.973 -24.208 -14.454  0.00  0.00    +0.004 C 
ATOM     25  C   UNL     1      35.570 -23.963 -14.392  0.00  0.00    +0.004 C 
BRANCH  21  28
ATOM     26  N   UNL     1      37.185 -26.931 -13.228  0.00  0.00    -0.343 N 
ATOM     27  N   UNL     1      36.048 -25.458 -11.815  0.00  0.00    -0.285 NA
ATOM     28  C   UNL     1      36.648 -25.670 -12.972  0.00  0.00    +0.117 C 
ATOM     29  H   UNL     1      37.118 -27.641 -12.551  0.00  0.00    +0.144 HD
ATOM     30  H   UNL     1      37.633 -27.109 -14.086  0.00  0.00    +0.144 HD
ATOM     31  H   UNL     1      35.990 -26.181 -11.150  0.00  0.00    +0.188 HD
ENDBRANCH  21  28
ENDBRANCH   3  20
TORSDOF 5
ENDMDL
MODEL 2
REMARK VINA RESULT:     -11.5      2.229      3.667
REMARK  Name = 444581
REMARK  5 active torsions:
REMARK  status: ('A' for Active; 'I' for Inactive)
REMARK    1  A    between atoms: N_2  and  C_7
REMARK    2  A    between atoms: N_3  and  C_20
REMARK    3  A    between atoms: C_8  and  O_13
REMARK    4  A    between atoms: O_13  and  C_14
REMARK    5  A    between atoms: C_21  and  C_28
REMARK                            x       y       z     vdW  Elec       q    Type
REMARK                         _______ _______ _______ _____ _____    ______ ____
ROOT
ATOM      1  O   UNL     1      33.862 -19.318 -20.255  0.00  0.00    -0.252 OA
ATOM      2  N   UNL     1      35.415 -19.439 -21.999  0.00  0.00    -0.268 N 
ATOM      3  N   UNL     1      35.665 -20.811 -20.157  0.00  0.00    -0.268 N 
ATOM      4  C   UNL     1      34.873 -19.801 -20.755  0.00  0.00    +0.308 C 
ATOM      5  H   UNL     1      36.233 -19.916 -22.267  0.00  0.00    +0.156 HD
ATOM      6  H   UNL     1      36.449 -21.102 -20.675  0.00  0.00    +0.156 HD
ENDROOT
BRANCH   2   7
ATOM      7  C   UNL     1      34.932 -18.473 -22.912  0.00  0.00    +0.052 C 
ATOM      8  C   UNL     1      33.982 -16.582 -24.699  0.00  0.00    +0.145 C 
ATOM      9  C   UNL     1      35.403 -17.173 -22.837  0.00  0.00    +0.018 C 
ATOM     10  C   UNL     1      33.996 -18.847 -23.862  0.00  0.00    +0.018 C 
ATOM     11  C   UNL     1      34.925 -16.220 -23.737  0.00  0.00    +0.039 C 
ATOM     12  C   UNL     1      33.517 -17.895 -24.762  0.00  0.00    +0.039 C 
BRANCH   8  13
ATOM     13  O   UNL     1      33.517 -15.652 -25.578  0.00  0.00    -0.453 OA
BRANCH  13  14
ATOM     14  C   UNL     1      33.494 -14.331 -25.165  0.00  0.00    +0.145 C 
ATOM     15  C   UNL     1      33.216 -14.043 -23.842  0.00  0.00    +0.037 C 
ATOM     16  C   UNL     1      33.749 -13.333 -26.089  0.00  0.00    +0.037 C 
ATOM     17  C   UNL     1      33.192 -12.712 -23.426  0.00  0.00    +0.003 C 
ATOM     18  C   UNL     1      33.725 -12.002 -25.673  0.00  0.00    +0.003 C 
ATOM     19  C   UNL     1      33.447 -11.690 -24.341  0.00  0.00    +0.000 C 
ENDBRANCH  13  14
ENDBRANCH   8  13
ENDBRANCH   2   7
BRANCH   3  20
ATOM     20  C   UNL     1      35.482 -21.448 -18.929  0.00  0.00    +0.052 C 
ATOM     21  C   UNL     1      35.115 -22.725 -16.476  0.00  0.00    +0.031 C 
ATOM     22  C   UNL     1      34.273 -22.083 -18.647  0.00  0.00    +0.015 C 
ATOM     23  C   UNL     1      36.508 -21.452 -17.985  0.00  0.00    +0.015 C 
ATOM     24  C   UNL     1      34.089 -22.721 -17.420  0.00  0.00    +0.004 C 
ATOM     25  C   UNL     1      36.326 -22.089 -16.758  0.00  0.00    +0.004 C 
BRANCH  21  28
ATOM     26  N   UNL     1      34.284 -22.753 -14.136  0.00  0.00    -0.343 N 
ATOM     27  N   UNL     1      35.370 -24.622 -15.023  0.00  0.00    -0.285 NA
ATOM     28  C   UNL     1      34.925 -23.390 -15.197  0.00  0.00    +0.117 C 
ATOM     29  H   UNL     1      34.165 -23.222 -13.280  0.00  0.00    +0.144 HD
ATOM     30  H   UNL     1      33.948 -21.834 -14.245  0.00  0.00    +0.144 HD
ATOM     31  H   UNL     1      35.243 -25.075 -14.159  0.00  0.00    +0.188 HD
ENDBRANCH  21  28
ENDBRANCH   3  20
TORSDOF 5
ENDMDL
MODEL 3
REMARK VINA RESULT:     -11.5      5.710     12.092
REMARK  Name = 444581
REMARK  5 active torsions:
REMARK  status: ('A' for Active; 'I' for Inactive)
REMARK    1  A    between atoms: N_2  and  C_7
REMARK    2  A    between atoms: N_3  and  C_20
REMARK    3  A    between atoms: C_8  and  O_13
REMARK    4  A    between atoms: O_13  and  C_14
REMARK    5  A    between atoms: C_21  and  C_28
REMARK                            x       y       z     vdW  Elec       q    Type
REMARK                         _______ _______ _______ _____ _____    ______ ____
ROOT
ATOM      1  O   UNL     1      34.574 -13.541 -21.306  0.00  0.00    -0.252 OA
ATOM      2  N   UNL     1      34.625 -15.034 -23.106  0.00  0.00    -0.268 N 
ATOM      3  N   UNL     1      34.069 -12.822 -23.477  0.00  0.00    -0.268 N 
ATOM      4  C   UNL     1      34.438 -13.779 -22.502  0.00  0.00    +0.308 C 
ATOM      5  H   UNL     1      34.479 -15.069 -24.079  0.00  0.00    +0.156 HD
ATOM      6  H   UNL     1      33.999 -13.158 -24.400  0.00  0.00    +0.156 HD
ENDROOT
BRANCH   2   7
ATOM      7  C   UNL     1      34.996 -16.251 -22.489  0.00  0.00    +0.052 C 
ATOM      8  C   UNL     1      35.722 -18.635 -21.279  0.00  0.00    +0.145 C 
ATOM      9  C   UNL     1      35.130 -17.391 -23.264  0.00  0.00    +0.018 C 
ATOM     10  C   UNL     1      35.218 -16.278 -21.122  0.00  0.00    +0.018 C 
ATOM     11  C   UNL     1      35.495 -18.592 -22.655  0.00  0.00    +0.039 C 
ATOM     12  C   UNL     1      35.584 -17.478 -20.512  0.00  0.00    +0.039 C 
BRANCH   8  13
ATOM     13  O   UNL     1      36.079 -19.807 -20.685  0.00  0.00    -0.453 OA
BRANCH  13  14
ATOM     14  C   UNL     1      35.108 -20.491 -19.974  0.00  0.00    +0.145 C 
ATOM     15  C   UNL     1      33.779 -20.153 -20.152  0.00  0.00    +0.037 C 
ATOM     16  C   UNL     1      35.493 -21.494 -19.103  0.00  0.00    +0.037 C 
ATOM     17  C   UNL     1      32.801 -20.842 -19.436  0.00  0.00    +0.003 C 
ATOM     18  C   UNL     1      34.515 -22.183 -18.387  0.00  0.00    +0.003 C 
ATOM     19  C   UNL     1      33.168 -21.857 -18.553  0.00  0.00    +0.000 C 
ENDBRANCH  13  14
ENDBRANCH   8  13
ENDBRANCH   2   7
BRANCH   3  20
ATOM     20  C   UNL     1      33.791 -11.466 -23.305  0.00  0.00    +0.052 C 
ATOM     21  C   UNL     1      33.236  -8.754 -22.957  0.00  0.00    +0.031 C 
ATOM     22  C   UNL     1      32.725 -11.070 -22.498  0.00  0.00    +0.015 C 
ATOM     23  C   UNL     1      34.581 -10.506 -23.937  0.00  0.00    +0.015 C 
ATOM     24  C   UNL     1      32.447  -9.714 -22.325  0.00  0.00    +0.004 C 
ATOM     25  C   UNL     1      34.304  -9.150 -23.764  0.00  0.00    +0.004 C 
BRANCH  21  28
ATOM     26  N   UNL     1      31.726  -6.794 -23.165  0.00  0.00    -0.343 N 
ATOM     27  N   UNL     1      33.856  -6.546 -22.238  0.00  0.00    -0.285 NA
ATOM     28  C   UNL     1      32.948  -7.340 -22.776  0.00  0.00    +0.117 C 
ATOM     29  H   UNL     1      31.552  -5.835 -23.033  0.00  0.00    +0.144 HD
ATOM     30  H   UNL     1      31.038  -7.368 -23.571  0.00  0.00    +0.144 HD
ATOM     31  H   UNL     1      33.664  -5.589 -22.115  0.00  0.00    +0.188 HD
ENDBRANCH  21  28
ENDBRANCH   3  20
TORSDOF 5
ENDMDL
MODEL 4
REMARK VINA RESULT:     -11.4      1.359      1.975
REMARK  Name = 444581
REMARK  5 active torsions:
REMARK  status: ('A' for Active; 'I' for Inactive)
REMARK    1  A    between atoms: N_2  and  C_7
REMARK    2  A    between atoms: N_3  and  C_20
REMARK    3  A    between atoms: C_8  and  O_13
REMARK    4  A    between atoms: O_13  and  C_14
REMARK    5  A    between atoms: C_21  and  C_28
REMARK                            x       y       z     vdW  Elec       q    Type
REMARK                         _______ _______ _______ _____ _____    ______ ____
ROOT
ATOM      1  O   UNL     1      36.818 -20.905 -16.900  0.00  0.00    -0.252 OA
ATOM      2  N   UNL     1      35.281 -21.580 -18.528  0.00  0.00    -0.268 N 
ATOM      3  N   UNL     1      35.508 -22.822 -16.593  0.00  0.00    -0.268 N 
ATOM      4  C   UNL     1      35.960 -21.684 -17.303  0.00  0.00    +0.308 C 
ATOM      5  H   UNL     1      34.617 -22.283 -18.713  0.00  0.00    +0.156 HD
ATOM      6  H   UNL     1      34.813 -23.356 -17.041  0.00  0.00    +0.156 HD
ENDROOT
BRANCH   2   7
ATOM      7  C   UNL     1      35.435 -20.592 -19.528  0.00  0.00    +0.052 C 
ATOM      8  C   UNL     1      35.736 -18.655 -21.485  0.00  0.00    +0.145 C 
ATOM      9  C   UNL     1      36.687 -20.046 -19.754  0.00  0.00    +0.018 C 
ATOM     10  C   UNL     1      34.330 -20.191 -20.260  0.00  0.00    +0.018 C 
ATOM     11  C   UNL     1      36.839 -19.070 -20.739  0.00  0.00    +0.039 C 
ATOM     12  C   UNL     1      34.481 -19.216 -21.246  0.00  0.00    +0.039 C 
BRANCH   8  13
ATOM     13  O   UNL     1      35.884 -17.704 -22.448  0.00  0.00    -0.453 OA
BRANCH  13  14
ATOM     14  C   UNL     1      35.360 -16.447 -22.197  0.00  0.00    +0.145 C 
ATOM     15  C   UNL     1      35.156 -16.051 -20.889  0.00  0.00    +0.037 C 
ATOM     16  C   UNL     1      35.054 -15.622 -23.264  0.00  0.00    +0.037 C 
ATOM     17  C   UNL     1      34.628 -14.785 -20.637  0.00  0.00    +0.003 C 
ATOM     18  C   UNL     1      34.525 -14.356 -23.012  0.00  0.00    +0.003 C 
ATOM     19  C   UNL     1      34.312 -13.937 -21.697  0.00  0.00    +0.000 C 
ENDBRANCH  13  14
ENDBRANCH   8  13
ENDBRANCH   2   7
BRANCH   3  20
ATOM     20  C   UNL     1      35.917 -23.289 -15.343  0.00  0.00    +0.052 C 
ATOM     21  C   UNL     1      36.733 -24.224 -12.845  0.00  0.00    +0.031 C 
ATOM     22  C   UNL     1      34.973 -23.524 -14.344  0.00  0.00    +0.015 C 
ATOM     23  C   UNL     1      37.269 -23.522 -15.094  0.00  0.00    +0.015 C 
ATOM     24  C   UNL     1      35.381 -23.991 -13.094  0.00  0.00    +0.004 C 
ATOM     25  C   UNL     1      37.678 -23.990 -13.845  0.00  0.00    +0.004 C 
BRANCH  21  28
ATOM     26  N   UNL     1      37.773 -23.868 -10.618  0.00  0.00    -0.343 N 
ATOM     27  N   UNL     1      36.971 -25.979 -11.220  0.00  0.00    -0.285 NA
ATOM     28  C   UNL     1      37.160 -24.712 -11.543  0.00  0.00    +0.117 C 
ATOM     29  H   UNL     1      38.053 -24.219  -9.743  0.00  0.00    +0.144 HD
ATOM     30  H   UNL     1      37.925 -22.922 -10.841  0.00  0.00    +0.144 HD
ATOM     31  H   UNL     1      37.259 -26.312 -10.340  0.00  0.00    +0.188 HD
ENDBRANCH  21  28
ENDBRANCH   3  20
TORSDOF 5
ENDMDL
MODEL 5
REMARK VINA RESULT:     -11.2      7.241     13.714
REMARK  Name = 444581
REMARK  5 active torsions:
REMARK  status: ('A' for Active; 'I' for Inactive)
REMARK    1  A    between atoms: N_2  and  C_7
REMARK    2  A    between atoms: N_3  and  C_20
REMARK    3  A    between atoms: C_8  and  O_13
REMARK    4  A    between atoms: O_13  and  C_14
REMARK    5  A    between atoms: C_21  and  C_28
REMARK                            x       y       z     vdW  Elec       q    Type
REMARK                         _______ _______ _______ _____ _____    ______ ____
ROOT
ATOM      1  O   UNL     1      34.263 -10.811 -23.817  0.00  0.00    -0.252 OA
ATOM      2  N   UNL     1      33.076 -12.233 -22.389  0.00  0.00    -0.268 N 
ATOM      3  N   UNL     1      32.599  -9.972 -22.398  0.00  0.00    -0.268 N 
ATOM      4  C   UNL     1      33.406 -10.992 -22.959  0.00  0.00    +0.308 C 
ATOM      5  H   UNL     1      32.364 -12.219 -21.710  0.00  0.00    +0.156 HD
ATOM      6  H   UNL     1      31.951 -10.266 -21.718  0.00  0.00    +0.156 HD
ENDROOT
BRANCH   2   7
ATOM      7  C   UNL     1      33.643 -13.498 -22.670  0.00  0.00    +0.052 C 
ATOM      8  C   UNL     1      34.755 -15.974 -23.221  0.00  0.00    +0.145 C 
ATOM      9  C   UNL     1      34.440 -14.110 -21.717  0.00  0.00    +0.018 C 
ATOM     10  C   UNL     1      33.391 -14.097 -23.892  0.00  0.00    +0.018 C 
ATOM     11  C   UNL     1      35.000 -15.357 -21.994  0.00  0.00    +0.039 C 
ATOM     12  C   UNL     1      33.950 -15.345 -24.170  0.00  0.00    +0.039 C 
BRANCH   8  13
ATOM     13  O   UNL     1      35.300 -17.192 -23.491  0.00  0.00    -0.453 OA
BRANCH  13  14
ATOM     14  C   UNL     1      35.445 -18.080 -22.438  0.00  0.00    +0.145 C 
ATOM     15  C   UNL     1      36.654 -18.142 -21.771  0.00  0.00    +0.037 C 
ATOM     16  C   UNL     1      34.376 -18.882 -22.083  0.00  0.00    +0.037 C 
ATOM     17  C   UNL     1      36.800 -19.037 -20.711  0.00  0.00    +0.003 C 
ATOM     18  C   UNL     1      34.522 -19.777 -21.023  0.00  0.00    +0.003 C 
ATOM     19  C   UNL     1      35.734 -19.855 -20.336  0.00  0.00    +0.000 C 
ENDBRANCH  13  14
ENDBRANCH   8  13
ENDBRANCH   2   7
BRANCH   3  20
ATOM     20  C   UNL     1      32.600  -8.606 -22.682  0.00  0.00    +0.052 C 
ATOM     21  C   UNL     1      32.605  -5.875 -23.250  0.00  0.00    +0.031 C 
ATOM     22  C   UNL     1      33.719  -7.832 -22.377  0.00  0.00    +0.015 C 
ATOM     23  C   UNL     1      31.483  -8.014 -23.271  0.00  0.00    +0.015 C 
ATOM     24  C   UNL     1      33.722  -6.466 -22.660  0.00  0.00    +0.004 C 
ATOM     25  C   UNL     1      31.485  -6.649 -23.555  0.00  0.00    +0.004 C 
BRANCH  21  28
ATOM     26  N   UNL     1      31.973  -3.535 -22.709  0.00  0.00    -0.343 N 
ATOM     27  N   UNL     1      33.215  -4.005 -24.631  0.00  0.00    -0.285 NA
ATOM     28  C   UNL     1      32.607  -4.451 -23.547  0.00  0.00    +0.117 C 
ATOM     29  H   UNL     1      31.988  -2.576 -22.928  0.00  0.00    +0.144 HD
ATOM     30  H   UNL     1      31.512  -3.848 -21.898  0.00  0.00    +0.144 HD
ATOM     31  H   UNL     1      33.218  -3.043 -24.835  0.00  0.00    +0.188 HD
ENDBRANCH  21  28
ENDBRANCH   3  20
TORSDOF 5
ENDMDL
MODEL 6
REMARK VINA RESULT:     -11.1      7.222     13.722
REMARK  Name = 444581
REMARK  5 active torsions:
REMARK  status: ('A' for Active; 'I' for Inactive)
REMARK    1  A    between atoms: N_2  and  C_7
REMARK    2  A    between atoms: N_3  and  C_20
REMARK    3  A    between atoms: C_8  and  O_13
REMARK    4  A    between atoms: O_13  and  C_14
REMARK    5  A    between atoms: C_21  and  C_28
REMARK                            x       y       z     vdW  Elec       q    Type
REMARK                         _______ _______ _______ _____ _____    ______ ____
ROOT
ATOM      1  O   UNL     1      34.263 -10.817 -23.679  0.00  0.00    -0.252 OA
ATOM      2  N   UNL     1      33.014 -12.283 -22.351  0.00  0.00    -0.268 N 
ATOM      3  N   UNL     1      32.512 -10.028 -22.339  0.00  0.00    -0.268 N 
ATOM      4  C   UNL     1      33.361 -11.026 -22.875  0.00  0.00    +0.308 C 
ATOM      5  H   UNL     1      32.265 -12.291 -21.713  0.00  0.00    +0.156 HD
ATOM      6  H   UNL     1      31.831 -10.342 -21.703  0.00  0.00    +0.156 HD
ENDROOT
BRANCH   2   7
ATOM      7  C   UNL     1      33.610 -13.535 -22.627  0.00  0.00    +0.052 C 
ATOM      8  C   UNL     1      34.776 -15.990 -23.166  0.00  0.00    +0.145 C 
ATOM      9  C   UNL     1      33.414 -14.121 -23.866  0.00  0.00    +0.018 C 
ATOM     10  C   UNL     1      34.377 -14.150 -21.652  0.00  0.00    +0.018 C 
ATOM     11  C   UNL     1      34.000 -15.357 -24.139  0.00  0.00    +0.039 C 
ATOM     12  C   UNL     1      34.965 -15.386 -21.923  0.00  0.00    +0.039 C 
BRANCH   8  13
ATOM     13  O   UNL     1      35.350 -17.195 -23.432  0.00  0.00    -0.453 OA
BRANCH  13  14
ATOM     14  C   UNL     1      35.487 -18.088 -22.383  0.00  0.00    +0.145 C 
ATOM     15  C   UNL     1      34.417 -18.894 -22.040  0.00  0.00    +0.037 C 
ATOM     16  C   UNL     1      36.691 -18.150 -21.705  0.00  0.00    +0.037 C 
ATOM     17  C   UNL     1      34.555 -19.793 -20.982  0.00  0.00    +0.003 C 
ATOM     18  C   UNL     1      36.829 -19.049 -20.648  0.00  0.00    +0.003 C 
ATOM     19  C   UNL     1      35.760 -19.871 -20.286  0.00  0.00    +0.000 C 
ENDBRANCH  13  14
ENDBRANCH   8  13
ENDBRANCH   2   7
BRANCH   3  20
ATOM     20  C   UNL     1      32.514  -8.655 -22.592  0.00  0.00    +0.052 C 
ATOM     21  C   UNL     1      32.516  -5.911 -23.096  0.00  0.00    +0.031 C 
ATOM     22  C   UNL     1      31.426  -8.063 -23.231  0.00  0.00    +0.015 C 
ATOM     23  C   UNL     1      33.604  -7.876 -22.204  0.00  0.00    +0.015 C 
ATOM     24  C   UNL     1      31.426  -6.691 -23.484  0.00  0.00    +0.004 C 
ATOM     25  C   UNL     1      33.606  -6.504 -22.456  0.00  0.00    +0.004 C 
BRANCH  21  28
ATOM     26  N   UNL     1      31.953  -3.578 -22.458  0.00  0.00    -0.343 N 
ATOM     27  N   UNL     1      33.057  -4.016 -24.470  0.00  0.00    -0.285 NA
ATOM     28  C   UNL     1      32.518  -4.481 -23.358  0.00  0.00    +0.117 C 
ATOM     29  H   UNL     1      31.966  -2.615 -22.654  0.00  0.00    +0.144 HD
ATOM     30  H   UNL     1      31.544  -3.906 -21.625  0.00  0.00    +0.144 HD
ATOM     31  H   UNL     1      33.060  -3.048 -24.650  0.00  0.00    +0.188 HD
ENDBRANCH  21  28
ENDBRANCH   3  20
TORSDOF 5
ENDMDL
MODEL 7
REMARK VINA RESULT:     -11.1      3.612     10.612
REMARK  Name = 444581
REMARK  5 active torsions:
REMARK  status: ('A' for Active; 'I' for Inactive)
REMARK    1  A    between atoms: N_2  and  C_7
REMARK    2  A    between atoms: N_3  and  C_20
REMARK    3  A    between atoms: C_8  and  O_13
REMARK    4  A    between atoms: O_13  and  C_14
REMARK    5  A    between atoms: C_21  and  C_28
REMARK                            x       y       z     vdW  Elec       q    Type
REMARK                         _______ _______ _______ _____ _____    ______ ____
ROOT
ATOM      1  O   UNL     1      33.649 -19.333 -20.306  0.00  0.00    -0.252 OA
ATOM      2  N   UNL     1      35.623 -20.559 -20.039  0.00  0.00    -0.268 N 
ATOM      3  N   UNL     1      35.486 -18.973 -21.713  0.00  0.00    -0.268 N 
ATOM      4  C   UNL     1      34.797 -19.598 -20.646  0.00  0.00    +0.308 C 
ATOM      5  H   UNL     1      36.523 -20.659 -20.425  0.00  0.00    +0.156 HD
ATOM      6  H   UNL     1      36.405 -19.288 -21.871  0.00  0.00    +0.156 HD
ENDROOT
BRANCH   2   7
ATOM      7  C   UNL     1      35.319 -21.401 -18.944  0.00  0.00    +0.052 C 
ATOM      8  C   UNL     1      34.725 -23.051 -16.800  0.00  0.00    +0.145 C 
ATOM      9  C   UNL     1      36.220 -21.503 -17.897  0.00  0.00    +0.018 C 
ATOM     10  C   UNL     1      34.127 -22.106 -18.941  0.00  0.00    +0.018 C 
ATOM     11  C   UNL     1      35.922 -22.334 -16.817  0.00  0.00    +0.039 C 
ATOM     12  C   UNL     1      33.827 -22.937 -17.861  0.00  0.00    +0.039 C 
BRANCH   8  13
ATOM     13  O   UNL     1      34.433 -23.861 -15.745  0.00  0.00    -0.453 OA
BRANCH  13  14
ATOM     14  C   UNL     1      33.276 -23.596 -15.031  0.00  0.00    +0.145 C 
ATOM     15  C   UNL     1      32.101 -23.353 -15.718  0.00  0.00    +0.037 C 
ATOM     16  C   UNL     1      33.327 -23.581 -13.649  0.00  0.00    +0.037 C 
ATOM     17  C   UNL     1      30.936 -23.086 -14.999  0.00  0.00    +0.003 C 
ATOM     18  C   UNL     1      32.162 -23.313 -12.930  0.00  0.00    +0.003 C 
ATOM     19  C   UNL     1      30.966 -23.065 -13.605  0.00  0.00    +0.000 C 
ENDBRANCH  13  14
ENDBRANCH   8  13
ENDBRANCH   2   7
BRANCH   3  20
ATOM     20  C   UNL     1      35.035 -17.970 -22.572  0.00  0.00    +0.052 C 
ATOM     21  C   UNL     1      34.136 -15.963 -24.289  0.00  0.00    +0.031 C 
ATOM     22  C   UNL     1      35.277 -16.631 -22.266  0.00  0.00    +0.015 C 
ATOM     23  C   UNL     1      34.345 -18.306 -23.736  0.00  0.00    +0.015 C 
ATOM     24  C   UNL     1      34.827 -15.627 -23.124  0.00  0.00    +0.004 C 
ATOM     25  C   UNL     1      33.895 -17.303 -24.594  0.00  0.00    +0.004 C 
BRANCH  21  28
ATOM     26  N   UNL     1      32.604 -14.087 -24.836  0.00  0.00    -0.343 N 
ATOM     27  N   UNL     1      34.251 -14.745 -26.357  0.00  0.00    -0.285 NA
ATOM     28  C   UNL     1      33.668 -14.918 -25.185  0.00  0.00    +0.117 C 
ATOM     29  H   UNL     1      32.304 -13.386 -25.457  0.00  0.00    +0.144 HD
ATOM     30  H   UNL     1      32.155 -14.202 -23.968  0.00  0.00    +0.144 HD
ATOM     31  H   UNL     1      33.936 -14.038 -26.965  0.00  0.00    +0.188 HD
ENDBRANCH  21  28
ENDBRANCH   3  20
TORSDOF 5
ENDMDL
MODEL 8
REMARK VINA RESULT:     -11.1      3.080     10.882
REMARK  Name = 444581
REMARK  5 active torsions:
REMARK  status: ('A' for Active; 'I' for Inactive)
REMARK    1  A    between atoms: N_2  and  C_7
REMARK    2  A    between atoms: N_3  and  C_20
REMARK    3  A    between atoms: C_8  and  O_13
REMARK    4  A    between atoms: O_13  and  C_14
REMARK    5  A    between atoms: C_21  and  C_28
REMARK                            x       y       z     vdW  Elec       q    Type
REMARK                         _______ _______ _______ _____ _____    ______ ____
ROOT
ATOM      1  O   UNL     1      33.845 -19.372 -19.864  0.00  0.00    -0.252 OA
ATOM      2  N   UNL     1      35.660 -20.844 -19.774  0.00  0.00    -0.268 N 
ATOM      3  N   UNL     1      35.504 -19.337 -21.518  0.00  0.00    -0.268 N 
ATOM      4  C   UNL     1      34.892 -19.809 -20.331  0.00  0.00    +0.308 C 
ATOM      5  H   UNL     1      36.479 -21.085 -20.265  0.00  0.00    +0.156 HD
ATOM      6  H   UNL     1      36.343 -19.783 -21.772  0.00  0.00    +0.156 HD
ENDROOT
BRANCH   2   7
ATOM      7  C   UNL     1      35.402 -21.582 -18.595  0.00  0.00    +0.052 C 
ATOM      8  C   UNL     1      34.898 -23.029 -16.287  0.00  0.00    +0.145 C 
ATOM      9  C   UNL     1      36.371 -21.642 -17.607  0.00  0.00    +0.018 C 
ATOM     10  C   UNL     1      34.187 -22.230 -18.453  0.00  0.00    +0.018 C 
ATOM     11  C   UNL     1      36.118 -22.371 -16.445  0.00  0.00    +0.039 C 
ATOM     12  C   UNL     1      33.932 -22.958 -17.291  0.00  0.00    +0.039 C 
BRANCH   8  13
ATOM     13  O   UNL     1      34.649 -23.739 -15.153  0.00  0.00    -0.453 OA
BRANCH  13  14
ATOM     14  C   UNL     1      35.727 -24.057 -14.344  0.00  0.00    +0.145 C 
ATOM     15  C   UNL     1      36.401 -25.245 -14.555  0.00  0.00    +0.037 C 
ATOM     16  C   UNL     1      36.101 -23.176 -13.345  0.00  0.00    +0.037 C 
ATOM     17  C   UNL     1      37.487 -25.566 -13.740  0.00  0.00    +0.003 C 
ATOM     18  C   UNL     1      37.187 -23.497 -12.529  0.00  0.00    +0.003 C 
ATOM     19  C   UNL     1      37.880 -24.692 -12.727  0.00  0.00    +0.000 C 
ENDBRANCH  13  14
ENDBRANCH   8  13
ENDBRANCH   2   7
BRANCH   3  20
ATOM     20  C   UNL     1      35.074 -18.324 -22.376  0.00  0.00    +0.052 C 
ATOM     21  C   UNL     1      34.212 -16.299 -24.090  0.00  0.00    +0.031 C 
ATOM     22  C   UNL     1      34.387 -18.646 -23.546  0.00  0.00    +0.015 C 
ATOM     23  C   UNL     1      35.329 -16.989 -22.062  0.00  0.00    +0.015 C 
ATOM     24  C   UNL     1      33.957 -17.634 -24.404  0.00  0.00    +0.004 C 
ATOM     25  C   UNL     1      34.898 -15.976 -22.919  0.00  0.00    +0.004 C 
BRANCH  21  28
ATOM     26  N   UNL     1      32.804 -14.313 -24.582  0.00  0.00    -0.343 N 
ATOM     27  N   UNL     1      34.261 -15.155 -26.203  0.00  0.00    -0.285 NA
ATOM     28  C   UNL     1      33.762 -15.243 -24.983  0.00  0.00    +0.117 C 
ATOM     29  H   UNL     1      32.515 -13.606 -25.202  0.00  0.00    +0.144 HD
ATOM     30  H   UNL     1      32.418 -14.364 -23.678  0.00  0.00    +0.144 HD
ATOM     31  H   UNL     1      33.959 -14.441 -26.809  0.00  0.00    +0.188 HD
ENDBRANCH  21  28
ENDBRANCH   3  20
TORSDOF 5
ENDMDL
MODEL 9
REMARK VINA RESULT:     -11.0      2.366      3.009
REMARK  Name = 444581
REMARK  5 active torsions:
REMARK  status: ('A' for Active; 'I' for Inactive)
REMARK    1  A    between atoms: N_2  and  C_7
REMARK    2  A    between atoms: N_3  and  C_20
REMARK    3  A    between atoms: C_8  and  O_13
REMARK    4  A    between atoms: O_13  and  C_14
REMARK    5  A    between atoms: C_21  and  C_28
REMARK                            x       y       z     vdW  Elec       q    Type
REMARK                         _______ _______ _______ _____ _____    ______ ____
ROOT
ATOM      1  O   UNL     1      33.166 -20.776 -18.886  0.00  0.00    -0.252 OA
ATOM      2  N   UNL     1      35.414 -20.759 -19.532  0.00  0.00    -0.268 N 
ATOM      3  N   UNL     1      34.749 -22.086 -17.762  0.00  0.00    -0.268 N 
ATOM      4  C   UNL     1      34.322 -21.162 -18.746  0.00  0.00    +0.308 C 
ATOM      5  H   UNL     1      36.283 -21.157 -19.298  0.00  0.00    +0.156 HD
ATOM      6  H   UNL     1      35.708 -22.305 -17.768  0.00  0.00    +0.156 HD
ENDROOT
BRANCH   2   7
ATOM      7  C   UNL     1      35.418 -19.851 -20.616  0.00  0.00    +0.052 C 
ATOM      8  C   UNL     1      35.427 -18.075 -22.742  0.00  0.00    +0.145 C 
ATOM      9  C   UNL     1      34.328 -19.809 -21.469  0.00  0.00    +0.018 C 
ATOM     10  C   UNL     1      36.512 -19.023 -20.804  0.00  0.00    +0.018 C 
ATOM     11  C   UNL     1      34.332 -18.915 -22.540  0.00  0.00    +0.039 C 
ATOM     12  C   UNL     1      36.517 -18.128 -21.874  0.00  0.00    +0.039 C 
BRANCH   8  13
ATOM     13  O   UNL     1      35.430 -17.201 -23.786  0.00  0.00    -0.453 OA
BRANCH  13  14
ATOM     14  C   UNL     1      34.744 -16.008 -23.628  0.00  0.00    +0.145 C 
ATOM     15  C   UNL     1      34.926 -15.274 -22.472  0.00  0.00    +0.037 C 
ATOM     16  C   UNL     1      33.895 -15.584 -24.634  0.00  0.00    +0.037 C 
ATOM     17  C   UNL     1      34.235 -14.072 -22.313  0.00  0.00    +0.003 C 
ATOM     18  C   UNL     1      33.203 -14.382 -24.475  0.00  0.00    +0.003 C 
ATOM     19  C   UNL     1      33.373 -13.626 -23.315  0.00  0.00    +0.000 C 
ENDBRANCH  13  14
ENDBRANCH   8  13
ENDBRANCH   2   7
BRANCH   3  20
ATOM     20  C   UNL     1      33.990 -22.729 -16.783  0.00  0.00    +0.052 C 
ATOM     21  C   UNL     1      32.473 -24.013 -14.825  0.00  0.00    +0.031 C 
ATOM     22  C   UNL     1      34.611 -23.248 -15.648  0.00  0.00    +0.015 C 
ATOM     23  C   UNL     1      32.609 -22.852 -16.940  0.00  0.00    +0.015 C 
ATOM     24  C   UNL     1      33.853 -23.890 -14.669  0.00  0.00    +0.004 C 
ATOM     25  C   UNL     1      31.850 -23.493 -15.961  0.00  0.00    +0.004 C 
BRANCH  21  28
ATOM     26  N   UNL     1      30.306 -24.854 -13.952  0.00  0.00    -0.343 N 
ATOM     27  N   UNL     1      32.265 -25.133 -12.709  0.00  0.00    -0.285 NA
ATOM     28  C   UNL     1      31.681 -24.681 -13.804  0.00  0.00    +0.117 C 
ATOM     29  H   UNL     1      29.790 -25.310 -13.249  0.00  0.00    +0.144 HD
ATOM     30  H   UNL     1      29.852 -24.522 -14.759  0.00  0.00    +0.144 HD
ATOM     31  H   UNL     1      31.732 -25.586 -12.017  0.00  0.00    +0.188 HD
ENDBRANCH  21  28
ENDBRANCH   3  20
TORSDOF 5
ENDMDL
