MODEL 1
REMARK VINA RESULT:     -12.3      0.000      0.000
REMARK  Name = 49866474
REMARK  7 active torsions:
REMARK  status: ('A' for Active; 'I' for Inactive)
REMARK    1  A    between atoms: O_1  and  C_3
REMARK    2  A    between atoms: O_1  and  C_18
REMARK    3  A    between atoms: C_4  and  C_10
REMARK    4  A    between atoms: C_18  and  C_19
REMARK    5  A    between atoms: C_19  and  N_20
REMARK    6  A    between atoms: C_19  and  C_24
REMARK    7  A    between atoms: C_24  and  C_26
REMARK                            x       y       z     vdW  Elec       q    Type
REMARK                         _______ _______ _______ _____ _____    ______ ____
ROOT
ATOM      1  O   UNL     1      35.648 -17.090 -22.715  0.00  0.00    -0.476 OA
ENDROOT
BRANCH   1   3
ATOM      2  N   UNL     1      33.715 -15.747 -25.517  0.00  0.00    -0.239 NA
ATOM      3  C   UNL     1      34.889 -16.222 -23.457  0.00  0.00    +0.158 C 
ATOM      4  C   UNL     1      33.748 -14.121 -23.727  0.00  0.00    +0.022 C 
ATOM      5  C   UNL     1      34.520 -14.980 -22.951  0.00  0.00    +0.040 C 
ATOM      6  C   UNL     1      34.465 -16.554 -24.734  0.00  0.00    +0.136 C 
ATOM      7  C   UNL     1      33.375 -14.548 -24.991  0.00  0.00    +0.099 C 
BRANCH   4  10
ATOM      8  N   UNL     1      32.078  -9.286 -21.603  0.00  0.00    -0.236 N 
ATOM      9  N   UNL     1      31.384  -9.635 -20.507  0.00  0.00    -0.180 NA
ATOM     10  C   UNL     1      33.349 -12.826 -23.229  0.00  0.00    +0.002 C 
ATOM     11  C   UNL     1      32.202 -11.475 -21.594  0.00  0.00    +0.035 C 
ATOM     12  C   UNL     1      32.582 -12.745 -22.060  0.00  0.00    +0.003 C 
ATOM     13  C   UNL     1      32.595 -10.344 -22.301  0.00  0.00    +0.067 C 
ATOM     14  C   UNL     1      33.729 -11.674 -23.919  0.00  0.00    +0.001 C 
ATOM     15  C   UNL     1      33.359 -10.403 -23.468  0.00  0.00    +0.016 C 
ATOM     16  C   UNL     1      31.462 -10.967 -20.504  0.00  0.00    +0.119 C 
ATOM     17  H   UNL     1      32.203  -8.350 -21.881  0.00  0.00    +0.174 HD
ENDBRANCH   4  10
ENDBRANCH   1   3
BRANCH   1  18
ATOM     18  C   UNL     1      35.380 -18.476 -22.878  0.00  0.00    +0.184 C 
BRANCH  18  19
ATOM     19  C   UNL     1      35.677 -19.235 -21.579  0.00  0.00    -0.017 C 
BRANCH  19  20
ATOM     20  N   UNL     1      36.900 -18.679 -20.992  0.00  0.00    +0.384 N 
ATOM     21  H   UNL     1      37.712 -19.025 -21.504  0.00  0.00    -0.089 HD
ATOM     22  H   UNL     1      36.968 -18.962 -20.016  0.00  0.00    -0.089 HD
ATOM     23  H   UNL     1      36.872 -17.660 -21.050  0.00  0.00    -0.089 HD
ENDBRANCH  19  20
BRANCH  19  24
ATOM     24  C   UNL     1      34.531 -19.140 -20.543  0.00  0.00    +0.006 C 
BRANCH  24  26
ATOM     25  N   UNL     1      32.697 -21.934 -18.827  0.00  0.00    -0.234 NA
ATOM     26  C   UNL     1      34.216 -20.408 -19.857  0.00  0.00    -0.024 C 
ATOM     27  C   UNL     1      34.933 -21.269 -19.136  0.00  0.00    +0.065 C 
ATOM     28  C   UNL     1      34.084 -22.384 -18.593  0.00  0.00    +0.122 C 
ATOM     29  C   UNL     1      32.855 -20.893 -19.591  0.00  0.00    +0.072 C 
ATOM     30  C   UNL     1      36.303 -21.184 -18.697  0.00  0.00    -0.020 C 
ATOM     31  C   UNL     1      34.411 -22.682 -17.157  0.00  0.00    -0.004 C 
ATOM     32  C   UNL     1      36.635 -21.744 -17.519  0.00  0.00    -0.004 C 
ATOM     33  C   UNL     1      35.635 -22.389 -16.678  0.00  0.00    -0.003 C 
ENDBRANCH  24  26
ENDBRANCH  19  24
ENDBRANCH  18  19
ENDBRANCH   1  18
TORSDOF 7
ENDMDL
MODEL 2
REMARK VINA RESULT:     -12.2      4.264      7.433
REMARK  Name = 49866474
REMARK  7 active torsions:
REMARK  status: ('A' for Active; 'I' for Inactive)
REMARK    1  A    between atoms: O_1  and  C_3
REMARK    2  A    between atoms: O_1  and  C_18
REMARK    3  A    between atoms: C_4  and  C_10
REMARK    4  A    between atoms: C_18  and  C_19
REMARK    5  A    between atoms: C_19  and  N_20
REMARK    6  A    between atoms: C_19  and  C_24
REMARK    7  A    between atoms: C_24  and  C_26
REMARK                            x       y       z     vdW  Elec       q    Type
REMARK                         _______ _______ _______ _____ _____    ______ ____
ROOT
ATOM      1  O   UNL     1      36.001 -22.397 -17.876  0.00  0.00    -0.476 OA
ENDROOT
BRANCH   1   3
ATOM      2  N   UNL     1      32.665 -21.530 -19.104  0.00  0.00    -0.239 NA
ATOM      3  C   UNL     1      35.016 -21.767 -18.592  0.00  0.00    +0.158 C 
ATOM      4  C   UNL     1      34.302 -20.139 -20.213  0.00  0.00    +0.022 C 
ATOM      5  C   UNL     1      35.323 -20.761 -19.502  0.00  0.00    +0.040 C 
ATOM      6  C   UNL     1      33.683 -22.112 -18.432  0.00  0.00    +0.136 C 
ATOM      7  C   UNL     1      33.002 -20.556 -19.980  0.00  0.00    +0.099 C 
BRANCH   4  10
ATOM      8  N   UNL     1      35.250 -16.267 -24.058  0.00  0.00    -0.236 N 
ATOM      9  N   UNL     1      34.592 -16.716 -25.141  0.00  0.00    -0.180 NA
ATOM     10  C   UNL     1      34.589 -19.091 -21.165  0.00  0.00    +0.002 C 
ATOM     11  C   UNL     1      34.362 -18.151 -23.373  0.00  0.00    +0.035 C 
ATOM     12  C   UNL     1      34.070 -19.180 -22.463  0.00  0.00    +0.003 C 
ATOM     13  C   UNL     1      35.152 -17.082 -22.964  0.00  0.00    +0.067 C 
ATOM     14  C   UNL     1      35.379 -18.008 -20.780  0.00  0.00    +0.001 C 
ATOM     15  C   UNL     1      35.679 -16.976 -21.675  0.00  0.00    +0.016 C 
ATOM     16  C   UNL     1      34.053 -17.861 -24.720  0.00  0.00    +0.119 C 
ATOM     17  H   UNL     1      35.758 -15.424 -24.053  0.00  0.00    +0.174 HD
ENDBRANCH   4  10
ENDBRANCH   1   3
BRANCH   1  18
ATOM     18  C   UNL     1      36.779 -21.586 -17.006  0.00  0.00    +0.184 C 
BRANCH  18  19
ATOM     19  C   UNL     1      36.783 -22.172 -15.589  0.00  0.00    -0.017 C 
BRANCH  19  20
ATOM     20  N   UNL     1      35.518 -22.884 -15.383  0.00  0.00    +0.384 N 
ATOM     21  H   UNL     1      35.692 -23.889 -15.365  0.00  0.00    -0.089 HD
ATOM     22  H   UNL     1      34.876 -22.664 -16.144  0.00  0.00    -0.089 HD
ATOM     23  H   UNL     1      35.105 -22.594 -14.496  0.00  0.00    -0.089 HD
ENDBRANCH  19  20
BRANCH  19  24
ATOM     24  C   UNL     1      37.958 -23.147 -15.337  0.00  0.00    +0.006 C 
BRANCH  24  26
ATOM     25  N   UNL     1      36.917 -26.221 -13.444  0.00  0.00    -0.234 NA
ATOM     26  C   UNL     1      37.723 -24.127 -14.260  0.00  0.00    -0.024 C 
ATOM     27  C   UNL     1      37.620 -24.033 -12.934  0.00  0.00    +0.065 C 
ATOM     28  C   UNL     1      37.293 -25.358 -12.305  0.00  0.00    +0.122 C 
ATOM     29  C   UNL     1      37.257 -25.503 -14.475  0.00  0.00    +0.072 C 
ATOM     30  C   UNL     1      37.615 -22.863 -12.093  0.00  0.00    -0.020 C 
ATOM     31  C   UNL     1      36.237 -25.225 -11.245  0.00  0.00    -0.004 C 
ATOM     32  C   UNL     1      36.882 -22.889 -10.963  0.00  0.00    -0.004 C 
ATOM     33  C   UNL     1      36.076 -24.049 -10.609  0.00  0.00    -0.003 C 
ENDBRANCH  24  26
ENDBRANCH  19  24
ENDBRANCH  18  19
ENDBRANCH   1  18
TORSDOF 7
ENDMDL
MODEL 3
REMARK VINA RESULT:     -12.1      4.254      7.135
REMARK  Name = 49866474
REMARK  7 active torsions:
REMARK  status: ('A' for Active; 'I' for Inactive)
REMARK    1  A    between atoms: O_1  and  C_3
REMARK    2  A    between atoms: O_1  and  C_18
REMARK    3  A    between atoms: C_4  and  C_10
REMARK    4  A    between atoms: C_18  and  C_19
REMARK    5  A    between atoms: C_19  and  N_20
REMARK    6  A    between atoms: C_19  and  C_24
REMARK    7  A    between atoms: C_24  and  C_26
REMARK                            x       y       z     vdW  Elec       q    Type
REMARK                         _______ _______ _______ _____ _____    ______ ____
ROOT
ATOM      1  O   UNL     1      35.984 -22.388 -17.919  0.00  0.00    -0.476 OA
ENDROOT
BRANCH   1   3
ATOM      2  N   UNL     1      32.659 -21.481 -19.148  0.00  0.00    -0.239 NA
ATOM      3  C   UNL     1      35.007 -21.745 -18.633  0.00  0.00    +0.158 C 
ATOM      4  C   UNL     1      34.314 -20.103 -20.249  0.00  0.00    +0.022 C 
ATOM      5  C   UNL     1      35.326 -20.739 -19.539  0.00  0.00    +0.040 C 
ATOM      6  C   UNL     1      33.671 -22.076 -18.476  0.00  0.00    +0.136 C 
ATOM      7  C   UNL     1      33.009 -20.507 -20.019  0.00  0.00    +0.099 C 
BRANCH   4  10
ATOM      8  N   UNL     1      35.301 -16.223 -24.075  0.00  0.00    -0.236 N 
ATOM      9  N   UNL     1      34.608 -16.640 -25.148  0.00  0.00    -0.180 NA
ATOM     10  C   UNL     1      34.613 -19.055 -21.196  0.00  0.00    +0.002 C 
ATOM     11  C   UNL     1      34.371 -18.086 -23.390  0.00  0.00    +0.035 C 
ATOM     12  C   UNL     1      34.065 -19.114 -22.484  0.00  0.00    +0.003 C 
ATOM     13  C   UNL     1      35.201 -17.046 -22.987  0.00  0.00    +0.067 C 
ATOM     14  C   UNL     1      35.443 -18.000 -20.817  0.00  0.00    +0.001 C 
ATOM     15  C   UNL     1      35.757 -16.968 -21.708  0.00  0.00    +0.016 C 
ATOM     16  C   UNL     1      34.043 -17.773 -24.727  0.00  0.00    +0.119 C 
ATOM     17  H   UNL     1      35.835 -15.395 -24.072  0.00  0.00    +0.174 HD
ENDBRANCH   4  10
ENDBRANCH   1   3
BRANCH   1  18
ATOM     18  C   UNL     1      36.328 -21.831 -16.657  0.00  0.00    +0.184 C 
BRANCH  18  19
ATOM     19  C   UNL     1      36.030 -22.828 -15.531  0.00  0.00    -0.017 C 
BRANCH  19  20
ATOM     20  N   UNL     1      35.883 -22.078 -14.280  0.00  0.00    +0.384 N 
ATOM     21  H   UNL     1      36.212 -21.122 -14.416  0.00  0.00    -0.089 HD
ATOM     22  H   UNL     1      36.434 -22.526 -13.549  0.00  0.00    -0.089 HD
ATOM     23  H   UNL     1      34.901 -22.063 -14.006  0.00  0.00    -0.089 HD
ENDBRANCH  19  20
BRANCH  19  24
ATOM     24  C   UNL     1      34.745 -23.656 -15.777  0.00  0.00    +0.006 C 
BRANCH  24  26
ATOM     25  N   UNL     1      33.016 -24.296 -12.503  0.00  0.00    -0.234 NA
ATOM     26  C   UNL     1      33.774 -23.629 -14.666  0.00  0.00    -0.024 C 
ATOM     27  C   UNL     1      32.477 -23.334 -14.583  0.00  0.00    +0.065 C 
ATOM     28  C   UNL     1      31.946 -23.547 -13.194  0.00  0.00    +0.122 C 
ATOM     29  C   UNL     1      34.006 -24.227 -13.345  0.00  0.00    +0.072 C 
ATOM     30  C   UNL     1      31.537 -23.017 -15.627  0.00  0.00    -0.020 C 
ATOM     31  C   UNL     1      30.610 -24.237 -13.209  0.00  0.00    -0.004 C 
ATOM     32  C   UNL     1      30.252 -23.387 -15.468  0.00  0.00    -0.004 C 
ATOM     33  C   UNL     1      29.817 -24.128 -14.292  0.00  0.00    -0.003 C 
ENDBRANCH  24  26
ENDBRANCH  19  24
ENDBRANCH  18  19
ENDBRANCH   1  18
TORSDOF 7
ENDMDL
MODEL 4
REMARK VINA RESULT:     -12.0      1.788     10.012
REMARK  Name = 49866474
REMARK  7 active torsions:
REMARK  status: ('A' for Active; 'I' for Inactive)
REMARK    1  A    between atoms: O_1  and  C_3
REMARK    2  A    between atoms: O_1  and  C_18
REMARK    3  A    between atoms: C_4  and  C_10
REMARK    4  A    between atoms: C_18  and  C_19
REMARK    5  A    between atoms: C_19  and  N_20
REMARK    6  A    between atoms: C_19  and  C_24
REMARK    7  A    between atoms: C_24  and  C_26
REMARK                            x       y       z     vdW  Elec       q    Type
REMARK                         _______ _______ _______ _____ _____    ______ ____
ROOT
ATOM      1  O   UNL     1      35.157 -14.855 -23.068  0.00  0.00    -0.476 OA
ENDROOT
BRANCH   1   3
ATOM      2  N   UNL     1      34.195 -18.090 -24.480  0.00  0.00    -0.239 NA
ATOM      3  C   UNL     1      34.934 -16.204 -23.159  0.00  0.00    +0.158 C 
ATOM      4  C   UNL     1      34.966 -18.415 -22.211  0.00  0.00    +0.022 C 
ATOM      5  C   UNL     1      35.201 -17.049 -22.088  0.00  0.00    +0.040 C 
ATOM      6  C   UNL     1      34.436 -16.769 -24.323  0.00  0.00    +0.136 C 
ATOM      7  C   UNL     1      34.468 -18.880 -23.417  0.00  0.00    +0.099 C 
BRANCH   4  10
ATOM      8  N   UNL     1      35.716 -21.954 -18.017  0.00  0.00    -0.236 N 
ATOM      9  N   UNL     1      34.500 -22.495 -17.828  0.00  0.00    -0.180 NA
ATOM     10  C   UNL     1      35.234 -19.318 -21.117  0.00  0.00    +0.002 C 
ATOM     11  C   UNL     1      34.475 -20.971 -19.534  0.00  0.00    +0.035 C 
ATOM     12  C   UNL     1      34.193 -20.100 -20.599  0.00  0.00    +0.003 C 
ATOM     13  C   UNL     1      35.768 -21.031 -19.027  0.00  0.00    +0.067 C 
ATOM     14  C   UNL     1      36.523 -19.399 -20.589  0.00  0.00    +0.001 C 
ATOM     15  C   UNL     1      36.819 -20.260 -19.528  0.00  0.00    +0.016 C 
ATOM     16  C   UNL     1      33.749 -21.894 -18.752  0.00  0.00    +0.119 C 
ATOM     17  H   UNL     1      36.501 -22.200 -17.477  0.00  0.00    +0.174 HD
ENDBRANCH   4  10
ENDBRANCH   1   3
BRANCH   1  18
ATOM     18  C   UNL     1      34.320 -14.125 -22.180  0.00  0.00    +0.184 C 
BRANCH  18  19
ATOM     19  C   UNL     1      33.524 -13.062 -22.945  0.00  0.00    -0.017 C 
BRANCH  19  20
ATOM     20  N   UNL     1      32.694 -13.741 -23.945  0.00  0.00    +0.384 N 
ATOM     21  H   UNL     1      32.728 -14.749 -23.787  0.00  0.00    -0.089 HD
ATOM     22  H   UNL     1      33.046 -13.531 -24.878  0.00  0.00    -0.089 HD
ATOM     23  H   UNL     1      31.731 -13.417 -23.863  0.00  0.00    -0.089 HD
ENDBRANCH  19  20
BRANCH  19  24
ATOM     24  C   UNL     1      32.614 -12.207 -22.030  0.00  0.00    +0.006 C 
BRANCH  24  26
ATOM     25  N   UNL     1      33.703  -8.826 -23.252  0.00  0.00    -0.234 NA
ATOM     26  C   UNL     1      32.705 -10.753 -22.257  0.00  0.00    -0.024 C 
ATOM     27  C   UNL     1      32.299  -9.685 -21.570  0.00  0.00    +0.065 C 
ATOM     28  C   UNL     1      32.726  -8.404 -22.228  0.00  0.00    +0.122 C 
ATOM     29  C   UNL     1      33.573 -10.121 -23.260  0.00  0.00    +0.072 C 
ATOM     30  C   UNL     1      31.686  -9.608 -20.269  0.00  0.00    -0.020 C 
ATOM     31  C   UNL     1      33.256  -7.415 -21.228  0.00  0.00    -0.004 C 
ATOM     32  C   UNL     1      31.944  -8.532 -19.501  0.00  0.00    -0.004 C 
ATOM     33  C   UNL     1      32.853  -7.484 -19.945  0.00  0.00    -0.003 C 
ENDBRANCH  24  26
ENDBRANCH  19  24
ENDBRANCH  18  19
ENDBRANCH   1  18
TORSDOF 7
ENDMDL
MODEL 5
REMARK VINA RESULT:     -11.8      4.181      7.326
REMARK  Name = 49866474
REMARK  7 active torsions:
REMARK  status: ('A' for Active; 'I' for Inactive)
REMARK    1  A    between atoms: O_1  and  C_3
REMARK    2  A    between atoms: O_1  and  C_18
REMARK    3  A    between atoms: C_4  and  C_10
REMARK    4  A    between atoms: C_18  and  C_19
REMARK    5  A    between atoms: C_19  and  N_20
REMARK    6  A    between atoms: C_19  and  C_24
REMARK    7  A    between atoms: C_24  and  C_26
REMARK                            x       y       z     vdW  Elec       q    Type
REMARK                         _______ _______ _______ _____ _____    ______ ____
ROOT
ATOM      1  O   UNL     1      33.149 -22.315 -18.272  0.00  0.00    -0.476 OA
ENDROOT
BRANCH   1   3
ATOM      2  N   UNL     1      36.627 -21.299 -18.777  0.00  0.00    -0.239 NA
ATOM      3  C   UNL     1      34.233 -21.642 -18.770  0.00  0.00    +0.158 C 
ATOM      4  C   UNL     1      35.201 -19.990 -20.227  0.00  0.00    +0.022 C 
ATOM      5  C   UNL     1      34.082 -20.655 -19.738  0.00  0.00    +0.040 C 
ATOM      6  C   UNL     1      35.516 -21.923 -18.327  0.00  0.00    +0.136 C 
ATOM      7  C   UNL     1      36.440 -20.346 -19.719  0.00  0.00    +0.099 C 
BRANCH   4  10
ATOM      8  N   UNL     1      34.590 -16.237 -24.254  0.00  0.00    -0.236 N 
ATOM      9  N   UNL     1      33.950 -16.907 -25.228  0.00  0.00    -0.180 NA
ATOM     10  C   UNL     1      35.076 -18.961 -21.233  0.00  0.00    +0.002 C 
ATOM     11  C   UNL     1      34.335 -18.245 -23.413  0.00  0.00    +0.035 C 
ATOM     12  C   UNL     1      34.444 -19.260 -22.448  0.00  0.00    +0.003 C 
ATOM     13  C   UNL     1      34.851 -16.984 -23.138  0.00  0.00    +0.067 C 
ATOM     14  C   UNL     1      35.585 -17.687 -20.983  0.00  0.00    +0.001 C 
ATOM     15  C   UNL     1      35.484 -16.666 -21.934  0.00  0.00    +0.016 C 
ATOM     16  C   UNL     1      33.796 -18.127 -24.712  0.00  0.00    +0.119 C 
ATOM     17  H   UNL     1      34.849 -15.291 -24.337  0.00  0.00    +0.174 HD
ENDBRANCH   4  10
ENDBRANCH   1   3
BRANCH   1  18
ATOM     18  C   UNL     1      33.416 -23.441 -17.447  0.00  0.00    +0.184 C 
BRANCH  18  19
ATOM     19  C   UNL     1      33.263 -23.070 -15.967  0.00  0.00    -0.017 C 
BRANCH  19  20
ATOM     20  N   UNL     1      31.832 -23.010 -15.655  0.00  0.00    +0.384 N 
ATOM     21  H   UNL     1      31.468 -23.956 -15.540  0.00  0.00    -0.089 HD
ATOM     22  H   UNL     1      31.337 -22.545 -16.415  0.00  0.00    -0.089 HD
ATOM     23  H   UNL     1      31.695 -22.487 -14.790  0.00  0.00    -0.089 HD
ENDBRANCH  19  20
BRANCH  19  24
ATOM     24  C   UNL     1      33.946 -24.080 -15.013  0.00  0.00    +0.006 C 
BRANCH  24  26
ATOM     25  N   UNL     1      37.499 -22.999 -14.447  0.00  0.00    -0.234 NA
ATOM     26  C   UNL     1      35.187 -23.590 -14.384  0.00  0.00    -0.024 C 
ATOM     27  C   UNL     1      35.627 -23.544 -13.127  0.00  0.00    +0.065 C 
ATOM     28  C   UNL     1      37.027 -23.002 -13.047  0.00  0.00    +0.122 C 
ATOM     29  C   UNL     1      36.414 -23.253 -15.119  0.00  0.00    +0.072 C 
ATOM     30  C   UNL     1      35.035 -24.071 -11.925  0.00  0.00    -0.020 C 
ATOM     31  C   UNL     1      37.879 -23.801 -12.101  0.00  0.00    -0.004 C 
ATOM     32  C   UNL     1      35.849 -24.506 -10.945  0.00  0.00    -0.004 C 
ATOM     33  C   UNL     1      37.298 -24.488 -11.101  0.00  0.00    -0.003 C 
ENDBRANCH  24  26
ENDBRANCH  19  24
ENDBRANCH  18  19
ENDBRANCH   1  18
TORSDOF 7
ENDMDL
MODEL 6
REMARK VINA RESULT:     -11.7      4.127      7.218
REMARK  Name = 49866474
REMARK  7 active torsions:
REMARK  status: ('A' for Active; 'I' for Inactive)
REMARK    1  A    between atoms: O_1  and  C_3
REMARK    2  A    between atoms: O_1  and  C_18
REMARK    3  A    between atoms: C_4  and  C_10
REMARK    4  A    between atoms: C_18  and  C_19
REMARK    5  A    between atoms: C_19  and  N_20
REMARK    6  A    between atoms: C_19  and  C_24
REMARK    7  A    between atoms: C_24  and  C_26
REMARK                            x       y       z     vdW  Elec       q    Type
REMARK                         _______ _______ _______ _____ _____    ______ ____
ROOT
ATOM      1  O   UNL     1      35.953 -22.284 -18.181  0.00  0.00    -0.476 OA
ENDROOT
BRANCH   1   3
ATOM      2  N   UNL     1      32.622 -21.345 -19.367  0.00  0.00    -0.239 NA
ATOM      3  C   UNL     1      34.973 -21.622 -18.873  0.00  0.00    +0.158 C 
ATOM      4  C   UNL     1      34.270 -19.938 -20.440  0.00  0.00    +0.022 C 
ATOM      5  C   UNL     1      35.287 -20.592 -19.753  0.00  0.00    +0.040 C 
ATOM      6  C   UNL     1      33.637 -21.957 -18.718  0.00  0.00    +0.136 C 
ATOM      7  C   UNL     1      32.966 -20.348 -20.214  0.00  0.00    +0.099 C 
BRANCH   4  10
ATOM      8  N   UNL     1      35.254 -15.965 -24.172  0.00  0.00    -0.236 N 
ATOM      9  N   UNL     1      34.633 -16.400 -25.281  0.00  0.00    -0.180 NA
ATOM     10  C   UNL     1      34.564 -18.864 -21.360  0.00  0.00    +0.002 C 
ATOM     11  C   UNL     1      34.381 -17.879 -23.553  0.00  0.00    +0.035 C 
ATOM     12  C   UNL     1      34.082 -18.932 -22.674  0.00  0.00    +0.003 C 
ATOM     13  C   UNL     1      35.141 -16.806 -23.098  0.00  0.00    +0.067 C 
ATOM     14  C   UNL     1      35.325 -17.776 -20.930  0.00  0.00    +0.001 C 
ATOM     15  C   UNL     1      35.631 -16.720 -21.794  0.00  0.00    +0.016 C 
ATOM     16  C   UNL     1      34.103 -17.564 -24.900  0.00  0.00    +0.119 C 
ATOM     17  H   UNL     1      35.747 -15.114 -24.134  0.00  0.00    +0.174 HD
ENDBRANCH   4  10
ENDBRANCH   1   3
BRANCH   1  18
ATOM     18  C   UNL     1      36.466 -21.642 -17.021  0.00  0.00    +0.184 C 
BRANCH  18  19
ATOM     19  C   UNL     1      36.704 -22.664 -15.904  0.00  0.00    -0.017 C 
BRANCH  19  20
ATOM     20  N   UNL     1      38.151 -22.844 -15.748  0.00  0.00    +0.384 N 
ATOM     21  H   UNL     1      38.617 -21.940 -15.824  0.00  0.00    -0.089 HD
ATOM     22  H   UNL     1      38.496 -23.467 -16.477  0.00  0.00    -0.089 HD
ATOM     23  H   UNL     1      38.346 -23.251 -14.833  0.00  0.00    -0.089 HD
ENDBRANCH  19  20
BRANCH  19  24
ATOM     24  C   UNL     1      36.100 -22.232 -14.545  0.00  0.00    +0.006 C 
BRANCH  24  26
ATOM     25  N   UNL     1      36.924 -23.964 -11.315  0.00  0.00    -0.234 NA
ATOM     26  C   UNL     1      36.210 -23.241 -13.475  0.00  0.00    -0.024 C 
ATOM     27  C   UNL     1      36.155 -24.573 -13.455  0.00  0.00    +0.065 C 
ATOM     28  C   UNL     1      36.410 -25.120 -12.078  0.00  0.00    +0.122 C 
ATOM     29  C   UNL     1      36.706 -22.965 -12.120  0.00  0.00    +0.072 C 
ATOM     30  C   UNL     1      36.053 -25.506 -14.547  0.00  0.00    -0.020 C 
ATOM     31  C   UNL     1      37.333 -26.306 -12.114  0.00  0.00    -0.004 C 
ATOM     32  C   UNL     1      36.646 -26.709 -14.421  0.00  0.00    -0.004 C 
ATOM     33  C   UNL     1      37.410 -27.055 -13.230  0.00  0.00    -0.003 C 
ENDBRANCH  24  26
ENDBRANCH  19  24
ENDBRANCH  18  19
ENDBRANCH   1  18
TORSDOF 7
ENDMDL
MODEL 7
REMARK VINA RESULT:     -11.7      2.370     10.472
REMARK  Name = 49866474
REMARK  7 active torsions:
REMARK  status: ('A' for Active; 'I' for Inactive)
REMARK    1  A    between atoms: O_1  and  C_3
REMARK    2  A    between atoms: O_1  and  C_18
REMARK    3  A    between atoms: C_4  and  C_10
REMARK    4  A    between atoms: C_18  and  C_19
REMARK    5  A    between atoms: C_19  and  N_20
REMARK    6  A    between atoms: C_19  and  C_24
REMARK    7  A    between atoms: C_24  and  C_26
REMARK                            x       y       z     vdW  Elec       q    Type
REMARK                         _______ _______ _______ _____ _____    ______ ____
ROOT
ATOM      1  O   UNL     1      34.593 -13.557 -22.897  0.00  0.00    -0.476 OA
ENDROOT
BRANCH   1   3
ATOM      2  N   UNL     1      34.154 -16.627 -24.839  0.00  0.00    -0.239 NA
ATOM      3  C   UNL     1      34.584 -14.891 -23.211  0.00  0.00    +0.158 C 
ATOM      4  C   UNL     1      34.955 -17.196 -22.630  0.00  0.00    +0.022 C 
ATOM      5  C   UNL     1      34.974 -15.849 -22.282  0.00  0.00    +0.040 C 
ATOM      6  C   UNL     1      34.186 -15.328 -24.465  0.00  0.00    +0.136 C 
ATOM      7  C   UNL     1      34.542 -17.529 -23.909  0.00  0.00    +0.099 C 
BRANCH   4  10
ATOM      8  N   UNL     1      36.212 -21.180 -18.994  0.00  0.00    -0.236 N 
ATOM      9  N   UNL     1      35.031 -21.764 -18.730  0.00  0.00    -0.180 NA
ATOM     10  C   UNL     1      35.355 -18.214 -21.687  0.00  0.00    +0.002 C 
ATOM     11  C   UNL     1      34.797 -20.054 -20.232  0.00  0.00    +0.035 C 
ATOM     12  C   UNL     1      34.387 -19.072 -21.149  0.00  0.00    +0.003 C 
ATOM     13  C   UNL     1      36.141 -20.146 -19.887  0.00  0.00    +0.067 C 
ATOM     14  C   UNL     1      36.697 -18.329 -21.323  0.00  0.00    +0.001 C 
ATOM     15  C   UNL     1      37.121 -19.301 -20.412  0.00  0.00    +0.016 C 
ATOM     16  C   UNL     1      34.173 -21.077 -19.486  0.00  0.00    +0.119 C 
ATOM     17  H   UNL     1      37.057 -21.471 -18.580  0.00  0.00    +0.174 HD
ENDBRANCH   4  10
ENDBRANCH   1   3
BRANCH   1  18
ATOM     18  C   UNL     1      33.869 -12.690 -23.760  0.00  0.00    +0.184 C 
BRANCH  18  19
ATOM     19  C   UNL     1      34.117 -11.226 -23.380  0.00  0.00    -0.017 C 
BRANCH  19  20
ATOM     20  N   UNL     1      35.061 -10.655 -24.345  0.00  0.00    +0.384 N 
ATOM     21  H   UNL     1      35.229  -9.675 -24.118  0.00  0.00    -0.089 HD
ATOM     22  H   UNL     1      34.671 -10.724 -25.284  0.00  0.00    -0.089 HD
ATOM     23  H   UNL     1      35.941 -11.169 -24.304  0.00  0.00    -0.089 HD
ENDBRANCH  19  20
BRANCH  19  24
ATOM     24  C   UNL     1      32.826 -10.372 -23.370  0.00  0.00    +0.006 C 
BRANCH  24  26
ATOM     25  N   UNL     1      31.770  -8.522 -20.275  0.00  0.00    -0.234 NA
ATOM     26  C   UNL     1      32.747  -9.388 -22.274  0.00  0.00    -0.024 C 
ATOM     27  C   UNL     1      33.157  -8.127 -22.136  0.00  0.00    +0.065 C 
ATOM     28  C   UNL     1      32.744  -7.549 -20.812  0.00  0.00    +0.122 C 
ATOM     29  C   UNL     1      31.890  -9.531 -21.089  0.00  0.00    +0.072 C 
ATOM     30  C   UNL     1      33.763  -7.246 -23.101  0.00  0.00    -0.020 C 
ATOM     31  C   UNL     1      32.216  -6.150 -20.956  0.00  0.00    -0.004 C 
ATOM     32  C   UNL     1      33.508  -5.927 -23.014  0.00  0.00    -0.004 C 
ATOM     33  C   UNL     1      32.610  -5.394 -21.998  0.00  0.00    -0.003 C 
ENDBRANCH  24  26
ENDBRANCH  19  24
ENDBRANCH  18  19
ENDBRANCH   1  18
TORSDOF 7
ENDMDL
MODEL 8
REMARK VINA RESULT:     -11.6      2.937      5.734
REMARK  Name = 49866474
REMARK  7 active torsions:
REMARK  status: ('A' for Active; 'I' for Inactive)
REMARK    1  A    between atoms: O_1  and  C_3
REMARK    2  A    between atoms: O_1  and  C_18
REMARK    3  A    between atoms: C_4  and  C_10
REMARK    4  A    between atoms: C_18  and  C_19
REMARK    5  A    between atoms: C_19  and  N_20
REMARK    6  A    between atoms: C_19  and  C_24
REMARK    7  A    between atoms: C_24  and  C_26
REMARK                            x       y       z     vdW  Elec       q    Type
REMARK                         _______ _______ _______ _____ _____    ______ ____
ROOT
ATOM      1  O   UNL     1      34.433 -21.227 -19.829  0.00  0.00    -0.476 OA
ENDROOT
BRANCH   1   3
ATOM      2  N   UNL     1      37.371 -19.117 -20.381  0.00  0.00    -0.239 NA
ATOM      3  C   UNL     1      35.214 -20.207 -20.309  0.00  0.00    +0.158 C 
ATOM      4  C   UNL     1      35.511 -18.231 -21.648  0.00  0.00    +0.022 C 
ATOM      5  C   UNL     1      34.694 -19.253 -21.177  0.00  0.00    +0.040 C 
ATOM      6  C   UNL     1      36.546 -20.095 -19.945  0.00  0.00    +0.136 C 
ATOM      7  C   UNL     1      36.830 -18.208 -21.224  0.00  0.00    +0.099 C 
BRANCH   4  10
ATOM      8  N   UNL     1      33.607 -14.178 -24.907  0.00  0.00    -0.236 N 
ATOM      9  N   UNL     1      33.769 -13.065 -24.170  0.00  0.00    -0.180 NA
ATOM     10  C   UNL     1      35.001 -17.226 -22.550  0.00  0.00    +0.002 C 
ATOM     11  C   UNL     1      34.489 -14.922 -23.043  0.00  0.00    +0.035 C 
ATOM     12  C   UNL     1      34.991 -15.883 -22.150  0.00  0.00    +0.003 C 
ATOM     13  C   UNL     1      34.019 -15.326 -24.287  0.00  0.00    +0.067 C 
ATOM     14  C   UNL     1      34.523 -17.604 -23.805  0.00  0.00    +0.001 C 
ATOM     15  C   UNL     1      34.020 -16.659 -24.704  0.00  0.00    +0.016 C 
ATOM     16  C   UNL     1      34.306 -13.522 -23.038  0.00  0.00    +0.119 C 
ATOM     17  H   UNL     1      33.225 -14.167 -25.814  0.00  0.00    +0.174 HD
ENDBRANCH   4  10
ENDBRANCH   1   3
BRANCH   1  18
ATOM     18  C   UNL     1      34.886 -21.883 -18.653  0.00  0.00    +0.184 C 
BRANCH  18  19
ATOM     19  C   UNL     1      33.728 -22.072 -17.665  0.00  0.00    -0.017 C 
BRANCH  19  20
ATOM     20  N   UNL     1      32.469 -21.953 -18.407  0.00  0.00    +0.384 N 
ATOM     21  H   UNL     1      32.603 -21.338 -19.209  0.00  0.00    -0.089 HD
ATOM     22  H   UNL     1      31.750 -21.566 -17.796  0.00  0.00    -0.089 HD
ATOM     23  H   UNL     1      32.178 -22.876 -18.731  0.00  0.00    -0.089 HD
ENDBRANCH  19  20
BRANCH  19  24
ATOM     24  C   UNL     1      33.762 -23.441 -16.943  0.00  0.00    +0.006 C 
BRANCH  24  26
ATOM     25  N   UNL     1      33.501 -23.819 -13.214  0.00  0.00    -0.234 NA
ATOM     26  C   UNL     1      33.263 -23.416 -15.555  0.00  0.00    -0.024 C 
ATOM     27  C   UNL     1      32.045 -23.391 -15.014  0.00  0.00    +0.065 C 
ATOM     28  C   UNL     1      32.101 -23.453 -13.513  0.00  0.00    +0.122 C 
ATOM     29  C   UNL     1      34.085 -23.699 -14.371  0.00  0.00    +0.072 C 
ATOM     30  C   UNL     1      30.755 -23.476 -15.648  0.00  0.00    -0.020 C 
ATOM     31  C   UNL     1      31.074 -24.400 -12.958  0.00  0.00    -0.004 C 
ATOM     32  C   UNL     1      29.750 -24.073 -14.981  0.00  0.00    -0.004 C 
ATOM     33  C   UNL     1      29.958 -24.661 -13.664  0.00  0.00    -0.003 C 
ENDBRANCH  24  26
ENDBRANCH  19  24
ENDBRANCH  18  19
ENDBRANCH   1  18
TORSDOF 7
ENDMDL
MODEL 9
REMARK VINA RESULT:     -11.6      3.590     11.348
REMARK  Name = 49866474
REMARK  7 active torsions:
REMARK  status: ('A' for Active; 'I' for Inactive)
REMARK    1  A    between atoms: O_1  and  C_3
REMARK    2  A    between atoms: O_1  and  C_18
REMARK    3  A    between atoms: C_4  and  C_10
REMARK    4  A    between atoms: C_18  and  C_19
REMARK    5  A    between atoms: C_19  and  N_20
REMARK    6  A    between atoms: C_19  and  C_24
REMARK    7  A    between atoms: C_24  and  C_26
REMARK                            x       y       z     vdW  Elec       q    Type
REMARK                         _______ _______ _______ _____ _____    ______ ____
ROOT
ATOM      1  O   UNL     1      36.349 -20.869 -19.059  0.00  0.00    -0.476 OA
ENDROOT
BRANCH   1   3
ATOM      2  N   UNL     1      33.681 -22.784 -17.446  0.00  0.00    -0.239 NA
ATOM      3  C   UNL     1      35.693 -21.626 -18.123  0.00  0.00    +0.158 C 
ATOM      4  C   UNL     1      35.629 -22.777 -16.012  0.00  0.00    +0.022 C 
ATOM      5  C   UNL     1      36.319 -22.008 -16.942  0.00  0.00    +0.040 C 
ATOM      6  C   UNL     1      34.385 -22.036 -18.325  0.00  0.00    +0.136 C 
ATOM      7  C   UNL     1      34.324 -23.136 -16.309  0.00  0.00    +0.099 C 
BRANCH   4  10
ATOM      8  N   UNL     1      37.776 -24.287 -11.135  0.00  0.00    -0.236 N 
ATOM      9  N   UNL     1      36.782 -24.062 -10.259  0.00  0.00    -0.180 NA
ATOM     10  C   UNL     1      36.252 -23.189 -14.776  0.00  0.00    +0.002 C 
ATOM     11  C   UNL     1      36.152 -23.515 -12.389  0.00  0.00    +0.035 C 
ATOM     12  C   UNL     1      35.527 -23.110 -13.580  0.00  0.00    +0.003 C 
ATOM     13  C   UNL     1      37.463 -23.978 -12.431  0.00  0.00    +0.067 C 
ATOM     14  C   UNL     1      37.566 -23.658 -14.789  0.00  0.00    +0.001 C 
ATOM     15  C   UNL     1      38.202 -24.064 -13.612  0.00  0.00    +0.016 C 
ATOM     16  C   UNL     1      35.797 -23.594 -11.026  0.00  0.00    +0.119 C 
ATOM     17  H   UNL     1      38.655 -24.642 -10.868  0.00  0.00    +0.174 HD
ENDBRANCH   4  10
ENDBRANCH   1   3
BRANCH   1  18
ATOM     18  C   UNL     1      35.578 -20.390 -20.152  0.00  0.00    +0.184 C 
BRANCH  18  19
ATOM     19  C   UNL     1      36.051 -18.993 -20.570  0.00  0.00    -0.017 C 
BRANCH  19  20
ATOM     20  N   UNL     1      37.512 -19.019 -20.688  0.00  0.00    +0.384 N 
ATOM     21  H   UNL     1      37.893 -19.717 -20.049  0.00  0.00    -0.089 HD
ATOM     22  H   UNL     1      37.889 -18.102 -20.453  0.00  0.00    -0.089 HD
ATOM     23  H   UNL     1      37.772 -19.258 -21.646  0.00  0.00    -0.089 HD
ENDBRANCH  19  20
BRANCH  19  24
ATOM     24  C   UNL     1      35.445 -18.522 -21.915  0.00  0.00    +0.006 C 
BRANCH  24  26
ATOM     25  N   UNL     1      34.764 -14.911 -21.134  0.00  0.00    -0.234 NA
ATOM     26  C   UNL     1      35.274 -17.062 -22.035  0.00  0.00    -0.024 C 
ATOM     27  C   UNL     1      35.021 -16.245 -23.057  0.00  0.00    +0.065 C 
ATOM     28  C   UNL     1      34.867 -14.820 -22.605  0.00  0.00    +0.122 C 
ATOM     29  C   UNL     1      35.078 -16.152 -20.899  0.00  0.00    +0.072 C 
ATOM     30  C   UNL     1      34.727 -16.556 -24.433  0.00  0.00    -0.020 C 
ATOM     31  C   UNL     1      33.700 -14.148 -23.273  0.00  0.00    -0.004 C 
ATOM     32  C   UNL     1      33.898 -15.740 -25.112  0.00  0.00    -0.004 C 
ATOM     33  C   UNL     1      33.274 -14.590 -24.471  0.00  0.00    -0.003 C 
ENDBRANCH  24  26
ENDBRANCH  19  24
ENDBRANCH  18  19
ENDBRANCH   1  18
TORSDOF 7
ENDMDL
