MODEL 1
REMARK VINA RESULT:     -12.9      0.000      0.000
REMARK  Name = 46911863
REMARK  3 active torsions:
REMARK  status: ('A' for Active; 'I' for Inactive)
REMARK    1  A    between atoms: C_5  and  C_18
REMARK    2  A    between atoms: C_7  and  C_12
REMARK    3  A    between atoms: C_18  and  C_20
REMARK                            x       y       z     vdW  Elec       q    Type
REMARK                         _______ _______ _______ _____ _____    ______ ____
ROOT
ATOM      1  N   UNL     1      34.389 -22.083 -17.833  0.00  0.00    -0.190 N 
ATOM      2  N   UNL     1      35.417 -22.477 -17.040  0.00  0.00    -0.162 NA
ATOM      3  N   UNL     1      33.268 -21.164 -19.476  0.00  0.00    -0.126 NA
ATOM      4  N   UNL     1      32.366 -21.772 -18.627  0.00  0.00    -0.127 NA
ATOM      5  C   UNL     1      34.471 -21.361 -18.986  0.00  0.00    +0.228 A 
ATOM      6  C   UNL     1      33.047 -22.322 -17.643  0.00  0.00    +0.187 A 
ATOM      7  C   UNL     1      35.044 -23.152 -15.990  0.00  0.00    +0.104 C 
ATOM      8  C   UNL     1      32.675 -23.068 -16.509  0.00  0.00    +0.042 C 
ATOM      9  C   UNL     1      33.622 -23.501 -15.667  0.00  0.00    +0.024 C 
ENDROOT
BRANCH   7  12
ATOM     10  N   UNL     1      37.221 -24.875 -13.649  0.00  0.00    -0.208 N 
ATOM     11  N   UNL     1      37.934 -23.737 -13.711  0.00  0.00    -0.176 NA
ATOM     12  C   UNL     1      36.079 -23.636 -15.039  0.00  0.00    +0.056 C 
ATOM     13  C   UNL     1      36.100 -24.865 -14.426  0.00  0.00    +0.087 C 
ATOM     14  C   UNL     1      37.231 -22.984 -14.561  0.00  0.00    +0.121 C 
ATOM     15  C   UNL     1      37.673 -25.959 -12.811  0.00  0.00    +0.140 C 
ENDBRANCH   7  12
BRANCH   5  18
ATOM     16  F   UNL     1      36.453 -21.938 -20.169  0.00  0.00    -0.191 F 
ATOM     17  F   UNL     1      36.660 -20.536 -18.551  0.00  0.00    -0.191 F 
ATOM     18  C   UNL     1      35.796 -20.876 -19.576  0.00  0.00    +0.335 C 
BRANCH  18  20
ATOM     19  N   UNL     1      35.073 -16.565 -23.170  0.00  0.00    -0.244 NA
ATOM     20  C   UNL     1      35.600 -19.746 -20.529  0.00  0.00    +0.045 C 
ATOM     21  C   UNL     1      34.900 -19.945 -21.716  0.00  0.00    +0.003 C 
ATOM     22  C   UNL     1      34.713 -18.883 -22.617  0.00  0.00    +0.018 C 
ATOM     23  C   UNL     1      36.115 -18.490 -20.239  0.00  0.00    +0.003 C 
ATOM     24  C   UNL     1      35.233 -17.604 -22.328  0.00  0.00    +0.081 C 
ATOM     25  C   UNL     1      35.930 -17.434 -21.135  0.00  0.00    +0.019 C 
ATOM     26  C   UNL     1      34.012 -19.055 -23.818  0.00  0.00    +0.003 C 
ATOM     27  C   UNL     1      33.844 -17.986 -24.687  0.00  0.00    +0.021 C 
ATOM     28  C   UNL     1      34.389 -16.772 -24.319  0.00  0.00    +0.099 C 
ENDBRANCH  18  20
ENDBRANCH   5  18
TORSDOF 3
ENDMDL
MODEL 2
REMARK VINA RESULT:     -12.5      0.713      1.484
REMARK  Name = 46911863
REMARK  3 active torsions:
REMARK  status: ('A' for Active; 'I' for Inactive)
REMARK    1  A    between atoms: C_5  and  C_18
REMARK    2  A    between atoms: C_7  and  C_12
REMARK    3  A    between atoms: C_18  and  C_20
REMARK                            x       y       z     vdW  Elec       q    Type
REMARK                         _______ _______ _______ _____ _____    ______ ____
ROOT
ATOM      1  N   UNL     1      34.351 -22.076 -17.855  0.00  0.00    -0.190 N 
ATOM      2  N   UNL     1      35.418 -22.433 -17.099  0.00  0.00    -0.162 NA
ATOM      3  N   UNL     1      33.142 -21.201 -19.460  0.00  0.00    -0.126 NA
ATOM      4  N   UNL     1      32.291 -21.832 -18.576  0.00  0.00    -0.127 NA
ATOM      5  C   UNL     1      34.368 -21.357 -19.014  0.00  0.00    +0.228 A 
ATOM      6  C   UNL     1      33.025 -22.354 -17.615  0.00  0.00    +0.187 A 
ATOM      7  C   UNL     1      35.106 -23.113 -16.033  0.00  0.00    +0.104 C 
ATOM      8  C   UNL     1      32.718 -23.106 -16.465  0.00  0.00    +0.042 C 
ATOM      9  C   UNL     1      33.708 -23.505 -15.657  0.00  0.00    +0.024 C 
ENDROOT
BRANCH   7  12
ATOM     10  N   UNL     1      37.444 -24.770 -13.803  0.00  0.00    -0.208 N 
ATOM     11  N   UNL     1      38.065 -23.577 -13.816  0.00  0.00    -0.176 NA
ATOM     12  C   UNL     1      36.189 -23.559 -15.118  0.00  0.00    +0.056 C 
ATOM     13  C   UNL     1      36.315 -24.811 -14.566  0.00  0.00    +0.087 C 
ATOM     14  C   UNL     1      37.293 -22.842 -14.621  0.00  0.00    +0.121 C 
ATOM     15  C   UNL     1      37.992 -25.854 -13.024  0.00  0.00    +0.140 C 
ENDBRANCH   7  12
BRANCH   5  18
ATOM     16  F   UNL     1      36.373 -21.893 -20.177  0.00  0.00    -0.191 F 
ATOM     17  F   UNL     1      36.503 -20.368 -18.667  0.00  0.00    -0.191 F 
ATOM     18  C   UNL     1      35.654 -20.834 -19.654  0.00  0.00    +0.335 C 
BRANCH  18  20
ATOM     19  N   UNL     1      34.609 -16.905 -23.589  0.00  0.00    -0.244 NA
ATOM     20  C   UNL     1      35.380 -19.792 -20.683  0.00  0.00    +0.045 C 
ATOM     21  C   UNL     1      35.413 -18.443 -20.340  0.00  0.00    +0.003 C 
ATOM     22  C   UNL     1      35.156 -17.457 -21.308  0.00  0.00    +0.018 C 
ATOM     23  C   UNL     1      35.090 -20.160 -21.991  0.00  0.00    +0.003 C 
ATOM     24  C   UNL     1      34.861 -17.824 -22.637  0.00  0.00    +0.081 C 
ATOM     25  C   UNL     1      34.834 -19.179 -22.952  0.00  0.00    +0.019 C 
ATOM     26  C   UNL     1      35.183 -16.092 -20.990  0.00  0.00    +0.003 C 
ATOM     27  C   UNL     1      34.925 -15.143 -21.968  0.00  0.00    +0.021 C 
ATOM     28  C   UNL     1      34.646 -15.598 -23.241  0.00  0.00    +0.099 C 
ENDBRANCH  18  20
ENDBRANCH   5  18
TORSDOF 3
ENDMDL
MODEL 3
REMARK VINA RESULT:     -12.2      3.046      9.665
REMARK  Name = 46911863
REMARK  3 active torsions:
REMARK  status: ('A' for Active; 'I' for Inactive)
REMARK    1  A    between atoms: C_5  and  C_18
REMARK    2  A    between atoms: C_7  and  C_12
REMARK    3  A    between atoms: C_18  and  C_20
REMARK                            x       y       z     vdW  Elec       q    Type
REMARK                         _______ _______ _______ _____ _____    ______ ____
ROOT
ATOM      1  N   UNL     1      34.537 -16.812 -23.402  0.00  0.00    -0.190 N 
ATOM      2  N   UNL     1      34.478 -15.542 -22.932  0.00  0.00    -0.162 NA
ATOM      3  N   UNL     1      35.005 -18.947 -23.564  0.00  0.00    -0.126 NA
ATOM      4  N   UNL     1      34.272 -18.582 -24.674  0.00  0.00    -0.127 NA
ATOM      5  C   UNL     1      35.153 -17.878 -22.815  0.00  0.00    +0.228 A 
ATOM      6  C   UNL     1      33.995 -17.299 -24.569  0.00  0.00    +0.187 A 
ATOM      7  C   UNL     1      33.827 -14.722 -23.708  0.00  0.00    +0.104 C 
ATOM      8  C   UNL     1      33.282 -16.395 -25.380  0.00  0.00    +0.042 C 
ATOM      9  C   UNL     1      33.170 -15.117 -24.997  0.00  0.00    +0.024 C 
ENDROOT
BRANCH   7  12
ATOM     10  N   UNL     1      33.857 -11.120 -23.253  0.00  0.00    -0.208 N 
ATOM     11  N   UNL     1      33.132 -11.406 -22.157  0.00  0.00    -0.176 NA
ATOM     12  C   UNL     1      33.696 -13.297 -23.305  0.00  0.00    +0.056 C 
ATOM     13  C   UNL     1      34.220 -12.218 -23.975  0.00  0.00    +0.087 C 
ATOM     14  C   UNL     1      33.038 -12.737 -22.194  0.00  0.00    +0.121 C 
ATOM     15  C   UNL     1      34.175  -9.747 -23.563  0.00  0.00    +0.140 C 
ENDBRANCH   7  12
BRANCH   5  18
ATOM     16  F   UNL     1      35.516 -16.627 -20.824  0.00  0.00    -0.191 F 
ATOM     17  F   UNL     1      37.238 -17.557 -21.715  0.00  0.00    -0.191 F 
ATOM     18  C   UNL     1      35.894 -17.784 -21.481  0.00  0.00    +0.335 C 
BRANCH  18  20
ATOM     19  N   UNL     1      35.112 -22.381 -18.276  0.00  0.00    -0.244 NA
ATOM     20  C   UNL     1      35.678 -18.993 -20.637  0.00  0.00    +0.045 C 
ATOM     21  C   UNL     1      34.386 -19.410 -20.329  0.00  0.00    +0.003 C 
ATOM     22  C   UNL     1      34.178 -20.551 -19.535  0.00  0.00    +0.018 C 
ATOM     23  C   UNL     1      36.764 -19.711 -20.153  0.00  0.00    +0.003 C 
ATOM     24  C   UNL     1      35.276 -21.284 -19.040  0.00  0.00    +0.081 C 
ATOM     25  C   UNL     1      36.556 -20.844 -19.363  0.00  0.00    +0.019 C 
ATOM     26  C   UNL     1      32.888 -20.993 -19.210  0.00  0.00    +0.003 C 
ATOM     27  C   UNL     1      32.716 -22.123 -18.423  0.00  0.00    +0.021 C 
ATOM     28  C   UNL     1      33.851 -22.775 -17.986  0.00  0.00    +0.099 C 
ENDBRANCH  18  20
ENDBRANCH   5  18
TORSDOF 3
ENDMDL
MODEL 4
REMARK VINA RESULT:     -12.2      2.938      5.148
REMARK  Name = 46911863
REMARK  3 active torsions:
REMARK  status: ('A' for Active; 'I' for Inactive)
REMARK    1  A    between atoms: C_5  and  C_18
REMARK    2  A    between atoms: C_7  and  C_12
REMARK    3  A    between atoms: C_18  and  C_20
REMARK                            x       y       z     vdW  Elec       q    Type
REMARK                         _______ _______ _______ _____ _____    ______ ____
ROOT
ATOM      1  N   UNL     1      33.442 -23.053 -16.024  0.00  0.00    -0.190 N 
ATOM      2  N   UNL     1      32.094 -23.094 -16.163  0.00  0.00    -0.162 NA
ATOM      3  N   UNL     1      35.573 -22.845 -16.491  0.00  0.00    -0.126 NA
ATOM      4  N   UNL     1      35.454 -23.143 -15.149  0.00  0.00    -0.127 NA
ATOM      5  C   UNL     1      34.361 -22.793 -16.997  0.00  0.00    +0.228 A 
ATOM      6  C   UNL     1      34.172 -23.267 -14.877  0.00  0.00    +0.187 A 
ATOM      7  C   UNL     1      31.458 -23.375 -15.061  0.00  0.00    +0.104 C 
ATOM      8  C   UNL     1      33.458 -23.552 -13.697  0.00  0.00    +0.042 C 
ATOM      9  C   UNL     1      32.121 -23.613 -13.737  0.00  0.00    +0.024 C 
ENDROOT
BRANCH   7  12
ATOM     10  N   UNL     1      27.860 -22.952 -15.300  0.00  0.00    -0.208 N 
ATOM     11  N   UNL     1      27.837 -24.243 -14.925  0.00  0.00    -0.176 NA
ATOM     12  C   UNL     1      29.974 -23.456 -15.085  0.00  0.00    +0.056 C 
ATOM     13  C   UNL     1      29.116 -22.433 -15.410  0.00  0.00    +0.087 C 
ATOM     14  C   UNL     1      29.131 -24.545 -14.795  0.00  0.00    +0.121 C 
ATOM     15  C   UNL     1      26.621 -22.254 -15.545  0.00  0.00    +0.140 C 
ENDBRANCH   7  12
BRANCH   5  18
ATOM     16  F   UNL     1      32.667 -22.071 -18.502  0.00  0.00    -0.191 F 
ATOM     17  F   UNL     1      33.932 -23.678 -19.163  0.00  0.00    -0.191 F 
ATOM     18  C   UNL     1      33.981 -22.496 -18.448  0.00  0.00    +0.335 C 
BRANCH  18  20
ATOM     19  N   UNL     1      37.522 -18.764 -20.804  0.00  0.00    -0.244 NA
ATOM     20  C   UNL     1      34.907 -21.510 -19.075  0.00  0.00    +0.045 C 
ATOM     21  C   UNL     1      34.459 -20.687 -20.105  0.00  0.00    +0.003 C 
ATOM     22  C   UNL     1      35.329 -19.756 -20.698  0.00  0.00    +0.018 C 
ATOM     23  C   UNL     1      36.220 -21.407 -18.635  0.00  0.00    +0.003 C 
ATOM     24  C   UNL     1      36.663 -19.646 -20.257  0.00  0.00    +0.081 C 
ATOM     25  C   UNL     1      37.084 -20.481 -19.226  0.00  0.00    +0.019 C 
ATOM     26  C   UNL     1      34.905 -18.915 -21.736  0.00  0.00    +0.003 C 
ATOM     27  C   UNL     1      35.787 -18.006 -22.301  0.00  0.00    +0.021 C 
ATOM     28  C   UNL     1      37.074 -17.970 -21.803  0.00  0.00    +0.099 C 
ENDBRANCH  18  20
ENDBRANCH   5  18
TORSDOF 3
ENDMDL
MODEL 5
REMARK VINA RESULT:     -12.1      1.987      2.893
REMARK  Name = 46911863
REMARK  3 active torsions:
REMARK  status: ('A' for Active; 'I' for Inactive)
REMARK    1  A    between atoms: C_5  and  C_18
REMARK    2  A    between atoms: C_7  and  C_12
REMARK    3  A    between atoms: C_18  and  C_20
REMARK                            x       y       z     vdW  Elec       q    Type
REMARK                         _______ _______ _______ _____ _____    ______ ____
ROOT
ATOM      1  N   UNL     1      32.978 -23.087 -15.967  0.00  0.00    -0.190 N 
ATOM      2  N   UNL     1      34.026 -23.560 -15.247  0.00  0.00    -0.162 NA
ATOM      3  N   UNL     1      31.789 -22.293 -17.628  0.00  0.00    -0.126 NA
ATOM      4  N   UNL     1      30.965 -22.413 -16.528  0.00  0.00    -0.127 NA
ATOM      5  C   UNL     1      32.988 -22.701 -17.275  0.00  0.00    +0.228 A 
ATOM      6  C   UNL     1      31.687 -22.891 -15.535  0.00  0.00    +0.187 A 
ATOM      7  C   UNL     1      33.730 -23.844 -14.010  0.00  0.00    +0.104 C 
ATOM      8  C   UNL     1      31.392 -23.222 -14.199  0.00  0.00    +0.042 C 
ATOM      9  C   UNL     1      32.364 -23.698 -13.410  0.00  0.00    +0.024 C 
ENDROOT
BRANCH   7  12
ATOM     10  N   UNL     1      36.643 -25.265 -12.373  0.00  0.00    -0.208 N 
ATOM     11  N   UNL     1      35.976 -24.949 -11.250  0.00  0.00    -0.176 NA
ATOM     12  C   UNL     1      34.796 -24.367 -13.116  0.00  0.00    +0.056 C 
ATOM     13  C   UNL     1      35.979 -24.938 -13.518  0.00  0.00    +0.087 C 
ATOM     14  C   UNL     1      34.849 -24.401 -11.710  0.00  0.00    +0.121 C 
ATOM     15  C   UNL     1      37.940 -25.892 -12.285  0.00  0.00    +0.140 C 
ENDBRANCH   7  12
BRANCH   5  18
ATOM     16  F   UNL     1      34.258 -23.945 -18.855  0.00  0.00    -0.191 F 
ATOM     17  F   UNL     1      35.359 -22.873 -17.352  0.00  0.00    -0.191 F 
ATOM     18  C   UNL     1      34.238 -22.754 -18.153  0.00  0.00    +0.335 C 
BRANCH  18  20
ATOM     19  N   UNL     1      34.552 -18.282 -21.605  0.00  0.00    -0.244 NA
ATOM     20  C   UNL     1      34.331 -21.576 -19.061  0.00  0.00    +0.045 C 
ATOM     21  C   UNL     1      35.572 -21.027 -19.370  0.00  0.00    +0.003 C 
ATOM     22  C   UNL     1      35.664 -19.916 -20.226  0.00  0.00    +0.018 C 
ATOM     23  C   UNL     1      33.180 -21.020 -19.605  0.00  0.00    +0.003 C 
ATOM     24  C   UNL     1      34.499 -19.347 -20.782  0.00  0.00    +0.081 C 
ATOM     25  C   UNL     1      33.272 -19.916 -20.455  0.00  0.00    +0.019 C 
ATOM     26  C   UNL     1      36.900 -19.343 -20.554  0.00  0.00    +0.003 C 
ATOM     27  C   UNL     1      36.957 -18.247 -21.403  0.00  0.00    +0.021 C 
ATOM     28  C   UNL     1      35.765 -17.759 -21.898  0.00  0.00    +0.099 C 
ENDBRANCH  18  20
ENDBRANCH   5  18
TORSDOF 3
ENDMDL
MODEL 6
REMARK VINA RESULT:     -11.7      5.220      8.647
REMARK  Name = 46911863
REMARK  3 active torsions:
REMARK  status: ('A' for Active; 'I' for Inactive)
REMARK    1  A    between atoms: C_5  and  C_18
REMARK    2  A    between atoms: C_7  and  C_12
REMARK    3  A    between atoms: C_18  and  C_20
REMARK                            x       y       z     vdW  Elec       q    Type
REMARK                         _______ _______ _______ _____ _____    ______ ____
ROOT
ATOM      1  N   UNL     1      34.084 -15.865 -23.347  0.00  0.00    -0.190 N 
ATOM      2  N   UNL     1      34.656 -16.534 -22.315  0.00  0.00    -0.162 NA
ATOM      3  N   UNL     1      33.191 -14.258 -24.540  0.00  0.00    -0.126 NA
ATOM      4  N   UNL     1      33.203 -15.407 -25.305  0.00  0.00    -0.127 NA
ATOM      5  C   UNL     1      33.721 -14.551 -23.374  0.00  0.00    +0.228 A 
ATOM      6  C   UNL     1      33.740 -16.366 -24.581  0.00  0.00    +0.187 A 
ATOM      7  C   UNL     1      34.887 -17.791 -22.566  0.00  0.00    +0.104 C 
ATOM      8  C   UNL     1      34.016 -17.724 -24.830  0.00  0.00    +0.042 C 
ATOM      9  C   UNL     1      34.583 -18.466 -23.870  0.00  0.00    +0.024 C 
ENDROOT
BRANCH   7  12
ATOM     10  N   UNL     1      35.869 -20.206 -20.037  0.00  0.00    -0.208 N 
ATOM     11  N   UNL     1      36.976 -19.446 -19.961  0.00  0.00    -0.176 NA
ATOM     12  C   UNL     1      35.509 -18.634 -21.511  0.00  0.00    +0.056 C 
ATOM     13  C   UNL     1      34.959 -19.762 -20.951  0.00  0.00    +0.087 C 
ATOM     14  C   UNL     1      36.750 -18.488 -20.863  0.00  0.00    +0.121 C 
ATOM     15  C   UNL     1      35.738 -21.369 -19.193  0.00  0.00    +0.140 C 
ENDBRANCH   7  12
BRANCH   5  18
ATOM     16  F   UNL     1      35.200 -13.767 -21.683  0.00  0.00    -0.191 F 
ATOM     17  F   UNL     1      33.136 -14.013 -21.132  0.00  0.00    -0.191 F 
ATOM     18  C   UNL     1      33.925 -13.603 -22.191  0.00  0.00    +0.335 C 
BRANCH  18  20
ATOM     19  N   UNL     1      32.936  -8.219 -23.625  0.00  0.00    -0.244 NA
ATOM     20  C   UNL     1      33.656 -12.184 -22.562  0.00  0.00    +0.045 C 
ATOM     21  C   UNL     1      32.659 -11.467 -21.909  0.00  0.00    +0.003 C 
ATOM     22  C   UNL     1      32.404 -10.128 -22.255  0.00  0.00    +0.018 C 
ATOM     23  C   UNL     1      34.401 -11.571 -23.562  0.00  0.00    +0.003 C 
ATOM     24  C   UNL     1      33.155  -9.499 -23.268  0.00  0.00    +0.081 C 
ATOM     25  C   UNL     1      34.146 -10.241 -23.905  0.00  0.00    +0.019 C 
ATOM     26  C   UNL     1      31.406  -9.383 -21.613  0.00  0.00    +0.003 C 
ATOM     27  C   UNL     1      31.178  -8.063 -21.978  0.00  0.00    +0.021 C 
ATOM     28  C   UNL     1      31.964  -7.533 -22.981  0.00  0.00    +0.099 C 
ENDBRANCH  18  20
ENDBRANCH   5  18
TORSDOF 3
ENDMDL
MODEL 7
REMARK VINA RESULT:     -11.6      2.601      8.912
REMARK  Name = 46911863
REMARK  3 active torsions:
REMARK  status: ('A' for Active; 'I' for Inactive)
REMARK    1  A    between atoms: C_5  and  C_18
REMARK    2  A    between atoms: C_7  and  C_12
REMARK    3  A    between atoms: C_18  and  C_20
REMARK                            x       y       z     vdW  Elec       q    Type
REMARK                         _______ _______ _______ _____ _____    ______ ____
ROOT
ATOM      1  N   UNL     1      35.270 -20.055 -20.179  0.00  0.00    -0.190 N 
ATOM      2  N   UNL     1      34.556 -19.530 -21.205  0.00  0.00    -0.162 NA
ATOM      3  N   UNL     1      35.793 -21.190 -18.378  0.00  0.00    -0.126 NA
ATOM      4  N   UNL     1      36.923 -20.528 -18.813  0.00  0.00    -0.127 NA
ATOM      5  C   UNL     1      34.816 -20.897 -19.207  0.00  0.00    +0.228 A 
ATOM      6  C   UNL     1      36.601 -19.849 -19.894  0.00  0.00    +0.187 A 
ATOM      7  C   UNL     1      35.248 -18.746 -21.982  0.00  0.00    +0.104 C 
ATOM      8  C   UNL     1      37.327 -19.010 -20.760  0.00  0.00    +0.042 C 
ATOM      9  C   UNL     1      36.706 -18.446 -21.803  0.00  0.00    +0.024 C 
ENDROOT
BRANCH   7  12
ATOM     10  N   UNL     1      33.881 -16.635 -24.602  0.00  0.00    -0.208 N 
ATOM     11  N   UNL     1      33.320 -17.782 -25.023  0.00  0.00    -0.176 NA
ATOM     12  C   UNL     1      34.575 -18.104 -23.142  0.00  0.00    +0.056 C 
ATOM     13  C   UNL     1      34.642 -16.773 -23.479  0.00  0.00    +0.087 C 
ATOM     14  C   UNL     1      33.748 -18.675 -24.126  0.00  0.00    +0.121 C 
ATOM     15  C   UNL     1      33.647 -15.413 -25.333  0.00  0.00    +0.140 C 
ENDBRANCH   7  12
BRANCH   5  18
ATOM     16  F   UNL     1      33.099 -22.173 -20.247  0.00  0.00    -0.191 F 
ATOM     17  F   UNL     1      32.510 -20.326 -19.318  0.00  0.00    -0.191 F 
ATOM     18  C   UNL     1      33.371 -21.392 -19.139  0.00  0.00    +0.335 C 
BRANCH  18  20
ATOM     19  N   UNL     1      32.346 -24.165 -14.315  0.00  0.00    -0.244 NA
ATOM     20  C   UNL     1      33.091 -22.120 -17.869  0.00  0.00    +0.045 C 
ATOM     21  C   UNL     1      31.796 -22.171 -17.362  0.00  0.00    +0.003 C 
ATOM     22  C   UNL     1      31.528 -22.857 -16.165  0.00  0.00    +0.018 C 
ATOM     23  C   UNL     1      34.121 -22.752 -17.184  0.00  0.00    +0.003 C 
ATOM     24  C   UNL     1      32.569 -23.500 -15.464  0.00  0.00    +0.081 C 
ATOM     25  C   UNL     1      33.854 -23.432 -15.994  0.00  0.00    +0.019 C 
ATOM     26  C   UNL     1      30.233 -22.924 -15.633  0.00  0.00    +0.003 C 
ATOM     27  C   UNL     1      30.001 -23.609 -14.449  0.00  0.00    +0.021 C 
ATOM     28  C   UNL     1      31.082 -24.207 -13.834  0.00  0.00    +0.099 C 
ENDBRANCH  18  20
ENDBRANCH   5  18
TORSDOF 3
ENDMDL
MODEL 8
REMARK VINA RESULT:     -11.5      2.504      3.931
REMARK  Name = 46911863
REMARK  3 active torsions:
REMARK  status: ('A' for Active; 'I' for Inactive)
REMARK    1  A    between atoms: C_5  and  C_18
REMARK    2  A    between atoms: C_7  and  C_12
REMARK    3  A    between atoms: C_18  and  C_20
REMARK                            x       y       z     vdW  Elec       q    Type
REMARK                         _______ _______ _______ _____ _____    ______ ____
ROOT
ATOM      1  N   UNL     1      34.975 -22.761 -16.236  0.00  0.00    -0.190 N 
ATOM      2  N   UNL     1      33.718 -23.188 -15.959  0.00  0.00    -0.162 NA
ATOM      3  N   UNL     1      36.698 -21.927 -17.305  0.00  0.00    -0.126 NA
ATOM      4  N   UNL     1      37.111 -22.291 -16.039  0.00  0.00    -0.127 NA
ATOM      5  C   UNL     1      35.419 -22.214 -17.404  0.00  0.00    +0.228 A 
ATOM      6  C   UNL     1      36.071 -22.790 -15.405  0.00  0.00    +0.187 A 
ATOM      7  C   UNL     1      33.580 -23.677 -14.760  0.00  0.00    +0.104 C 
ATOM      8  C   UNL     1      35.888 -23.309 -14.108  0.00  0.00    +0.042 C 
ATOM      9  C   UNL     1      34.680 -23.754 -13.744  0.00  0.00    +0.024 C 
ENDROOT
BRANCH   7  12
ATOM     10  N   UNL     1      30.105 -24.593 -14.242  0.00  0.00    -0.208 N 
ATOM     11  N   UNL     1      30.597 -25.256 -13.181  0.00  0.00    -0.176 NA
ATOM     12  C   UNL     1      32.248 -24.184 -14.337  0.00  0.00    +0.056 C 
ATOM     13  C   UNL     1      31.052 -23.934 -14.967  0.00  0.00    +0.087 C 
ATOM     14  C   UNL     1      31.906 -25.002 -13.244  0.00  0.00    +0.121 C 
ATOM     15  C   UNL     1      28.688 -24.629 -14.516  0.00  0.00    +0.140 C 
ENDBRANCH   7  12
BRANCH   5  18
ATOM     16  F   UNL     1      33.234 -21.705 -18.195  0.00  0.00    -0.191 F 
ATOM     17  F   UNL     1      34.340 -23.192 -19.285  0.00  0.00    -0.191 F 
ATOM     18  C   UNL     1      34.518 -21.993 -18.619  0.00  0.00    +0.335 C 
BRANCH  18  20
ATOM     19  N   UNL     1      36.576 -17.974 -22.029  0.00  0.00    -0.244 NA
ATOM     20  C   UNL     1      35.051 -20.934 -19.523  0.00  0.00    +0.045 C 
ATOM     21  C   UNL     1      34.264 -20.435 -20.556  0.00  0.00    +0.003 C 
ATOM     22  C   UNL     1      34.763 -19.436 -21.410  0.00  0.00    +0.018 C 
ATOM     23  C   UNL     1      36.337 -20.441 -19.339  0.00  0.00    +0.003 C 
ATOM     24  C   UNL     1      36.067 -18.930 -21.229  0.00  0.00    +0.081 C 
ATOM     25  C   UNL     1      36.832 -19.449 -20.188  0.00  0.00    +0.019 C 
ATOM     26  C   UNL     1      33.992 -18.914 -22.458  0.00  0.00    +0.003 C 
ATOM     27  C   UNL     1      34.513 -17.929 -23.283  0.00  0.00    +0.021 C 
ATOM     28  C   UNL     1      35.799 -17.496 -23.028  0.00  0.00    +0.099 C 
ENDBRANCH  18  20
ENDBRANCH   5  18
TORSDOF 3
ENDMDL
MODEL 9
REMARK VINA RESULT:     -11.4      1.561      2.058
REMARK  Name = 46911863
REMARK  3 active torsions:
REMARK  status: ('A' for Active; 'I' for Inactive)
REMARK    1  A    between atoms: C_5  and  C_18
REMARK    2  A    between atoms: C_7  and  C_12
REMARK    3  A    between atoms: C_18  and  C_20
REMARK                            x       y       z     vdW  Elec       q    Type
REMARK                         _______ _______ _______ _____ _____    ______ ____
ROOT
ATOM      1  N   UNL     1      34.479 -20.856 -19.134  0.00  0.00    -0.190 N 
ATOM      2  N   UNL     1      35.521 -21.155 -18.320  0.00  0.00    -0.162 NA
ATOM      3  N   UNL     1      33.286 -19.946 -20.732  0.00  0.00    -0.126 NA
ATOM      4  N   UNL     1      32.478 -20.824 -20.038  0.00  0.00    -0.127 NA
ATOM      5  C   UNL     1      34.478 -19.979 -20.179  0.00  0.00    +0.228 A 
ATOM      6  C   UNL     1      33.202 -21.366 -19.081  0.00  0.00    +0.187 A 
ATOM      7  C   UNL     1      35.234 -22.026 -17.394  0.00  0.00    +0.104 C 
ATOM      8  C   UNL     1      32.925 -22.318 -18.081  0.00  0.00    +0.042 C 
ATOM      9  C   UNL     1      33.893 -22.677 -17.230  0.00  0.00    +0.024 C 
ENDROOT
BRANCH   7  12
ATOM     10  N   UNL     1      37.352 -23.364 -14.766  0.00  0.00    -0.208 N 
ATOM     11  N   UNL     1      38.306 -22.640 -15.377  0.00  0.00    -0.176 NA
ATOM     12  C   UNL     1      36.293 -22.433 -16.434  0.00  0.00    +0.056 C 
ATOM     13  C   UNL     1      36.128 -23.274 -15.360  0.00  0.00    +0.087 C 
ATOM     14  C   UNL     1      37.653 -22.073 -16.395  0.00  0.00    +0.121 C 
ATOM     15  C   UNL     1      37.681 -24.139 -13.594  0.00  0.00    +0.140 C 
ENDBRANCH   7  12
BRANCH   5  18
ATOM     16  F   UNL     1      36.512 -19.956 -21.412  0.00  0.00    -0.191 F 
ATOM     17  F   UNL     1      36.524 -18.975 -19.499  0.00  0.00    -0.191 F 
ATOM     18  C   UNL     1      35.710 -19.178 -20.599  0.00  0.00    +0.335 C 
BRANCH  18  20
ATOM     19  N   UNL     1      34.309 -14.279 -23.059  0.00  0.00    -0.244 NA
ATOM     20  C   UNL     1      35.340 -17.892 -21.256  0.00  0.00    +0.045 C 
ATOM     21  C   UNL     1      35.062 -17.858 -22.619  0.00  0.00    +0.003 C 
ATOM     22  C   UNL     1      34.712 -16.647 -23.243  0.00  0.00    +0.018 C 
ATOM     23  C   UNL     1      35.272 -16.721 -20.512  0.00  0.00    +0.003 C 
ATOM     24  C   UNL     1      34.640 -15.455 -22.493  0.00  0.00    +0.081 C 
ATOM     25  C   UNL     1      34.925 -15.518 -21.132  0.00  0.00    +0.019 C 
ATOM     26  C   UNL     1      34.426 -16.584 -24.613  0.00  0.00    +0.003 C 
ATOM     27  C   UNL     1      34.083 -15.374 -25.199  0.00  0.00    +0.021 C 
ATOM     28  C   UNL     1      34.040 -14.260 -24.385  0.00  0.00    +0.099 C 
ENDBRANCH  18  20
ENDBRANCH   5  18
TORSDOF 3
ENDMDL
