MODEL 1
REMARK VINA RESULT:     -13.3      0.000      0.000
REMARK  Name = 21081761
REMARK  5 active torsions:
REMARK  status: ('A' for Active; 'I' for Inactive)
REMARK    1  A    between atoms: N_2  and  C_6
REMARK    2  A    between atoms: C_3  and  C_25
REMARK    3  A    between atoms: C_7  and  O_12
REMARK    4  A    between atoms: O_12  and  C_16
REMARK    5  A    between atoms: N_24  and  C_31
REMARK                            x       y       z     vdW  Elec       q    Type
REMARK                         _______ _______ _______ _____ _____    ______ ____
ROOT
ATOM      1  O   UNL     1      32.677 -22.252 -19.598  0.00  0.00    -0.270 OA
ATOM      2  N   UNL     1      34.453 -20.920 -18.800  0.00  0.00    -0.280 N 
ATOM      3  C   UNL     1      33.452 -21.891 -18.721  0.00  0.00    +0.254 C 
ATOM      4  H   UNL     1      34.977 -20.770 -17.980  0.00  0.00    +0.155 HD
ENDROOT
BRANCH   2   6
ATOM      5  F   UNL     1      37.730 -18.498 -21.304  0.00  0.00    -0.201 F 
ATOM      6  C   UNL     1      34.800 -20.135 -19.900  0.00  0.00    +0.053 C 
ATOM      7  C   UNL     1      35.495 -18.564 -22.098  0.00  0.00    +0.173 C 
ATOM      8  C   UNL     1      36.116 -19.698 -20.058  0.00  0.00    +0.047 C 
ATOM      9  C   UNL     1      33.832 -19.786 -20.841  0.00  0.00    +0.018 C 
ATOM     10  C   UNL     1      36.464 -18.913 -21.157  0.00  0.00    +0.176 C 
ATOM     11  C   UNL     1      34.179 -18.999 -21.940  0.00  0.00    +0.041 C 
BRANCH   7  12
ATOM     12  O   UNL     1      35.838 -17.784 -23.186  0.00  0.00    -0.451 OA
BRANCH  12  16
ATOM     13  N   UNL     1      33.817 -13.807 -21.853  0.00  0.00    -0.297 N 
ATOM     14  N   UNL     1      33.363 -14.491 -24.117  0.00  0.00    -0.229 NA
ATOM     15  C   UNL     1      34.772 -15.711 -22.523  0.00  0.00    +0.067 C 
ATOM     16  C   UNL     1      35.040 -16.712 -23.471  0.00  0.00    +0.150 C 
ATOM     17  C   UNL     1      33.946 -14.662 -22.916  0.00  0.00    +0.135 C 
ATOM     18  C   UNL     1      35.142 -15.461 -21.175  0.00  0.00    +0.022 C 
ATOM     19  C   UNL     1      34.540 -14.283 -20.789  0.00  0.00    +0.063 C 
ATOM     20  C   UNL     1      34.461 -16.584 -24.734  0.00  0.00    +0.058 C 
ATOM     21  C   UNL     1      33.655 -15.484 -24.990  0.00  0.00    +0.103 C 
ATOM     22  H   UNL     1      33.287 -12.977 -21.852  0.00  0.00    +0.154 HD
ENDBRANCH  12  16
ENDBRANCH   7  12
ENDBRANCH   2   6
BRANCH   3  25
ATOM     23  O   UNL     1      35.695 -22.773 -17.161  0.00  0.00    -0.269 OA
ATOM     24  N   UNL     1      34.373 -23.458 -15.324  0.00  0.00    -0.233 N 
ATOM     25  C   UNL     1      33.379 -22.514 -17.395  0.00  0.00    +0.108 C 
ATOM     26  C   UNL     1      34.600 -22.910 -16.614  0.00  0.00    +0.261 C 
ATOM     27  C   UNL     1      33.066 -23.670 -14.881  0.00  0.00    +0.072 C 
ATOM     28  C   UNL     1      32.157 -22.741 -16.899  0.00  0.00    +0.010 C 
ATOM     29  C   UNL     1      31.994 -23.344 -15.610  0.00  0.00    +0.017 C 
BRANCH  24  31
ATOM     30  F   UNL     1      38.705 -24.840 -12.091  0.00  0.00    -0.204 F 
ATOM     31  C   UNL     1      35.499 -23.818 -14.484  0.00  0.00    +0.059 C 
ATOM     32  C   UNL     1      36.102 -22.853 -13.676  0.00  0.00    +0.018 C 
ATOM     33  C   UNL     1      35.979 -25.128 -14.483  0.00  0.00    +0.018 C 
ATOM     34  C   UNL     1      37.184 -23.199 -12.867  0.00  0.00    +0.031 C 
ATOM     35  C   UNL     1      37.062 -25.473 -13.675  0.00  0.00    +0.031 C 
ATOM     36  C   UNL     1      37.664 -24.509 -12.867  0.00  0.00    +0.140 C 
ENDBRANCH  24  31
ENDBRANCH   3  25
TORSDOF 5
ENDMDL
MODEL 2
REMARK VINA RESULT:     -13.1      5.226     12.363
REMARK  Name = 21081761
REMARK  5 active torsions:
REMARK  status: ('A' for Active; 'I' for Inactive)
REMARK    1  A    between atoms: N_2  and  C_6
REMARK    2  A    between atoms: C_3  and  C_25
REMARK    3  A    between atoms: C_7  and  O_12
REMARK    4  A    between atoms: O_12  and  C_16
REMARK    5  A    between atoms: N_24  and  C_31
REMARK                            x       y       z     vdW  Elec       q    Type
REMARK                         _______ _______ _______ _____ _____    ______ ____
ROOT
ATOM      1  O   UNL     1      31.529 -13.463 -20.258  0.00  0.00    -0.270 OA
ATOM      2  N   UNL     1      33.713 -12.991 -21.017  0.00  0.00    -0.280 N 
ATOM      3  C   UNL     1      32.439 -12.689 -20.529  0.00  0.00    +0.254 C 
ATOM      4  H   UNL     1      34.309 -12.224 -21.175  0.00  0.00    +0.155 HD
ENDROOT
BRANCH   2   6
ATOM      5  F   UNL     1      35.103 -16.278 -24.201  0.00  0.00    -0.201 F 
ATOM      6  C   UNL     1      34.243 -14.249 -21.307  0.00  0.00    +0.053 C 
ATOM      7  C   UNL     1      35.301 -16.764 -21.887  0.00  0.00    +0.173 C 
ATOM      8  C   UNL     1      34.413 -14.646 -22.634  0.00  0.00    +0.047 C 
ATOM      9  C   UNL     1      34.604 -15.110 -20.270  0.00  0.00    +0.018 C 
ATOM     10  C   UNL     1      34.941 -15.903 -22.924  0.00  0.00    +0.176 C 
ATOM     11  C   UNL     1      35.132 -16.368 -20.560  0.00  0.00    +0.041 C 
BRANCH   7  12
ATOM     12  O   UNL     1      35.824 -18.011 -22.174  0.00  0.00    -0.451 OA
BRANCH  12  16
ATOM     13  N   UNL     1      33.809 -21.062 -19.292  0.00  0.00    -0.297 N 
ATOM     14  N   UNL     1      36.180 -20.766 -18.994  0.00  0.00    -0.229 NA
ATOM     15  C   UNL     1      34.806 -19.605 -20.659  0.00  0.00    +0.067 C 
ATOM     16  C   UNL     1      35.922 -18.906 -21.146  0.00  0.00    +0.150 C 
ATOM     17  C   UNL     1      35.015 -20.493 -19.609  0.00  0.00    +0.135 C 
ATOM     18  C   UNL     1      33.420 -19.654 -20.971  0.00  0.00    +0.022 C 
ATOM     19  C   UNL     1      32.833 -20.558 -20.114  0.00  0.00    +0.063 C 
ATOM     20  C   UNL     1      37.156 -19.151 -20.545  0.00  0.00    +0.058 C 
ATOM     21  C   UNL     1      37.221 -20.065 -19.502  0.00  0.00    +0.103 C 
ATOM     22  H   UNL     1      33.664 -21.730 -18.583  0.00  0.00    +0.154 HD
ENDBRANCH  12  16
ENDBRANCH   7  12
ENDBRANCH   2   6
BRANCH   3  25
ATOM     23  O   UNL     1      32.696 -10.686 -22.570  0.00  0.00    -0.269 OA
ATOM     24  N   UNL     1      32.075  -8.903 -21.146  0.00  0.00    -0.233 N 
ATOM     25  C   UNL     1      32.238 -11.248 -20.343  0.00  0.00    +0.108 C 
ATOM     26  C   UNL     1      32.344 -10.260 -21.470  0.00  0.00    +0.261 C 
ATOM     27  C   UNL     1      31.806  -8.547 -19.824  0.00  0.00    +0.072 C 
ATOM     28  C   UNL     1      31.966 -10.830 -19.101  0.00  0.00    +0.010 C 
ATOM     29  C   UNL     1      31.753  -9.440 -18.830  0.00  0.00    +0.017 C 
BRANCH  24  31
ATOM     30  F   UNL     1      32.187  -5.018 -25.148  0.00  0.00    -0.204 F 
ATOM     31  C   UNL     1      32.104  -7.894 -22.186  0.00  0.00    +0.059 C 
ATOM     32  C   UNL     1      30.931  -7.552 -22.859  0.00  0.00    +0.018 C 
ATOM     33  C   UNL     1      33.305  -7.263 -22.513  0.00  0.00    +0.018 C 
ATOM     34  C   UNL     1      30.959  -6.580 -23.860  0.00  0.00    +0.031 C 
ATOM     35  C   UNL     1      33.333  -6.292 -23.513  0.00  0.00    +0.031 C 
ATOM     36  C   UNL     1      32.160  -5.950 -24.186  0.00  0.00    +0.140 C 
ENDBRANCH  24  31
ENDBRANCH   3  25
TORSDOF 5
ENDMDL
MODEL 3
REMARK VINA RESULT:     -13.0      0.811      1.156
REMARK  Name = 21081761
REMARK  5 active torsions:
REMARK  status: ('A' for Active; 'I' for Inactive)
REMARK    1  A    between atoms: N_2  and  C_6
REMARK    2  A    between atoms: C_3  and  C_25
REMARK    3  A    between atoms: C_7  and  O_12
REMARK    4  A    between atoms: O_12  and  C_16
REMARK    5  A    between atoms: N_24  and  C_31
REMARK                            x       y       z     vdW  Elec       q    Type
REMARK                         _______ _______ _______ _____ _____    ______ ____
ROOT
ATOM      1  O   UNL     1      32.588 -22.064 -19.592  0.00  0.00    -0.270 OA
ATOM      2  N   UNL     1      34.509 -20.913 -18.850  0.00  0.00    -0.280 N 
ATOM      3  C   UNL     1      33.436 -21.801 -18.748  0.00  0.00    +0.254 C 
ATOM      4  H   UNL     1      35.086 -20.838 -18.055  0.00  0.00    +0.155 HD
ENDROOT
BRANCH   2   6
ATOM      5  F   UNL     1      33.431 -18.927 -23.065  0.00  0.00    -0.201 F 
ATOM      6  C   UNL     1      34.863 -20.119 -19.940  0.00  0.00    +0.053 C 
ATOM      7  C   UNL     1      35.572 -18.531 -22.122  0.00  0.00    +0.173 C 
ATOM      8  C   UNL     1      33.955 -19.914 -20.980  0.00  0.00    +0.047 C 
ATOM      9  C   UNL     1      36.126 -19.528 -19.992  0.00  0.00    +0.018 C 
ATOM     10  C   UNL     1      34.309 -19.120 -22.071  0.00  0.00    +0.176 C 
ATOM     11  C   UNL     1      36.481 -18.735 -21.083  0.00  0.00    +0.041 C 
BRANCH   7  12
ATOM     12  O   UNL     1      35.925 -17.746 -23.203  0.00  0.00    -0.451 OA
BRANCH  12  16
ATOM     13  N   UNL     1      33.794 -13.842 -21.827  0.00  0.00    -0.297 N 
ATOM     14  N   UNL     1      33.464 -14.443 -24.135  0.00  0.00    -0.229 NA
ATOM     15  C   UNL     1      34.803 -15.710 -22.518  0.00  0.00    +0.067 C 
ATOM     16  C   UNL     1      35.130 -16.671 -23.488  0.00  0.00    +0.150 C 
ATOM     17  C   UNL     1      33.987 -14.654 -22.913  0.00  0.00    +0.135 C 
ATOM     18  C   UNL     1      35.101 -15.508 -21.144  0.00  0.00    +0.022 C 
ATOM     19  C   UNL     1      34.467 -14.352 -20.746  0.00  0.00    +0.063 C 
ATOM     20  C   UNL     1      34.616 -16.500 -24.773  0.00  0.00    +0.058 C 
ATOM     21  C   UNL     1      33.811 -15.398 -25.029  0.00  0.00    +0.103 C 
ATOM     22  H   UNL     1      33.255 -13.017 -21.821  0.00  0.00    +0.154 HD
ENDBRANCH  12  16
ENDBRANCH   7  12
ENDBRANCH   2   6
BRANCH   3  25
ATOM     23  O   UNL     1      35.700 -22.727 -17.244  0.00  0.00    -0.269 OA
ATOM     24  N   UNL     1      34.401 -23.473 -15.413  0.00  0.00    -0.233 N 
ATOM     25  C   UNL     1      33.381 -22.467 -17.442  0.00  0.00    +0.108 C 
ATOM     26  C   UNL     1      34.612 -22.884 -16.689  0.00  0.00    +0.261 C 
ATOM     27  C   UNL     1      33.101 -23.701 -14.962  0.00  0.00    +0.072 C 
ATOM     28  C   UNL     1      32.165 -22.711 -16.938  0.00  0.00    +0.010 C 
ATOM     29  C   UNL     1      32.019 -23.355 -15.667  0.00  0.00    +0.017 C 
BRANCH  24  31
ATOM     30  F   UNL     1      38.775 -24.945 -12.279  0.00  0.00    -0.204 F 
ATOM     31  C   UNL     1      35.538 -23.856 -14.599  0.00  0.00    +0.059 C 
ATOM     32  C   UNL     1      36.163 -22.910 -13.785  0.00  0.00    +0.018 C 
ATOM     33  C   UNL     1      36.007 -25.169 -14.629  0.00  0.00    +0.018 C 
ATOM     34  C   UNL     1      37.256 -23.278 -13.001  0.00  0.00    +0.031 C 
ATOM     35  C   UNL     1      37.100 -25.538 -13.845  0.00  0.00    +0.031 C 
ATOM     36  C   UNL     1      37.725 -24.592 -13.031  0.00  0.00    +0.140 C 
ENDBRANCH  24  31
ENDBRANCH   3  25
TORSDOF 5
ENDMDL
MODEL 4
REMARK VINA RESULT:     -13.0      5.126     12.378
REMARK  Name = 21081761
REMARK  5 active torsions:
REMARK  status: ('A' for Active; 'I' for Inactive)
REMARK    1  A    between atoms: N_2  and  C_6
REMARK    2  A    between atoms: C_3  and  C_25
REMARK    3  A    between atoms: C_7  and  O_12
REMARK    4  A    between atoms: O_12  and  C_16
REMARK    5  A    between atoms: N_24  and  C_31
REMARK                            x       y       z     vdW  Elec       q    Type
REMARK                         _______ _______ _______ _____ _____    ______ ____
ROOT
ATOM      1  O   UNL     1      32.414 -13.416 -22.048  0.00  0.00    -0.270 OA
ATOM      2  N   UNL     1      34.562 -13.845 -22.924  0.00  0.00    -0.280 N 
ATOM      3  C   UNL     1      33.447 -13.067 -22.605  0.00  0.00    +0.254 C 
ATOM      4  H   UNL     1      35.301 -13.378 -23.377  0.00  0.00    +0.155 HD
ENDROOT
BRANCH   2   6
ATOM      5  F   UNL     1      34.535 -18.383 -24.432  0.00  0.00    -0.201 F 
ATOM      6  C   UNL     1      34.756 -15.204 -22.678  0.00  0.00    +0.053 C 
ATOM      7  C   UNL     1      35.143 -17.923 -22.185  0.00  0.00    +0.173 C 
ATOM      8  C   UNL     1      34.545 -16.135 -23.696  0.00  0.00    +0.047 C 
ATOM      9  C   UNL     1      35.162 -15.634 -21.414  0.00  0.00    +0.018 C 
ATOM     10  C   UNL     1      34.738 -17.495 -23.450  0.00  0.00    +0.176 C 
ATOM     11  C   UNL     1      35.354 -16.993 -21.167  0.00  0.00    +0.041 C 
BRANCH   7  12
ATOM     12  O   UNL     1      35.334 -19.270 -21.940  0.00  0.00    -0.451 OA
BRANCH  12  16
ATOM     13  N   UNL     1      34.993 -21.787 -18.038  0.00  0.00    -0.297 N 
ATOM     14  N   UNL     1      32.903 -21.047 -18.979  0.00  0.00    -0.229 NA
ATOM     15  C   UNL     1      35.122 -20.577 -19.911  0.00  0.00    +0.067 C 
ATOM     16  C   UNL     1      34.561 -19.851 -20.974  0.00  0.00    +0.150 C 
ATOM     17  C   UNL     1      34.247 -21.128 -18.980  0.00  0.00    +0.135 C 
ATOM     18  C   UNL     1      36.436 -20.927 -19.498  0.00  0.00    +0.022 C 
ATOM     19  C   UNL     1      36.325 -21.671 -18.343  0.00  0.00    +0.063 C 
ATOM     20  C   UNL     1      33.173 -19.735 -21.022  0.00  0.00    +0.058 C 
ATOM     21  C   UNL     1      32.418 -20.338 -20.025  0.00  0.00    +0.103 C 
ATOM     22  H   UNL     1      34.630 -22.269 -17.261  0.00  0.00    +0.154 HD
ENDBRANCH  12  16
ENDBRANCH   7  12
ENDBRANCH   2   6
BRANCH   3  25
ATOM     23  O   UNL     1      31.815 -10.871 -21.735  0.00  0.00    -0.269 OA
ATOM     24  N   UNL     1      33.041  -9.250 -22.944  0.00  0.00    -0.233 N 
ATOM     25  C   UNL     1      33.603 -11.668 -23.020  0.00  0.00    +0.108 C 
ATOM     26  C   UNL     1      32.739 -10.561 -22.487  0.00  0.00    +0.261 C 
ATOM     27  C   UNL     1      34.044  -9.062 -23.895  0.00  0.00    +0.072 C 
ATOM     28  C   UNL     1      34.554 -11.408 -23.925  0.00  0.00    +0.010 C 
ATOM     29  C   UNL     1      34.776 -10.069 -24.384  0.00  0.00    +0.017 C 
BRANCH  24  31
ATOM     30  F   UNL     1      30.149  -4.896 -20.996  0.00  0.00    -0.204 F 
ATOM     31  C   UNL     1      32.289  -8.118 -22.438  0.00  0.00    +0.059 C 
ATOM     32  C   UNL     1      32.572  -7.603 -21.173  0.00  0.00    +0.018 C 
ATOM     33  C   UNL     1      31.283  -7.545 -23.216  0.00  0.00    +0.018 C 
ATOM     34  C   UNL     1      31.850  -6.514 -20.686  0.00  0.00    +0.031 C 
ATOM     35  C   UNL     1      30.560  -6.456 -22.729  0.00  0.00    +0.031 C 
ATOM     36  C   UNL     1      30.843  -5.940 -21.464  0.00  0.00    +0.140 C 
ENDBRANCH  24  31
ENDBRANCH   3  25
TORSDOF 5
ENDMDL
MODEL 5
REMARK VINA RESULT:     -12.9      2.815     10.872
REMARK  Name = 21081761
REMARK  5 active torsions:
REMARK  status: ('A' for Active; 'I' for Inactive)
REMARK    1  A    between atoms: N_2  and  C_6
REMARK    2  A    between atoms: C_3  and  C_25
REMARK    3  A    between atoms: C_7  and  O_12
REMARK    4  A    between atoms: O_12  and  C_16
REMARK    5  A    between atoms: N_24  and  C_31
REMARK                            x       y       z     vdW  Elec       q    Type
REMARK                         _______ _______ _______ _____ _____    ______ ____
ROOT
ATOM      1  O   UNL     1      36.061 -17.357 -20.247  0.00  0.00    -0.270 OA
ATOM      2  N   UNL     1      34.409 -18.772 -21.161  0.00  0.00    -0.280 N 
ATOM      3  C   UNL     1      35.200 -17.624 -21.076  0.00  0.00    +0.254 C 
ATOM      4  H   UNL     1      33.766 -18.800 -21.906  0.00  0.00    +0.155 HD
ENDROOT
BRANCH   2   6
ATOM      5  F   UNL     1      36.811 -22.017 -18.599  0.00  0.00    -0.201 F 
ATOM      6  C   UNL     1      34.420 -19.884 -20.319  0.00  0.00    +0.053 C 
ATOM      7  C   UNL     1      34.441 -22.109 -18.637  0.00  0.00    +0.173 C 
ATOM      8  C   UNL     1      35.632 -20.408 -19.869  0.00  0.00    +0.047 C 
ATOM      9  C   UNL     1      33.218 -20.473 -19.926  0.00  0.00    +0.018 C 
ATOM     10  C   UNL     1      35.643 -21.520 -19.028  0.00  0.00    +0.176 C 
ATOM     11  C   UNL     1      33.228 -21.586 -19.086  0.00  0.00    +0.041 C 
BRANCH   7  12
ATOM     12  O   UNL     1      34.450 -23.212 -17.804  0.00  0.00    -0.451 OA
BRANCH  12  16
ATOM     13  N   UNL     1      34.275 -23.169 -13.152  0.00  0.00    -0.297 N 
ATOM     14  N   UNL     1      32.150 -22.984 -14.270  0.00  0.00    -0.229 NA
ATOM     15  C   UNL     1      34.325 -23.187 -15.384  0.00  0.00    +0.067 C 
ATOM     16  C   UNL     1      33.721 -23.139 -16.651  0.00  0.00    +0.150 C 
ATOM     17  C   UNL     1      33.491 -23.105 -14.274  0.00  0.00    +0.135 C 
ATOM     18  C   UNL     1      35.653 -23.304 -14.894  0.00  0.00    +0.022 C 
ATOM     19  C   UNL     1      35.591 -23.291 -13.518  0.00  0.00    +0.063 C 
ATOM     20  C   UNL     1      32.333 -23.015 -16.706  0.00  0.00    +0.058 C 
ATOM     21  C   UNL     1      31.622 -22.944 -15.516  0.00  0.00    +0.103 C 
ATOM     22  H   UNL     1      33.945 -23.133 -12.225  0.00  0.00    +0.154 HD
ENDBRANCH  12  16
ENDBRANCH   7  12
ENDBRANCH   2   6
BRANCH   3  25
ATOM     23  O   UNL     1      34.112 -14.992 -20.707  0.00  0.00    -0.269 OA
ATOM     24  N   UNL     1      34.193 -14.445 -23.006  0.00  0.00    -0.233 N 
ATOM     25  C   UNL     1      34.908 -16.661 -22.144  0.00  0.00    +0.108 C 
ATOM     26  C   UNL     1      34.381 -15.281 -21.873  0.00  0.00    +0.261 C 
ATOM     27  C   UNL     1      34.425 -14.950 -24.286  0.00  0.00    +0.072 C 
ATOM     28  C   UNL     1      35.115 -17.071 -23.401  0.00  0.00    +0.010 C 
ATOM     29  C   UNL     1      34.858 -16.195 -24.505  0.00  0.00    +0.017 C 
BRANCH  24  31
ATOM     30  F   UNL     1      32.440  -9.193 -22.320  0.00  0.00    -0.204 F 
ATOM     31  C   UNL     1      33.737 -13.080 -22.827  0.00  0.00    +0.059 C 
ATOM     32  C   UNL     1      34.266 -12.059 -23.619  0.00  0.00    +0.018 C 
ATOM     33  C   UNL     1      32.771 -12.787 -21.865  0.00  0.00    +0.018 C 
ATOM     34  C   UNL     1      33.827 -10.746 -23.448  0.00  0.00    +0.031 C 
ATOM     35  C   UNL     1      32.332 -11.474 -21.694  0.00  0.00    +0.031 C 
ATOM     36  C   UNL     1      32.860 -10.454 -22.485  0.00  0.00    +0.140 C 
ENDBRANCH  24  31
ENDBRANCH   3  25
TORSDOF 5
ENDMDL
MODEL 6
REMARK VINA RESULT:     -12.7      2.401      3.580
REMARK  Name = 21081761
REMARK  5 active torsions:
REMARK  status: ('A' for Active; 'I' for Inactive)
REMARK    1  A    between atoms: N_2  and  C_6
REMARK    2  A    between atoms: C_3  and  C_25
REMARK    3  A    between atoms: C_7  and  O_12
REMARK    4  A    between atoms: O_12  and  C_16
REMARK    5  A    between atoms: N_24  and  C_31
REMARK                            x       y       z     vdW  Elec       q    Type
REMARK                         _______ _______ _______ _____ _____    ______ ____
ROOT
ATOM      1  O   UNL     1      35.447 -22.697 -19.779  0.00  0.00    -0.270 OA
ATOM      2  N   UNL     1      34.992 -20.496 -19.062  0.00  0.00    -0.280 N 
ATOM      3  C   UNL     1      35.141 -21.878 -18.922  0.00  0.00    +0.254 C 
ATOM      4  H   UNL     1      34.737 -20.003 -18.249  0.00  0.00    +0.155 HD
ENDROOT
BRANCH   2   6
ATOM      5  F   UNL     1      33.354 -18.894 -23.260  0.00  0.00    -0.201 F 
ATOM      6  C   UNL     1      35.160 -19.729 -20.215  0.00  0.00    +0.053 C 
ATOM      7  C   UNL     1      35.498 -18.196 -22.522  0.00  0.00    +0.173 C 
ATOM      8  C   UNL     1      34.155 -19.692 -21.182  0.00  0.00    +0.047 C 
ATOM      9  C   UNL     1      36.334 -18.998 -20.402  0.00  0.00    +0.018 C 
ATOM     10  C   UNL     1      34.324 -18.926 -22.336  0.00  0.00    +0.176 C 
ATOM     11  C   UNL     1      36.503 -18.233 -21.555  0.00  0.00    +0.041 C 
BRANCH   7  12
ATOM     12  O   UNL     1      35.666 -17.438 -23.665  0.00  0.00    -0.451 OA
BRANCH  12  16
ATOM     13  N   UNL     1      33.683 -13.607 -21.914  0.00  0.00    -0.297 N 
ATOM     14  N   UNL     1      33.151 -14.091 -24.213  0.00  0.00    -0.229 NA
ATOM     15  C   UNL     1      34.619 -15.438 -22.784  0.00  0.00    +0.067 C 
ATOM     16  C   UNL     1      34.855 -16.350 -23.826  0.00  0.00    +0.150 C 
ATOM     17  C   UNL     1      33.776 -14.364 -23.053  0.00  0.00    +0.135 C 
ATOM     18  C   UNL     1      35.035 -15.307 -21.432  0.00  0.00    +0.022 C 
ATOM     19  C   UNL     1      34.444 -14.171 -20.923  0.00  0.00    +0.063 C 
ATOM     20  C   UNL     1      34.232 -16.115 -25.051  0.00  0.00    +0.058 C 
ATOM     21  C   UNL     1      33.414 -15.001 -25.180  0.00  0.00    +0.103 C 
ATOM     22  H   UNL     1      33.150 -12.784 -21.821  0.00  0.00    +0.154 HD
ENDBRANCH  12  16
ENDBRANCH   7  12
ENDBRANCH   2   6
BRANCH   3  25
ATOM     23  O   UNL     1      32.579 -22.623 -17.861  0.00  0.00    -0.269 OA
ATOM     24  N   UNL     1      33.434 -23.215 -15.737  0.00  0.00    -0.233 N 
ATOM     25  C   UNL     1      34.882 -22.333 -17.552  0.00  0.00    +0.108 C 
ATOM     26  C   UNL     1      33.519 -22.752 -17.077  0.00  0.00    +0.261 C 
ATOM     27  C   UNL     1      34.566 -23.192 -14.922  0.00  0.00    +0.072 C 
ATOM     28  C   UNL     1      35.924 -22.347 -16.712  0.00  0.00    +0.010 C 
ATOM     29  C   UNL     1      35.761 -22.779 -15.355  0.00  0.00    +0.017 C 
BRANCH  24  31
ATOM     30  F   UNL     1      28.553 -25.033 -13.738  0.00  0.00    -0.204 F 
ATOM     31  C   UNL     1      32.165 -23.688 -15.217  0.00  0.00    +0.059 C 
ATOM     32  C   UNL     1      30.970 -23.241 -15.782  0.00  0.00    +0.018 C 
ATOM     33  C   UNL     1      32.140 -24.590 -14.153  0.00  0.00    +0.018 C 
ATOM     34  C   UNL     1      29.750 -23.696 -15.282  0.00  0.00    +0.031 C 
ATOM     35  C   UNL     1      30.920 -25.045 -13.654  0.00  0.00    +0.031 C 
ATOM     36  C   UNL     1      29.725 -24.598 -14.218  0.00  0.00    +0.140 C 
ENDBRANCH  24  31
ENDBRANCH   3  25
TORSDOF 5
ENDMDL
MODEL 7
REMARK VINA RESULT:     -12.5      3.006     10.988
REMARK  Name = 21081761
REMARK  5 active torsions:
REMARK  status: ('A' for Active; 'I' for Inactive)
REMARK    1  A    between atoms: N_2  and  C_6
REMARK    2  A    between atoms: C_3  and  C_25
REMARK    3  A    between atoms: C_7  and  O_12
REMARK    4  A    between atoms: O_12  and  C_16
REMARK    5  A    between atoms: N_24  and  C_31
REMARK                            x       y       z     vdW  Elec       q    Type
REMARK                         _______ _______ _______ _____ _____    ______ ____
ROOT
ATOM      1  O   UNL     1      36.484 -17.587 -21.647  0.00  0.00    -0.270 OA
ATOM      2  N   UNL     1      34.309 -18.495 -21.525  0.00  0.00    -0.280 N 
ATOM      3  C   UNL     1      35.298 -17.607 -21.954  0.00  0.00    +0.254 C 
ATOM      4  H   UNL     1      33.406 -18.345 -21.887  0.00  0.00    +0.155 HD
ENDROOT
BRANCH   2   6
ATOM      5  F   UNL     1      32.382 -21.637 -18.479  0.00  0.00    -0.201 F 
ATOM      6  C   UNL     1      34.445 -19.569 -20.645  0.00  0.00    +0.053 C 
ATOM      7  C   UNL     1      34.718 -21.715 -18.885  0.00  0.00    +0.173 C 
ATOM      8  C   UNL     1      33.326 -20.079 -19.987  0.00  0.00    +0.047 C 
ATOM      9  C   UNL     1      35.701 -20.134 -20.423  0.00  0.00    +0.018 C 
ATOM     10  C   UNL     1      33.462 -21.152 -19.107  0.00  0.00    +0.176 C 
ATOM     11  C   UNL     1      35.838 -21.206 -19.542  0.00  0.00    +0.041 C 
BRANCH   7  12
ATOM     12  O   UNL     1      34.854 -22.778 -18.011  0.00  0.00    -0.451 OA
BRANCH  12  16
ATOM     13  N   UNL     1      35.223 -23.132 -13.384  0.00  0.00    -0.297 N 
ATOM     14  N   UNL     1      37.092 -22.096 -14.495  0.00  0.00    -0.229 NA
ATOM     15  C   UNL     1      35.077 -22.947 -15.604  0.00  0.00    +0.067 C 
ATOM     16  C   UNL     1      35.565 -22.565 -16.864  0.00  0.00    +0.150 C 
ATOM     17  C   UNL     1      35.881 -22.684 -14.499  0.00  0.00    +0.135 C 
ATOM     18  C   UNL     1      33.899 -23.574 -15.116  0.00  0.00    +0.022 C 
ATOM     19  C   UNL     1      34.017 -23.675 -13.747  0.00  0.00    +0.063 C 
ATOM     20  C   UNL     1      36.816 -21.952 -16.918  0.00  0.00    +0.058 C 
ATOM     21  C   UNL     1      37.512 -21.749 -15.734  0.00  0.00    +0.103 C 
ATOM     22  H   UNL     1      35.563 -23.074 -12.461  0.00  0.00    +0.154 HD
ENDBRANCH  12  16
ENDBRANCH   7  12
ENDBRANCH   2   6
BRANCH   3  25
ATOM     23  O   UNL     1      34.449 -14.955 -21.252  0.00  0.00    -0.269 OA
ATOM     24  N   UNL     1      33.958 -14.332 -23.480  0.00  0.00    -0.233 N 
ATOM     25  C   UNL     1      34.781 -16.599 -22.887  0.00  0.00    +0.108 C 
ATOM     26  C   UNL     1      34.397 -15.212 -22.455  0.00  0.00    +0.261 C 
ATOM     27  C   UNL     1      33.833 -14.800 -24.789  0.00  0.00    +0.072 C 
ATOM     28  C   UNL     1      34.641 -16.972 -24.164  0.00  0.00    +0.010 C 
ATOM     29  C   UNL     1      34.144 -16.051 -25.143  0.00  0.00    +0.017 C 
BRANCH  24  31
ATOM     30  F   UNL     1      32.656  -9.052 -22.234  0.00  0.00    -0.204 F 
ATOM     31  C   UNL     1      33.620 -12.960 -23.156  0.00  0.00    +0.059 C 
ATOM     32  C   UNL     1      32.696 -12.689 -22.146  0.00  0.00    +0.018 C 
ATOM     33  C   UNL     1      34.218 -11.910 -23.855  0.00  0.00    +0.018 C 
ATOM     34  C   UNL     1      32.372 -11.369 -21.834  0.00  0.00    +0.031 C 
ATOM     35  C   UNL     1      33.893 -10.590 -23.543  0.00  0.00    +0.031 C 
ATOM     36  C   UNL     1      32.970 -10.320 -22.533  0.00  0.00    +0.140 C 
ENDBRANCH  24  31
ENDBRANCH   3  25
TORSDOF 5
ENDMDL
MODEL 8
REMARK VINA RESULT:     -12.3      0.542      1.622
REMARK  Name = 21081761
REMARK  5 active torsions:
REMARK  status: ('A' for Active; 'I' for Inactive)
REMARK    1  A    between atoms: N_2  and  C_6
REMARK    2  A    between atoms: C_3  and  C_25
REMARK    3  A    between atoms: C_7  and  O_12
REMARK    4  A    between atoms: O_12  and  C_16
REMARK    5  A    between atoms: N_24  and  C_31
REMARK                            x       y       z     vdW  Elec       q    Type
REMARK                         _______ _______ _______ _____ _____    ______ ____
ROOT
ATOM      1  O   UNL     1      32.612 -22.348 -19.254  0.00  0.00    -0.270 OA
ATOM      2  N   UNL     1      34.483 -21.106 -18.531  0.00  0.00    -0.280 N 
ATOM      3  C   UNL     1      33.467 -22.058 -18.426  0.00  0.00    +0.254 C 
ATOM      4  H   UNL     1      35.077 -21.018 -17.750  0.00  0.00    +0.155 HD
ENDROOT
BRANCH   2   6
ATOM      5  F   UNL     1      37.608 -18.626 -21.168  0.00  0.00    -0.201 F 
ATOM      6  C   UNL     1      34.759 -20.263 -19.607  0.00  0.00    +0.053 C 
ATOM      7  C   UNL     1      35.311 -18.575 -21.759  0.00  0.00    +0.173 C 
ATOM      8  C   UNL     1      36.070 -19.856 -19.857  0.00  0.00    +0.047 C 
ATOM      9  C   UNL     1      33.724 -19.826 -20.434  0.00  0.00    +0.018 C 
ATOM     10  C   UNL     1      36.347 -19.011 -20.933  0.00  0.00    +0.176 C 
ATOM     11  C   UNL     1      34.000 -18.981 -21.510  0.00  0.00    +0.041 C 
BRANCH   7  12
ATOM     12  O   UNL     1      35.584 -17.737 -22.824  0.00  0.00    -0.451 OA
BRANCH  12  16
ATOM     13  N   UNL     1      33.616 -14.026 -24.832  0.00  0.00    -0.297 N 
ATOM     14  N   UNL     1      34.230 -13.749 -22.519  0.00  0.00    -0.229 NA
ATOM     15  C   UNL     1      34.562 -15.788 -23.840  0.00  0.00    +0.067 C 
ATOM     16  C   UNL     1      35.140 -16.447 -22.742  0.00  0.00    +0.150 C 
ATOM     17  C   UNL     1      34.144 -14.475 -23.650  0.00  0.00    +0.135 C 
ATOM     18  C   UNL     1      34.268 -16.123 -25.188  0.00  0.00    +0.022 C 
ATOM     19  C   UNL     1      33.686 -15.020 -25.774  0.00  0.00    +0.063 C 
ATOM     20  C   UNL     1      35.254 -15.741 -21.545  0.00  0.00    +0.058 C 
ATOM     21  C   UNL     1      34.795 -14.432 -21.496  0.00  0.00    +0.103 C 
ATOM     22  H   UNL     1      33.242 -13.127 -24.983  0.00  0.00    +0.154 HD
ENDBRANCH  12  16
ENDBRANCH   7  12
ENDBRANCH   2   6
BRANCH   3  25
ATOM     23  O   UNL     1      35.823 -22.824 -16.975  0.00  0.00    -0.269 OA
ATOM     24  N   UNL     1      34.619 -23.729 -15.151  0.00  0.00    -0.233 N 
ATOM     25  C   UNL     1      33.488 -22.760 -17.138  0.00  0.00    +0.108 C 
ATOM     26  C   UNL     1      34.761 -23.090 -16.411  0.00  0.00    +0.261 C 
ATOM     27  C   UNL     1      33.350 -24.080 -14.690  0.00  0.00    +0.072 C 
ATOM     28  C   UNL     1      32.305 -23.123 -16.627  0.00  0.00    +0.010 C 
ATOM     29  C   UNL     1      32.233 -23.811 -15.372  0.00  0.00    +0.017 C 
BRANCH  24  31
ATOM     30  F   UNL     1      39.148 -24.901 -12.110  0.00  0.00    -0.204 F 
ATOM     31  C   UNL     1      35.797 -24.033 -14.361  0.00  0.00    +0.059 C 
ATOM     32  C   UNL     1      36.274 -23.106 -13.435  0.00  0.00    +0.018 C 
ATOM     33  C   UNL     1      36.451 -25.255 -14.526  0.00  0.00    +0.018 C 
ATOM     34  C   UNL     1      37.406 -23.399 -12.674  0.00  0.00    +0.031 C 
ATOM     35  C   UNL     1      37.583 -25.548 -13.766  0.00  0.00    +0.031 C 
ATOM     36  C   UNL     1      38.060 -24.620 -12.840  0.00  0.00    +0.140 C 
ENDBRANCH  24  31
ENDBRANCH   3  25
TORSDOF 5
ENDMDL
MODEL 9
REMARK VINA RESULT:     -12.3      5.627      8.963
REMARK  Name = 21081761
REMARK  5 active torsions:
REMARK  status: ('A' for Active; 'I' for Inactive)
REMARK    1  A    between atoms: N_2  and  C_6
REMARK    2  A    between atoms: C_3  and  C_25
REMARK    3  A    between atoms: C_7  and  O_12
REMARK    4  A    between atoms: O_12  and  C_16
REMARK    5  A    between atoms: N_24  and  C_31
REMARK                            x       y       z     vdW  Elec       q    Type
REMARK                         _______ _______ _______ _____ _____    ______ ____
ROOT
ATOM      1  O   UNL     1      35.307 -13.641 -21.002  0.00  0.00    -0.270 OA
ATOM      2  N   UNL     1      33.271 -13.826 -22.179  0.00  0.00    -0.280 N 
ATOM      3  C   UNL     1      34.501 -14.263 -21.682  0.00  0.00    +0.254 C 
ATOM      4  H   UNL     1      32.762 -14.479 -22.711  0.00  0.00    +0.155 HD
ENDROOT
BRANCH   2   6
ATOM      5  F   UNL     1      32.752  -9.266 -23.523  0.00  0.00    -0.201 F 
ATOM      6  C   UNL     1      32.677 -12.575 -22.014  0.00  0.00    +0.053 C 
ATOM      7  C   UNL     1      31.489 -10.072 -21.683  0.00  0.00    +0.173 C 
ATOM      8  C   UNL     1      33.016 -11.523 -22.866  0.00  0.00    +0.047 C 
ATOM      9  C   UNL     1      31.743 -12.375 -20.998  0.00  0.00    +0.018 C 
ATOM     10  C   UNL     1      32.422 -10.271 -22.701  0.00  0.00    +0.176 C 
ATOM     11  C   UNL     1      31.150 -11.124 -20.831  0.00  0.00    +0.041 C 
BRANCH   7  12
ATOM     12  O   UNL     1      30.901  -8.832 -21.518  0.00  0.00    -0.451 OA
BRANCH  12  16
ATOM     13  N   UNL     1      32.106  -4.338 -21.675  0.00  0.00    -0.297 N 
ATOM     14  N   UNL     1      33.391  -5.702 -20.162  0.00  0.00    -0.229 NA
ATOM     15  C   UNL     1      31.553  -6.499 -21.576  0.00  0.00    +0.067 C 
ATOM     16  C   UNL     1      31.698  -7.808 -21.089  0.00  0.00    +0.150 C 
ATOM     17  C   UNL     1      32.416  -5.530 -21.074  0.00  0.00    +0.135 C 
ATOM     18  C   UNL     1      30.703  -5.849 -22.510  0.00  0.00    +0.022 C 
ATOM     19  C   UNL     1      31.066  -4.520 -22.550  0.00  0.00    +0.063 C 
ATOM     20  C   UNL     1      32.693  -8.043 -20.141  0.00  0.00    +0.058 C 
ATOM     21  C   UNL     1      33.486  -6.981 -19.728  0.00  0.00    +0.103 C 
ATOM     22  H   UNL     1      32.560  -3.481 -21.505  0.00  0.00    +0.154 HD
ENDBRANCH  12  16
ENDBRANCH   7  12
ENDBRANCH   2   6
BRANCH   3  25
ATOM     23  O   UNL     1      35.010 -16.423 -19.859  0.00  0.00    -0.269 OA
ATOM     24  N   UNL     1      35.238 -18.044 -21.567  0.00  0.00    -0.233 N 
ATOM     25  C   UNL     1      34.797 -15.650 -22.060  0.00  0.00    +0.108 C 
ATOM     26  C   UNL     1      35.008 -16.741 -21.049  0.00  0.00    +0.261 C 
ATOM     27  C   UNL     1      35.331 -18.235 -22.946  0.00  0.00    +0.072 C 
ATOM     28  C   UNL     1      34.893 -15.913 -23.368  0.00  0.00    +0.010 C 
ATOM     29  C   UNL     1      35.178 -17.241 -23.826  0.00  0.00    +0.017 C 
BRANCH  24  31
ATOM     30  F   UNL     1      35.858 -22.348 -18.072  0.00  0.00    -0.204 F 
ATOM     31  C   UNL     1      35.399 -19.163 -20.658  0.00  0.00    +0.059 C 
ATOM     32  C   UNL     1      36.667 -19.497 -20.182  0.00  0.00    +0.018 C 
ATOM     33  C   UNL     1      34.286 -19.904 -20.260  0.00  0.00    +0.018 C 
ATOM     34  C   UNL     1      36.822 -20.573 -19.308  0.00  0.00    +0.031 C 
ATOM     35  C   UNL     1      34.441 -20.980 -19.386  0.00  0.00    +0.031 C 
ATOM     36  C   UNL     1      35.709 -21.314 -18.910  0.00  0.00    +0.140 C 
ENDBRANCH  24  31
ENDBRANCH   3  25
TORSDOF 5
ENDMDL
