MODEL 1
REMARK VINA RESULT:     -11.7      0.000      0.000
REMARK  Name = 4369498
REMARK  8 active torsions:
REMARK  status: ('A' for Active; 'I' for Inactive)
REMARK    1  A    between atoms: N_2  and  C_11
REMARK    2  A    between atoms: C_5  and  C_25
REMARK    3  A    between atoms: C_8  and  S_14
REMARK    4  A    between atoms: C_13  and  O_23
REMARK    5  A    between atoms: S_14  and  N_17
REMARK    6  A    between atoms: N_17  and  C_19
REMARK    7  A    between atoms: C_19  and  C_20
REMARK    8  A    between atoms: C_26  and  C_32
REMARK                            x       y       z     vdW  Elec       q    Type
REMARK                         _______ _______ _______ _____ _____    ______ ____
ROOT
ATOM      1  O   UNL     1      36.185 -21.036 -18.123  0.00  0.00    -0.424 OA
ATOM      2  N   UNL     1      36.013 -22.268 -16.191  0.00  0.00    -0.265 N 
ATOM      3  N   UNL     1      34.399 -22.415 -17.969  0.00  0.00    -0.193 NA
ATOM      4  C   UNL     1      35.489 -21.955 -17.397  0.00  0.00    +0.293 C 
ATOM      5  C   UNL     1      35.453 -20.910 -19.265  0.00  0.00    +0.168 C 
ATOM      6  C   UNL     1      34.370 -21.748 -19.166  0.00  0.00    +0.141 C 
ATOM      7  H   UNL     1      36.847 -21.795 -15.966  0.00  0.00    +0.157 HD
ENDROOT
BRANCH   2  11
ATOM      8  C   UNL     1      33.728 -24.073 -13.888  0.00  0.00    +0.123 C 
ATOM      9  C   UNL     1      34.195 -23.193 -14.866  0.00  0.00    +0.038 C 
ATOM     10  C   UNL     1      34.618 -24.931 -13.240  0.00  0.00    +0.023 C 
ATOM     11  C   UNL     1      35.550 -23.172 -15.194  0.00  0.00    +0.087 C 
ATOM     12  C   UNL     1      35.973 -24.909 -13.568  0.00  0.00    +0.040 C 
ATOM     13  C   UNL     1      36.439 -24.030 -14.546  0.00  0.00    +0.152 C 
BRANCH   8  14
ATOM     14  S   UNL     1      32.032 -24.099 -13.473  0.00  0.00    +0.060 S 
ATOM     15  O   UNL     1      31.593 -25.486 -13.382  0.00  0.00    -0.153 OA
ATOM     16  O   UNL     1      31.840 -23.213 -12.332  0.00  0.00    -0.153 OA
BRANCH  14  17
ATOM     17  N   UNL     1      31.307 -23.384 -14.846  0.00  0.00    -0.179 NA
ATOM     18  H   UNL     1      31.974 -23.473 -15.612  0.00  0.00    +0.149 HD
BRANCH  17  19
ATOM     19  C   UNL     1      30.020 -23.893 -15.342  0.00  0.00    +0.091 C 
BRANCH  19  20
ATOM     20  C   UNL     1      29.192 -22.785 -15.900  0.00  0.00    +0.017 C 
ATOM     21  C   UNL     1      27.979 -23.116 -16.721  0.00  0.00    +0.001 C 
ATOM     22  C   UNL     1      27.819 -22.543 -15.344  0.00  0.00    +0.001 C 
ENDBRANCH  19  20
ENDBRANCH  17  19
ENDBRANCH  14  17
ENDBRANCH   8  14
BRANCH  13  23
ATOM     23  O   UNL     1      37.768 -24.023 -14.851  0.00  0.00    -0.470 OA
ATOM     24  C   UNL     1      38.606 -24.911 -14.114  0.00  0.00    +0.253 C 
ENDBRANCH  13  23
ENDBRANCH   2  11
BRANCH   5  25
ATOM     25  C   UNL     1      35.954 -19.983 -20.248  0.00  0.00    +0.036 C 
ATOM     26  C   UNL     1      35.594 -18.595 -22.193  0.00  0.00    +0.002 C 
ATOM     27  C   UNL     1      35.108 -19.492 -21.243  0.00  0.00    +0.003 C 
ATOM     28  C   UNL     1      37.288 -19.574 -20.205  0.00  0.00    +0.003 C 
ATOM     29  C   UNL     1      36.928 -18.188 -22.149  0.00  0.00    +0.000 C 
ATOM     30  C   UNL     1      37.775 -18.677 -21.155  0.00  0.00    +0.000 C 
BRANCH  26  32
ATOM     31  N   UNL     1      32.969 -18.510 -24.842  0.00  0.00    -0.242 NA
ATOM     32  C   UNL     1      34.716 -18.087 -23.225  0.00  0.00    +0.019 C 
ATOM     33  C   UNL     1      34.748 -16.749 -23.599  0.00  0.00    +0.003 C 
ATOM     34  C   UNL     1      33.816 -18.920 -23.871  0.00  0.00    +0.099 C 
ATOM     35  C   UNL     1      33.892 -16.290 -24.594  0.00  0.00    +0.021 C 
ATOM     36  C   UNL     1      33.030 -17.203 -25.179  0.00  0.00    +0.099 C 
ENDBRANCH  26  32
ENDBRANCH   5  25
TORSDOF 8
ENDMDL
MODEL 2
REMARK VINA RESULT:     -11.6      7.343     11.532
REMARK  Name = 4369498
REMARK  8 active torsions:
REMARK  status: ('A' for Active; 'I' for Inactive)
REMARK    1  A    between atoms: N_2  and  C_11
REMARK    2  A    between atoms: C_5  and  C_25
REMARK    3  A    between atoms: C_8  and  S_14
REMARK    4  A    between atoms: C_13  and  O_23
REMARK    5  A    between atoms: S_14  and  N_17
REMARK    6  A    between atoms: N_17  and  C_19
REMARK    7  A    between atoms: C_19  and  C_20
REMARK    8  A    between atoms: C_26  and  C_32
REMARK                            x       y       z     vdW  Elec       q    Type
REMARK                         _______ _______ _______ _____ _____    ______ ____
ROOT
ATOM      1  O   UNL     1      33.300 -11.465 -22.243  0.00  0.00    -0.424 OA
ATOM      2  N   UNL     1      34.082 -13.470 -23.047  0.00  0.00    -0.265 N 
ATOM      3  N   UNL     1      32.237 -13.321 -21.511  0.00  0.00    -0.193 NA
ATOM      4  C   UNL     1      33.193 -12.822 -22.261  0.00  0.00    +0.293 C 
ATOM      5  C   UNL     1      32.308 -11.077 -21.393  0.00  0.00    +0.168 C 
ATOM      6  C   UNL     1      31.666 -12.207 -20.952  0.00  0.00    +0.141 C 
ATOM      7  H   UNL     1      34.715 -12.886 -23.524  0.00  0.00    +0.157 HD
ENDROOT
BRANCH   2  11
ATOM      8  C   UNL     1      35.085 -17.014 -22.580  0.00  0.00    +0.123 C 
ATOM      9  C   UNL     1      34.911 -15.649 -22.350  0.00  0.00    +0.038 C 
ATOM     10  C   UNL     1      34.595 -17.592 -23.751  0.00  0.00    +0.023 C 
ATOM     11  C   UNL     1      34.249 -14.862 -23.292  0.00  0.00    +0.087 C 
ATOM     12  C   UNL     1      33.933 -16.805 -24.693  0.00  0.00    +0.040 C 
ATOM     13  C   UNL     1      33.759 -15.440 -24.464  0.00  0.00    +0.152 C 
BRANCH   8  14
ATOM     14  S   UNL     1      35.917 -18.000 -21.403  0.00  0.00    +0.060 S 
ATOM     15  O   UNL     1      37.260 -18.283 -21.893  0.00  0.00    -0.153 OA
ATOM     16  O   UNL     1      35.751 -17.371 -20.099  0.00  0.00    -0.153 OA
BRANCH  14  17
ATOM     17  N   UNL     1      35.009 -19.448 -21.428  0.00  0.00    -0.179 NA
ATOM     18  H   UNL     1      35.599 -20.158 -21.862  0.00  0.00    +0.149 HD
BRANCH  17  19
ATOM     19  C   UNL     1      34.511 -20.021 -20.169  0.00  0.00    +0.091 C 
BRANCH  19  20
ATOM     20  C   UNL     1      35.277 -21.250 -19.807  0.00  0.00    +0.017 C 
ATOM     21  C   UNL     1      36.210 -21.213 -18.632  0.00  0.00    +0.001 C 
ATOM     22  C   UNL     1      34.928 -21.987 -18.548  0.00  0.00    +0.001 C 
ENDBRANCH  19  20
ENDBRANCH  17  19
ENDBRANCH  14  17
ENDBRANCH   8  14
BRANCH  13  23
ATOM     23  O   UNL     1      33.111 -14.688 -25.397  0.00  0.00    -0.470 OA
ATOM     24  C   UNL     1      33.917 -13.869 -26.242  0.00  0.00    +0.253 C 
ENDBRANCH  13  23
ENDBRANCH   2  11
BRANCH   5  25
ATOM     25  C   UNL     1      32.174  -9.659 -21.170  0.00  0.00    +0.036 C 
ATOM     26  C   UNL     1      32.332  -7.388 -21.979  0.00  0.00    +0.002 C 
ATOM     27  C   UNL     1      32.463  -8.759 -22.195  0.00  0.00    +0.003 C 
ATOM     28  C   UNL     1      31.752  -9.186 -19.926  0.00  0.00    +0.003 C 
ATOM     29  C   UNL     1      31.912  -6.916 -20.735  0.00  0.00    +0.000 C 
ATOM     30  C   UNL     1      31.621  -7.815 -19.709  0.00  0.00    +0.000 C 
BRANCH  26  32
ATOM     31  N   UNL     1      31.838  -5.035 -24.831  0.00  0.00    -0.242 NA
ATOM     32  C   UNL     1      32.633  -6.455 -23.042  0.00  0.00    +0.019 C 
ATOM     33  C   UNL     1      33.942  -6.074 -23.314  0.00  0.00    +0.003 C 
ATOM     34  C   UNL     1      31.625  -5.911 -23.823  0.00  0.00    +0.099 C 
ATOM     35  C   UNL     1      34.200  -5.176 -24.342  0.00  0.00    +0.021 C 
ATOM     36  C   UNL     1      33.122  -4.689 -25.065  0.00  0.00    +0.099 C 
ENDBRANCH  26  32
ENDBRANCH   5  25
TORSDOF 8
ENDMDL
MODEL 3
REMARK VINA RESULT:     -11.4      2.404      5.541
REMARK  Name = 4369498
REMARK  8 active torsions:
REMARK  status: ('A' for Active; 'I' for Inactive)
REMARK    1  A    between atoms: N_2  and  C_11
REMARK    2  A    between atoms: C_5  and  C_25
REMARK    3  A    between atoms: C_8  and  S_14
REMARK    4  A    between atoms: C_13  and  O_23
REMARK    5  A    between atoms: S_14  and  N_17
REMARK    6  A    between atoms: N_17  and  C_19
REMARK    7  A    between atoms: C_19  and  C_20
REMARK    8  A    between atoms: C_26  and  C_32
REMARK                            x       y       z     vdW  Elec       q    Type
REMARK                         _______ _______ _______ _____ _____    ______ ____
ROOT
ATOM      1  O   UNL     1      34.185 -20.427 -20.253  0.00  0.00    -0.424 OA
ATOM      2  N   UNL     1      33.855 -21.718 -18.382  0.00  0.00    -0.265 N 
ATOM      3  N   UNL     1      35.981 -20.724 -18.911  0.00  0.00    -0.193 NA
ATOM      4  C   UNL     1      34.711 -20.981 -19.126  0.00  0.00    +0.293 C 
ATOM      5  C   UNL     1      35.238 -19.754 -20.798  0.00  0.00    +0.168 C 
ATOM      6  C   UNL     1      36.325 -19.938 -19.981  0.00  0.00    +0.141 C 
ATOM      7  H   UNL     1      32.939 -21.775 -18.739  0.00  0.00    +0.157 HD
ENDROOT
BRANCH   2  11
ATOM      8  C   UNL     1      35.582 -23.202 -15.449  0.00  0.00    +0.123 C 
ATOM      9  C   UNL     1      35.358 -22.508 -16.640  0.00  0.00    +0.038 C 
ATOM     10  C   UNL     1      34.517 -23.812 -14.787  0.00  0.00    +0.023 C 
ATOM     11  C   UNL     1      34.069 -22.426 -17.166  0.00  0.00    +0.087 C 
ATOM     12  C   UNL     1      33.228 -23.730 -15.314  0.00  0.00    +0.040 C 
ATOM     13  C   UNL     1      33.004 -23.037 -16.504  0.00  0.00    +0.152 C 
BRANCH   8  14
ATOM     14  S   UNL     1      37.196 -23.308 -14.791  0.00  0.00    +0.060 S 
ATOM     15  O   UNL     1      38.100 -22.541 -15.638  0.00  0.00    -0.153 OA
ATOM     16  O   UNL     1      37.116 -23.000 -13.369  0.00  0.00    -0.153 OA
BRANCH  14  17
ATOM     17  N   UNL     1      37.557 -24.969 -14.968  0.00  0.00    -0.179 NA
ATOM     18  H   UNL     1      38.279 -25.039 -15.686  0.00  0.00    +0.149 HD
BRANCH  17  19
ATOM     19  C   UNL     1      38.032 -25.743 -13.812  0.00  0.00    +0.091 C 
BRANCH  19  20
ATOM     20  C   UNL     1      39.453 -25.411 -13.500  0.00  0.00    +0.017 C 
ATOM     21  C   UNL     1      40.530 -26.397 -13.848  0.00  0.00    +0.001 C 
ATOM     22  C   UNL     1      40.402 -25.120 -14.625  0.00  0.00    +0.001 C 
ENDBRANCH  19  20
ENDBRANCH  17  19
ENDBRANCH  14  17
ENDBRANCH   8  14
BRANCH  13  23
ATOM     23  O   UNL     1      31.738 -22.970 -17.003  0.00  0.00    -0.470 OA
ATOM     24  C   UNL     1      30.681 -22.788 -16.063  0.00  0.00    +0.253 C 
ENDBRANCH  13  23
ENDBRANCH   2  11
BRANCH   5  25
ATOM     25  C   UNL     1      34.980 -19.052 -22.031  0.00  0.00    +0.036 C 
ATOM     26  C   UNL     1      34.569 -16.988 -23.218  0.00  0.00    +0.002 C 
ATOM     27  C   UNL     1      34.818 -17.667 -22.026  0.00  0.00    +0.003 C 
ATOM     28  C   UNL     1      34.895 -19.758 -23.231  0.00  0.00    +0.003 C 
ATOM     29  C   UNL     1      34.483 -17.695 -24.417  0.00  0.00    +0.000 C 
ATOM     30  C   UNL     1      34.646 -19.080 -24.424  0.00  0.00    +0.000 C 
BRANCH  26  32
ATOM     31  N   UNL     1      33.705 -13.549 -24.375  0.00  0.00    -0.242 NA
ATOM     32  C   UNL     1      34.400 -15.551 -23.212  0.00  0.00    +0.019 C 
ATOM     33  C   UNL     1      34.743 -14.793 -22.098  0.00  0.00    +0.003 C 
ATOM     34  C   UNL     1      33.889 -14.886 -24.316  0.00  0.00    +0.099 C 
ATOM     35  C   UNL     1      34.569 -13.414 -22.122  0.00  0.00    +0.021 C 
ATOM     36  C   UNL     1      34.051 -12.846 -23.275  0.00  0.00    +0.099 C 
ENDBRANCH  26  32
ENDBRANCH   5  25
TORSDOF 8
ENDMDL
MODEL 4
REMARK VINA RESULT:     -11.1      2.358      5.114
REMARK  Name = 4369498
REMARK  8 active torsions:
REMARK  status: ('A' for Active; 'I' for Inactive)
REMARK    1  A    between atoms: N_2  and  C_11
REMARK    2  A    between atoms: C_5  and  C_25
REMARK    3  A    between atoms: C_8  and  S_14
REMARK    4  A    between atoms: C_13  and  O_23
REMARK    5  A    between atoms: S_14  and  N_17
REMARK    6  A    between atoms: N_17  and  C_19
REMARK    7  A    between atoms: C_19  and  C_20
REMARK    8  A    between atoms: C_26  and  C_32
REMARK                            x       y       z     vdW  Elec       q    Type
REMARK                         _______ _______ _______ _____ _____    ______ ____
ROOT
ATOM      1  O   UNL     1      33.613 -20.427 -20.278  0.00  0.00    -0.424 OA
ATOM      2  N   UNL     1      33.005 -21.667 -18.442  0.00  0.00    -0.265 N 
ATOM      3  N   UNL     1      35.279 -20.998 -18.858  0.00  0.00    -0.193 NA
ATOM      4  C   UNL     1      33.996 -21.061 -19.135  0.00  0.00    +0.293 C 
ATOM      5  C   UNL     1      34.779 -19.917 -20.764  0.00  0.00    +0.168 C 
ATOM      6  C   UNL     1      35.786 -20.266 -19.900  0.00  0.00    +0.141 C 
ATOM      7  H   UNL     1      32.109 -21.584 -18.841  0.00  0.00    +0.157 HD
ENDROOT
BRANCH   2  11
ATOM      8  C   UNL     1      34.349 -23.545 -15.534  0.00  0.00    +0.123 C 
ATOM      9  C   UNL     1      34.288 -22.817 -16.723  0.00  0.00    +0.038 C 
ATOM     10  C   UNL     1      33.175 -23.863 -14.850  0.00  0.00    +0.023 C 
ATOM     11  C   UNL     1      33.053 -22.408 -17.226  0.00  0.00    +0.087 C 
ATOM     12  C   UNL     1      31.941 -23.454 -15.355  0.00  0.00    +0.040 C 
ATOM     13  C   UNL     1      31.880 -22.726 -16.543  0.00  0.00    +0.152 C 
BRANCH   8  14
ATOM     14  S   UNL     1      35.893 -24.061 -14.904  0.00  0.00    +0.060 S 
ATOM     15  O   UNL     1      35.951 -25.517 -14.938  0.00  0.00    -0.153 OA
ATOM     16  O   UNL     1      36.929 -23.290 -15.578  0.00  0.00    -0.153 OA
BRANCH  14  17
ATOM     17  N   UNL     1      35.813 -23.556 -13.273  0.00  0.00    -0.179 NA
ATOM     18  H   UNL     1      35.042 -22.892 -13.208  0.00  0.00    +0.149 HD
BRANCH  17  19
ATOM     19  C   UNL     1      35.609 -24.549 -12.208  0.00  0.00    +0.091 C 
BRANCH  19  20
ATOM     20  C   UNL     1      36.894 -24.844 -11.508  0.00  0.00    +0.017 C 
ATOM     21  C   UNL     1      37.670 -26.072 -11.886  0.00  0.00    +0.001 C 
ATOM     22  C   UNL     1      38.186 -24.714 -12.260  0.00  0.00    +0.001 C 
ENDBRANCH  19  20
ENDBRANCH  17  19
ENDBRANCH  14  17
ENDBRANCH   8  14
BRANCH  13  23
ATOM     23  O   UNL     1      30.664 -22.336 -17.019  0.00  0.00    -0.470 OA
ATOM     24  C   UNL     1      29.533 -22.585 -16.187  0.00  0.00    +0.253 C 
ENDBRANCH  13  23
ENDBRANCH   2  11
BRANCH   5  25
ATOM     25  C   UNL     1      34.687 -19.175 -21.998  0.00  0.00    +0.036 C 
ATOM     26  C   UNL     1      34.495 -17.069 -23.166  0.00  0.00    +0.002 C 
ATOM     27  C   UNL     1      34.582 -17.785 -21.972  0.00  0.00    +0.003 C 
ATOM     28  C   UNL     1      34.706 -19.850 -23.220  0.00  0.00    +0.003 C 
ATOM     29  C   UNL     1      34.512 -17.744 -24.386  0.00  0.00    +0.000 C 
ATOM     30  C   UNL     1      34.618 -19.135 -24.413  0.00  0.00    +0.000 C 
BRANCH  26  32
ATOM     31  N   UNL     1      33.854 -13.574 -24.300  0.00  0.00    -0.242 NA
ATOM     32  C   UNL     1      34.385 -15.627 -23.138  0.00  0.00    +0.019 C 
ATOM     33  C   UNL     1      34.683 -14.906 -21.988  0.00  0.00    +0.003 C 
ATOM     34  C   UNL     1      33.978 -14.919 -24.259  0.00  0.00    +0.099 C 
ATOM     35  C   UNL     1      34.568 -13.521 -21.992  0.00  0.00    +0.021 C 
ATOM     36  C   UNL     1      34.153 -12.908 -23.164  0.00  0.00    +0.099 C 
ENDBRANCH  26  32
ENDBRANCH   5  25
TORSDOF 8
ENDMDL
MODEL 5
REMARK VINA RESULT:     -10.9      7.615     13.109
REMARK  Name = 4369498
REMARK  8 active torsions:
REMARK  status: ('A' for Active; 'I' for Inactive)
REMARK    1  A    between atoms: N_2  and  C_11
REMARK    2  A    between atoms: C_5  and  C_25
REMARK    3  A    between atoms: C_8  and  S_14
REMARK    4  A    between atoms: C_13  and  O_23
REMARK    5  A    between atoms: S_14  and  N_17
REMARK    6  A    between atoms: N_17  and  C_19
REMARK    7  A    between atoms: C_19  and  C_20
REMARK    8  A    between atoms: C_26  and  C_32
REMARK                            x       y       z     vdW  Elec       q    Type
REMARK                         _______ _______ _______ _____ _____    ______ ____
ROOT
ATOM      1  O   UNL     1      34.166 -14.782 -23.056  0.00  0.00    -0.424 OA
ATOM      2  N   UNL     1      33.761 -12.545 -23.391  0.00  0.00    -0.265 N 
ATOM      3  N   UNL     1      34.690 -13.401 -21.343  0.00  0.00    -0.193 NA
ATOM      4  C   UNL     1      34.212 -13.514 -22.562  0.00  0.00    +0.293 C 
ATOM      5  C   UNL     1      34.668 -15.539 -22.040  0.00  0.00    +0.168 C 
ATOM      6  C   UNL     1      34.984 -14.697 -21.003  0.00  0.00    +0.141 C 
ATOM      7  H   UNL     1      33.446 -12.864 -24.268  0.00  0.00    +0.157 HD
ENDROOT
BRANCH   2  11
ATOM      8  C   UNL     1      32.860  -9.267 -21.899  0.00  0.00    +0.123 C 
ATOM      9  C   UNL     1      32.962 -10.644 -22.100  0.00  0.00    +0.038 C 
ATOM     10  C   UNL     1      33.466  -8.385 -22.795  0.00  0.00    +0.023 C 
ATOM     11  C   UNL     1      33.668 -11.138 -23.197  0.00  0.00    +0.087 C 
ATOM     12  C   UNL     1      34.172  -8.880 -23.891  0.00  0.00    +0.040 C 
ATOM     13  C   UNL     1      34.274 -10.257 -24.092  0.00  0.00    +0.152 C 
BRANCH   8  14
ATOM     14  S   UNL     1      31.973  -8.647 -20.529  0.00  0.00    +0.060 S 
ATOM     15  O   UNL     1      31.022  -9.659 -20.088  0.00  0.00    -0.153 OA
ATOM     16  O   UNL     1      32.940  -8.113 -19.579  0.00  0.00    -0.153 OA
BRANCH  14  17
ATOM     17  N   UNL     1      31.105  -7.342 -21.213  0.00  0.00    -0.179 NA
ATOM     18  H   UNL     1      30.153  -7.399 -20.851  0.00  0.00    +0.149 HD
BRANCH  17  19
ATOM     19  C   UNL     1      31.562  -5.963 -20.990  0.00  0.00    +0.091 C 
BRANCH  19  20
ATOM     20  C   UNL     1      31.147  -5.080 -22.119  0.00  0.00    +0.017 C 
ATOM     21  C   UNL     1      32.160  -4.693 -23.158  0.00  0.00    +0.001 C 
ATOM     22  C   UNL     1      31.059  -5.652 -23.504  0.00  0.00    +0.001 C 
ENDBRANCH  19  20
ENDBRANCH  17  19
ENDBRANCH  14  17
ENDBRANCH   8  14
BRANCH  13  23
ATOM     23  O   UNL     1      34.967 -10.720 -25.170  0.00  0.00    -0.470 OA
ATOM     24  C   UNL     1      35.946  -9.848 -25.733  0.00  0.00    +0.253 C 
ENDBRANCH  13  23
ENDBRANCH   2  11
BRANCH   5  25
ATOM     25  C   UNL     1      34.743 -16.959 -22.276  0.00  0.00    +0.036 C 
ATOM     26  C   UNL     1      34.963 -19.213 -21.434  0.00  0.00    +0.002 C 
ATOM     27  C   UNL     1      34.891 -17.840 -21.205  0.00  0.00    +0.003 C 
ATOM     28  C   UNL     1      34.667 -17.454 -23.579  0.00  0.00    +0.003 C 
ATOM     29  C   UNL     1      34.888 -19.707 -22.737  0.00  0.00    +0.000 C 
ATOM     30  C   UNL     1      34.740 -18.828 -23.809  0.00  0.00    +0.000 C 
BRANCH  26  32
ATOM     31  N   UNL     1      34.095 -21.625 -18.724  0.00  0.00    -0.242 NA
ATOM     32  C   UNL     1      35.117 -20.125 -20.322  0.00  0.00    +0.019 C 
ATOM     33  C   UNL     1      36.369 -20.391 -19.780  0.00  0.00    +0.003 C 
ATOM     34  C   UNL     1      34.020 -20.763 -19.762  0.00  0.00    +0.099 C 
ATOM     35  C   UNL     1      36.486 -21.273 -18.712  0.00  0.00    +0.021 C 
ATOM     36  C   UNL     1      35.328 -21.858 -18.225  0.00  0.00    +0.099 C 
ENDBRANCH  26  32
ENDBRANCH   5  25
TORSDOF 8
ENDMDL
MODEL 6
REMARK VINA RESULT:     -10.6     10.072     15.604
REMARK  Name = 4369498
REMARK  8 active torsions:
REMARK  status: ('A' for Active; 'I' for Inactive)
REMARK    1  A    between atoms: N_2  and  C_11
REMARK    2  A    between atoms: C_5  and  C_25
REMARK    3  A    between atoms: C_8  and  S_14
REMARK    4  A    between atoms: C_13  and  O_23
REMARK    5  A    between atoms: S_14  and  N_17
REMARK    6  A    between atoms: N_17  and  C_19
REMARK    7  A    between atoms: C_19  and  C_20
REMARK    8  A    between atoms: C_26  and  C_32
REMARK                            x       y       z     vdW  Elec       q    Type
REMARK                         _______ _______ _______ _____ _____    ______ ____
ROOT
ATOM      1  O   UNL     1      32.927 -10.987 -23.027  0.00  0.00    -0.424 OA
ATOM      2  N   UNL     1      32.347  -8.935 -22.171  0.00  0.00    -0.265 N 
ATOM      3  N   UNL     1      34.334  -9.277 -23.484  0.00  0.00    -0.193 NA
ATOM      4  C   UNL     1      33.227  -9.666 -22.893  0.00  0.00    +0.293 C 
ATOM      5  C   UNL     1      33.953 -11.473 -23.780  0.00  0.00    +0.168 C 
ATOM      6  C   UNL     1      34.805 -10.431 -24.055  0.00  0.00    +0.141 C 
ATOM      7  H   UNL     1      31.580  -9.442 -21.819  0.00  0.00    +0.157 HD
ENDROOT
BRANCH   2  11
ATOM      8  C   UNL     1      32.002  -5.253 -22.496  0.00  0.00    +0.123 C 
ATOM      9  C   UNL     1      31.996  -6.614 -22.807  0.00  0.00    +0.038 C 
ATOM     10  C   UNL     1      32.366  -4.832 -21.218  0.00  0.00    +0.023 C 
ATOM     11  C   UNL     1      32.355  -7.551 -21.839  0.00  0.00    +0.087 C 
ATOM     12  C   UNL     1      32.726  -5.770 -20.250  0.00  0.00    +0.040 C 
ATOM     13  C   UNL     1      32.720  -7.130 -20.561  0.00  0.00    +0.152 C 
BRANCH   8  14
ATOM     14  S   UNL     1      31.556  -4.078 -23.708  0.00  0.00    +0.060 S 
ATOM     15  O   UNL     1      30.114  -3.869 -23.651  0.00  0.00    -0.153 OA
ATOM     16  O   UNL     1      32.448  -2.935 -23.568  0.00  0.00    -0.153 OA
BRANCH  14  17
ATOM     17  N   UNL     1      31.934  -4.889 -25.165  0.00  0.00    -0.179 NA
ATOM     18  H   UNL     1      31.058  -5.002 -25.675  0.00  0.00    +0.149 HD
BRANCH  17  19
ATOM     19  C   UNL     1      32.899  -4.297 -26.103  0.00  0.00    +0.091 C 
BRANCH  19  20
ATOM     20  C   UNL     1      34.186  -5.052 -26.084  0.00  0.00    +0.017 C 
ATOM     21  C   UNL     1      35.478  -4.295 -25.978  0.00  0.00    +0.001 C 
ATOM     22  C   UNL     1      34.986  -5.105 -24.815  0.00  0.00    +0.001 C 
ENDBRANCH  19  20
ENDBRANCH  17  19
ENDBRANCH  14  17
ENDBRANCH   8  14
BRANCH  13  23
ATOM     23  O   UNL     1      33.075  -8.031 -19.601  0.00  0.00    -0.470 OA
ATOM     24  C   UNL     1      32.049  -8.890 -19.108  0.00  0.00    +0.253 C 
ENDBRANCH  13  23
ENDBRANCH   2  11
BRANCH   5  25
ATOM     25  C   UNL     1      33.909 -12.880 -24.093  0.00  0.00    +0.036 C 
ATOM     26  C   UNL     1      34.354 -15.175 -23.483  0.00  0.00    +0.002 C 
ATOM     27  C   UNL     1      34.398 -13.815 -23.181  0.00  0.00    +0.003 C 
ATOM     28  C   UNL     1      33.376 -13.307 -25.310  0.00  0.00    +0.003 C 
ATOM     29  C   UNL     1      33.821 -15.601 -24.700  0.00  0.00    +0.000 C 
ATOM     30  C   UNL     1      33.331 -14.667 -25.613  0.00  0.00    +0.000 C 
BRANCH  26  32
ATOM     31  N   UNL     1      35.380 -16.718 -20.246  0.00  0.00    -0.242 NA
ATOM     32  C   UNL     1      34.862 -16.144 -22.537  0.00  0.00    +0.019 C 
ATOM     33  C   UNL     1      35.310 -17.391 -22.958  0.00  0.00    +0.003 C 
ATOM     34  C   UNL     1      34.917 -15.859 -21.181  0.00  0.00    +0.099 C 
ATOM     35  C   UNL     1      35.793 -18.301 -22.024  0.00  0.00    +0.021 C 
ATOM     36  C   UNL     1      35.807 -17.919 -20.693  0.00  0.00    +0.099 C 
ENDBRANCH  26  32
ENDBRANCH   5  25
TORSDOF 8
ENDMDL
MODEL 7
REMARK VINA RESULT:     -10.2      1.715      2.152
REMARK  Name = 4369498
REMARK  8 active torsions:
REMARK  status: ('A' for Active; 'I' for Inactive)
REMARK    1  A    between atoms: N_2  and  C_11
REMARK    2  A    between atoms: C_5  and  C_25
REMARK    3  A    between atoms: C_8  and  S_14
REMARK    4  A    between atoms: C_13  and  O_23
REMARK    5  A    between atoms: S_14  and  N_17
REMARK    6  A    between atoms: N_17  and  C_19
REMARK    7  A    between atoms: C_19  and  C_20
REMARK    8  A    between atoms: C_26  and  C_32
REMARK                            x       y       z     vdW  Elec       q    Type
REMARK                         _______ _______ _______ _____ _____    ______ ____
ROOT
ATOM      1  O   UNL     1      35.399 -20.850 -18.799  0.00  0.00    -0.424 OA
ATOM      2  N   UNL     1      35.644 -22.040 -16.849  0.00  0.00    -0.265 N 
ATOM      3  N   UNL     1      33.583 -21.995 -18.090  0.00  0.00    -0.193 NA
ATOM      4  C   UNL     1      34.837 -21.671 -17.870  0.00  0.00    +0.293 C 
ATOM      5  C   UNL     1      34.391 -20.640 -19.691  0.00  0.00    +0.168 C 
ATOM      6  C   UNL     1      33.291 -21.337 -19.256  0.00  0.00    +0.141 C 
ATOM      7  H   UNL     1      36.557 -21.673 -16.889  0.00  0.00    +0.157 HD
ENDROOT
BRANCH   2  11
ATOM      8  C   UNL     1      33.797 -23.878 -14.204  0.00  0.00    +0.123 C 
ATOM      9  C   UNL     1      34.067 -23.065 -15.306  0.00  0.00    +0.038 C 
ATOM     10  C   UNL     1      34.843 -24.501 -13.525  0.00  0.00    +0.023 C 
ATOM     11  C   UNL     1      35.383 -22.875 -15.726  0.00  0.00    +0.087 C 
ATOM     12  C   UNL     1      36.160 -24.311 -13.945  0.00  0.00    +0.040 C 
ATOM     13  C   UNL     1      36.429 -23.498 -15.046  0.00  0.00    +0.152 C 
BRANCH   8  14
ATOM     14  S   UNL     1      32.149 -24.114 -13.675  0.00  0.00    +0.060 S 
ATOM     15  O   UNL     1      31.950 -25.526 -13.376  0.00  0.00    -0.153 OA
ATOM     16  O   UNL     1      31.866 -23.120 -12.648  0.00  0.00    -0.153 OA
BRANCH  14  17
ATOM     17  N   UNL     1      31.252 -23.720 -15.076  0.00  0.00    -0.179 NA
ATOM     18  H   UNL     1      31.665 -24.244 -15.847  0.00  0.00    +0.149 HD
BRANCH  17  19
ATOM     19  C   UNL     1      29.805 -23.976 -15.114  0.00  0.00    +0.091 C 
BRANCH  19  20
ATOM     20  C   UNL     1      29.085 -22.847 -15.772  0.00  0.00    +0.017 C 
ATOM     21  C   UNL     1      27.967 -23.147 -16.727  0.00  0.00    +0.001 C 
ATOM     22  C   UNL     1      27.666 -22.555 -15.382  0.00  0.00    +0.001 C 
ENDBRANCH  19  20
ENDBRANCH  17  19
ENDBRANCH  14  17
ENDBRANCH   8  14
BRANCH  13  23
ATOM     23  O   UNL     1      37.722 -23.324 -15.440  0.00  0.00    -0.470 OA
ATOM     24  C   UNL     1      38.707 -24.139 -14.808  0.00  0.00    +0.253 C 
ENDBRANCH  13  23
ENDBRANCH   2  11
BRANCH   5  25
ATOM     25  C   UNL     1      34.696 -19.788 -20.813  0.00  0.00    +0.036 C 
ATOM     26  C   UNL     1      34.935 -17.577 -21.759  0.00  0.00    +0.002 C 
ATOM     27  C   UNL     1      34.640 -18.401 -20.674  0.00  0.00    +0.003 C 
ATOM     28  C   UNL     1      35.049 -20.350 -22.041  0.00  0.00    +0.003 C 
ATOM     29  C   UNL     1      35.287 -18.141 -22.986  0.00  0.00    +0.000 C 
ATOM     30  C   UNL     1      35.344 -19.527 -23.127  0.00  0.00    +0.000 C 
BRANCH  26  32
ATOM     31  N   UNL     1      34.833 -13.958 -22.658  0.00  0.00    -0.242 NA
ATOM     32  C   UNL     1      34.875 -16.139 -21.614  0.00  0.00    +0.019 C 
ATOM     33  C   UNL     1      34.804 -15.547 -20.358  0.00  0.00    +0.003 C 
ATOM     34  C   UNL     1      34.887 -15.307 -22.723  0.00  0.00    +0.099 C 
ATOM     35  C   UNL     1      34.749 -14.162 -20.251  0.00  0.00    +0.021 C 
ATOM     36  C   UNL     1      34.766 -13.419 -21.421  0.00  0.00    +0.099 C 
ENDBRANCH  26  32
ENDBRANCH   5  25
TORSDOF 8
ENDMDL
MODEL 8
REMARK VINA RESULT:     -10.2      9.075     14.103
REMARK  Name = 4369498
REMARK  8 active torsions:
REMARK  status: ('A' for Active; 'I' for Inactive)
REMARK    1  A    between atoms: N_2  and  C_11
REMARK    2  A    between atoms: C_5  and  C_25
REMARK    3  A    between atoms: C_8  and  S_14
REMARK    4  A    between atoms: C_13  and  O_23
REMARK    5  A    between atoms: S_14  and  N_17
REMARK    6  A    between atoms: N_17  and  C_19
REMARK    7  A    between atoms: C_19  and  C_20
REMARK    8  A    between atoms: C_26  and  C_32
REMARK                            x       y       z     vdW  Elec       q    Type
REMARK                         _______ _______ _______ _____ _____    ______ ____
ROOT
ATOM      1  O   UNL     1      32.997 -13.357 -22.566  0.00  0.00    -0.424 OA
ATOM      2  N   UNL     1      32.256 -11.353 -21.721  0.00  0.00    -0.265 N 
ATOM      3  N   UNL     1      33.941 -11.494 -23.433  0.00  0.00    -0.193 NA
ATOM      4  C   UNL     1      33.076 -11.998 -22.582  0.00  0.00    +0.293 C 
ATOM      5  C   UNL     1      33.907 -13.740 -23.505  0.00  0.00    +0.168 C 
ATOM      6  C   UNL     1      34.477 -12.607 -24.028  0.00  0.00    +0.141 C 
ATOM      7  H   UNL     1      31.687 -11.941 -21.172  0.00  0.00    +0.157 HD
ENDROOT
BRANCH   2  11
ATOM      8  C   UNL     1      32.231  -7.682 -22.270  0.00  0.00    +0.123 C 
ATOM      9  C   UNL     1      32.390  -9.050 -22.493  0.00  0.00    +0.038 C 
ATOM     10  C   UNL     1      31.767  -7.225 -21.036  0.00  0.00    +0.023 C 
ATOM     11  C   UNL     1      32.086  -9.960 -21.481  0.00  0.00    +0.087 C 
ATOM     12  C   UNL     1      31.463  -8.137 -20.024  0.00  0.00    +0.040 C 
ATOM     13  C   UNL     1      31.623  -9.504 -20.247  0.00  0.00    +0.152 C 
BRANCH   8  14
ATOM     14  S   UNL     1      32.614  -6.540 -23.535  0.00  0.00    +0.060 S 
ATOM     15  O   UNL     1      33.804  -7.001 -24.238  0.00  0.00    -0.153 OA
ATOM     16  O   UNL     1      31.393  -6.286 -24.288  0.00  0.00    -0.153 OA
BRANCH  14  17
ATOM     17  N   UNL     1      33.012  -5.132 -22.651  0.00  0.00    -0.179 NA
ATOM     18  H   UNL     1      33.975  -4.897 -22.887  0.00  0.00    +0.149 HD
BRANCH  17  19
ATOM     19  C   UNL     1      32.220  -3.906 -22.832  0.00  0.00    +0.091 C 
BRANCH  19  20
ATOM     20  C   UNL     1      31.608  -3.476 -21.541  0.00  0.00    +0.017 C 
ATOM     21  C   UNL     1      30.512  -2.450 -21.554  0.00  0.00    +0.001 C 
ATOM     22  C   UNL     1      30.197  -3.879 -21.227  0.00  0.00    +0.001 C 
ENDBRANCH  19  20
ENDBRANCH  17  19
ENDBRANCH  14  17
ENDBRANCH   8  14
BRANCH  13  23
ATOM     23  O   UNL     1      31.322 -10.378 -19.245  0.00  0.00    -0.470 OA
ATOM     24  C   UNL     1      32.193 -10.394 -18.117  0.00  0.00    +0.253 C 
ENDBRANCH  13  23
ENDBRANCH   2  11
BRANCH   5  25
ATOM     25  C   UNL     1      34.050 -15.160 -23.716  0.00  0.00    +0.036 C 
ATOM     26  C   UNL     1      34.804 -17.325 -22.953  0.00  0.00    +0.002 C 
ATOM     27  C   UNL     1      34.666 -15.952 -22.748  0.00  0.00    +0.003 C 
ATOM     28  C   UNL     1      33.571 -15.741 -24.891  0.00  0.00    +0.003 C 
ATOM     29  C   UNL     1      34.325 -17.905 -24.128  0.00  0.00    +0.000 C 
ATOM     30  C   UNL     1      33.708 -17.114 -25.096  0.00  0.00    +0.000 C 
BRANCH  26  32
ATOM     31  N   UNL     1      37.458 -18.759 -20.758  0.00  0.00    -0.242 NA
ATOM     32  C   UNL     1      35.444 -18.146 -21.949  0.00  0.00    +0.019 C 
ATOM     33  C   UNL     1      34.720 -19.083 -21.220  0.00  0.00    +0.003 C 
ATOM     34  C   UNL     1      36.799 -18.024 -21.682  0.00  0.00    +0.099 C 
ATOM     35  C   UNL     1      35.363 -19.858 -20.262  0.00  0.00    +0.021 C 
ATOM     36  C   UNL     1      36.721 -19.659 -20.071  0.00  0.00    +0.099 C 
ENDBRANCH  26  32
ENDBRANCH   5  25
TORSDOF 8
ENDMDL
MODEL 9
REMARK VINA RESULT:      -9.9      8.223     13.840
REMARK  Name = 4369498
REMARK  8 active torsions:
REMARK  status: ('A' for Active; 'I' for Inactive)
REMARK    1  A    between atoms: N_2  and  C_11
REMARK    2  A    between atoms: C_5  and  C_25
REMARK    3  A    between atoms: C_8  and  S_14
REMARK    4  A    between atoms: C_13  and  O_23
REMARK    5  A    between atoms: S_14  and  N_17
REMARK    6  A    between atoms: N_17  and  C_19
REMARK    7  A    between atoms: C_19  and  C_20
REMARK    8  A    between atoms: C_26  and  C_32
REMARK                            x       y       z     vdW  Elec       q    Type
REMARK                         _______ _______ _______ _____ _____    ______ ____
ROOT
ATOM      1  O   UNL     1      33.912 -14.210 -23.315  0.00  0.00    -0.424 OA
ATOM      2  N   UNL     1      33.872 -11.954 -22.885  0.00  0.00    -0.265 N 
ATOM      3  N   UNL     1      33.415 -12.865 -25.064  0.00  0.00    -0.193 NA
ATOM      4  C   UNL     1      33.721 -12.948 -23.789  0.00  0.00    +0.293 C 
ATOM      5  C   UNL     1      33.704 -14.996 -24.409  0.00  0.00    +0.168 C 
ATOM      6  C   UNL     1      33.403 -14.176 -25.467  0.00  0.00    +0.141 C 
ATOM      7  H   UNL     1      34.105 -12.252 -21.976  0.00  0.00    +0.157 HD
ENDROOT
BRANCH   2  11
ATOM      8  C   UNL     1      32.711  -8.463 -22.382  0.00  0.00    +0.123 C 
ATOM      9  C   UNL     1      32.845  -9.845 -22.239  0.00  0.00    +0.038 C 
ATOM     10  C   UNL     1      33.482  -7.782 -23.324  0.00  0.00    +0.023 C 
ATOM     11  C   UNL     1      33.748 -10.544 -23.040  0.00  0.00    +0.087 C 
ATOM     12  C   UNL     1      34.385  -8.482 -24.125  0.00  0.00    +0.040 C 
ATOM     13  C   UNL     1      34.519  -9.863 -23.982  0.00  0.00    +0.152 C 
BRANCH   8  14
ATOM     14  S   UNL     1      31.578  -7.587 -21.383  0.00  0.00    +0.060 S 
ATOM     15  O   UNL     1      30.406  -7.257 -22.183  0.00  0.00    -0.153 OA
ATOM     16  O   UNL     1      31.409  -8.333 -20.143  0.00  0.00    -0.153 OA
BRANCH  14  17
ATOM     17  N   UNL     1      32.429  -6.145 -21.039  0.00  0.00    -0.179 NA
ATOM     18  H   UNL     1      33.325  -6.208 -21.523  0.00  0.00    +0.149 HD
BRANCH  17  19
ATOM     19  C   UNL     1      31.843  -4.846 -21.400  0.00  0.00    +0.091 C 
BRANCH  19  20
ATOM     20  C   UNL     1      32.356  -4.382 -22.722  0.00  0.00    +0.017 C 
ATOM     21  C   UNL     1      31.419  -4.329 -23.894  0.00  0.00    +0.001 C 
ATOM     22  C   UNL     1      31.902  -3.057 -23.262  0.00  0.00    +0.001 C 
ENDBRANCH  19  20
ENDBRANCH  17  19
ENDBRANCH  14  17
ENDBRANCH   8  14
BRANCH  13  23
ATOM     23  O   UNL     1      35.406 -10.528 -24.774  0.00  0.00    -0.470 OA
ATOM     24  C   UNL     1      36.030  -9.780 -25.816  0.00  0.00    +0.253 C 
ENDBRANCH  13  23
ENDBRANCH   2  11
BRANCH   5  25
ATOM     25  C   UNL     1      33.841 -16.418 -24.211  0.00  0.00    +0.036 C 
ATOM     26  C   UNL     1      34.744 -18.281 -22.966  0.00  0.00    +0.002 C 
ATOM     27  C   UNL     1      34.613 -16.906 -23.157  0.00  0.00    +0.003 C 
ATOM     28  C   UNL     1      33.198 -17.307 -25.074  0.00  0.00    +0.003 C 
ATOM     29  C   UNL     1      34.102 -19.169 -23.830  0.00  0.00    +0.000 C 
ATOM     30  C   UNL     1      33.329 -18.682 -24.883  0.00  0.00    +0.000 C 
BRANCH  26  32
ATOM     31  N   UNL     1      37.651 -18.785 -20.683  0.00  0.00    -0.242 NA
ATOM     32  C   UNL     1      35.546 -18.787 -21.874  0.00  0.00    +0.019 C 
ATOM     33  C   UNL     1      35.036 -19.724 -20.982  0.00  0.00    +0.003 C 
ATOM     34  C   UNL     1      36.849 -18.354 -21.682  0.00  0.00    +0.099 C 
ATOM     35  C   UNL     1      35.831 -20.191 -19.942  0.00  0.00    +0.021 C 
ATOM     36  C   UNL     1      37.120 -19.695 -19.838  0.00  0.00    +0.099 C 
ENDBRANCH  26  32
ENDBRANCH   5  25
TORSDOF 8
ENDMDL
