MODEL 1
REMARK VINA RESULT:     -12.5      0.000      0.000
REMARK  Name = 9911830
REMARK  5 active torsions:
REMARK  status: ('A' for Active; 'I' for Inactive)
REMARK    1  A    between atoms: C_2  and  O_20
REMARK    2  A    between atoms: C_3  and  N_10
REMARK    3  A    between atoms: O_20  and  C_24
REMARK    4  A    between atoms: C_26  and  O_31
REMARK    5  A    between atoms: C_28  and  O_33
REMARK                            x       y       z     vdW  Elec       q    Type
REMARK                         _______ _______ _______ _____ _____    ______ ____
ROOT
ATOM      1 CL   UNL     1      33.192 -20.985 -19.241  0.00  0.00    -0.081 Cl
ATOM      2  C   UNL     1      36.020 -18.743 -20.910  0.00  0.00    +0.146 C 
ATOM      3  C   UNL     1      35.907 -20.786 -19.046  0.00  0.00    +0.062 C 
ATOM      4  C   UNL     1      34.792 -19.288 -20.579  0.00  0.00    +0.050 C 
ATOM      5  C   UNL     1      37.193 -19.196 -20.331  0.00  0.00    +0.039 C 
ATOM      6  C   UNL     1      34.735 -20.317 -19.640  0.00  0.00    +0.074 C 
ATOM      7  C   UNL     1      37.136 -20.226 -19.393  0.00  0.00    +0.019 C 
ENDROOT
BRANCH   3  10
ATOM      8  O   UNL     1      37.744 -23.657 -13.107  0.00  0.00    -0.357 OA
ATOM      9  O   UNL     1      37.294 -21.018 -16.411  0.00  0.00    -0.252 OA
ATOM     10  N   UNL     1      35.884 -21.818 -18.102  0.00  0.00    -0.267 N 
ATOM     11  N   UNL     1      36.257 -23.105 -16.225  0.00  0.00    -0.251 N 
ATOM     12  N   UNL     1      37.538 -22.859 -14.225  0.00  0.00    -0.062 NA
ATOM     13  C   UNL     1      36.557 -21.890 -16.860  0.00  0.00    +0.309 C 
ATOM     14  C   UNL     1      36.720 -23.572 -14.972  0.00  0.00    +0.177 C 
ATOM     15  C   UNL     1      36.360 -24.796 -14.433  0.00  0.00    +0.073 C 
ATOM     16  C   UNL     1      37.037 -24.809 -13.242  0.00  0.00    +0.156 C 
ATOM     17  C   UNL     1      37.140 -25.775 -12.142  0.00  0.00    +0.075 C 
ATOM     18  H   UNL     1      35.326 -22.595 -18.332  0.00  0.00    +0.156 HD
ATOM     19  H   UNL     1      35.647 -23.708 -16.711  0.00  0.00    +0.158 HD
ENDBRANCH   3  10
BRANCH   2  20
ATOM     20  O   UNL     1      36.078 -17.721 -21.840  0.00  0.00    -0.453 OA
BRANCH  20  24
ATOM     21  N   UNL     1      33.543 -18.030 -25.108  0.00  0.00    -0.244 NA
ATOM     22  C   UNL     1      34.637 -16.655 -23.459  0.00  0.00    +0.055 C 
ATOM     23  C   UNL     1      33.785 -16.820 -24.569  0.00  0.00    +0.087 C 
ATOM     24  C   UNL     1      35.240 -17.798 -22.915  0.00  0.00    +0.148 C 
ATOM     25  C   UNL     1      34.866 -15.376 -22.922  0.00  0.00    +0.045 C 
ATOM     26  C   UNL     1      34.255 -14.259 -23.482  0.00  0.00    +0.173 C 
ATOM     27  C   UNL     1      33.185 -15.684 -25.109  0.00  0.00    +0.059 C 
ATOM     28  C   UNL     1      33.414 -14.413 -24.577  0.00  0.00    +0.174 C 
ATOM     29  C   UNL     1      34.993 -19.047 -23.467  0.00  0.00    +0.058 C 
ATOM     30  C   UNL     1      34.145 -19.108 -24.553  0.00  0.00    +0.102 C 
BRANCH  26  31
ATOM     31  O   UNL     1      34.488 -13.026 -22.951  0.00  0.00    -0.468 OA
ATOM     32  C   UNL     1      33.487 -12.493 -22.086  0.00  0.00    +0.253 C 
ENDBRANCH  26  31
BRANCH  28  33
ATOM     33  O   UNL     1      32.805 -13.332 -25.141  0.00  0.00    -0.468 OA
ATOM     34  C   UNL     1      33.488 -12.691 -26.216  0.00  0.00    +0.253 C 
ENDBRANCH  28  33
ENDBRANCH  20  24
ENDBRANCH   2  20
TORSDOF 5
ENDMDL
MODEL 2
REMARK VINA RESULT:     -12.4      2.522     11.338
REMARK  Name = 9911830
REMARK  5 active torsions:
REMARK  status: ('A' for Active; 'I' for Inactive)
REMARK    1  A    between atoms: C_2  and  O_20
REMARK    2  A    between atoms: C_3  and  N_10
REMARK    3  A    between atoms: O_20  and  C_24
REMARK    4  A    between atoms: C_26  and  O_31
REMARK    5  A    between atoms: C_28  and  O_33
REMARK                            x       y       z     vdW  Elec       q    Type
REMARK                         _______ _______ _______ _____ _____    ______ ____
ROOT
ATOM      1 CL   UNL     1      37.358 -19.471 -20.259  0.00  0.00    -0.081 Cl
ATOM      2  C   UNL     1      34.574 -21.938 -18.855  0.00  0.00    +0.146 C 
ATOM      3  C   UNL     1      34.630 -19.566 -20.279  0.00  0.00    +0.062 C 
ATOM      4  C   UNL     1      35.795 -21.365 -19.164  0.00  0.00    +0.050 C 
ATOM      5  C   UNL     1      33.381 -21.354 -19.242  0.00  0.00    +0.039 C 
ATOM      6  C   UNL     1      35.824 -20.170 -19.882  0.00  0.00    +0.074 C 
ATOM      7  C   UNL     1      33.409 -20.159 -19.960  0.00  0.00    +0.019 C 
ENDROOT
BRANCH   3  10
ATOM      8  O   UNL     1      33.734 -15.899 -25.993  0.00  0.00    -0.357 OA
ATOM      9  O   UNL     1      33.987 -19.053 -23.150  0.00  0.00    -0.252 OA
ATOM     10  N   UNL     1      34.624 -18.369 -21.002  0.00  0.00    -0.267 N 
ATOM     11  N   UNL     1      34.430 -16.804 -22.686  0.00  0.00    -0.251 N 
ATOM     12  N   UNL     1      33.841 -16.865 -24.999  0.00  0.00    -0.062 NA
ATOM     13  C   UNL     1      34.311 -18.166 -22.367  0.00  0.00    +0.309 C 
ATOM     14  C   UNL     1      34.208 -16.179 -23.936  0.00  0.00    +0.177 C 
ATOM     15  C   UNL     1      34.355 -14.818 -24.145  0.00  0.00    +0.073 C 
ATOM     16  C   UNL     1      34.042 -14.684 -25.471  0.00  0.00    +0.156 C 
ATOM     17  C   UNL     1      33.979 -13.541 -26.391  0.00  0.00    +0.075 C 
ATOM     18  H   UNL     1      34.868 -17.562 -20.495  0.00  0.00    +0.156 HD
ATOM     19  H   UNL     1      34.701 -16.209 -21.948  0.00  0.00    +0.158 HD
ENDBRANCH   3  10
BRANCH   2  20
ATOM     20  O   UNL     1      34.544 -23.123 -18.141  0.00  0.00    -0.453 OA
BRANCH  20  24
ATOM     21  N   UNL     1      32.359 -23.152 -14.617  0.00  0.00    -0.244 NA
ATOM     22  C   UNL     1      34.497 -23.208 -15.728  0.00  0.00    +0.055 C 
ATOM     23  C   UNL     1      33.703 -23.214 -14.563  0.00  0.00    +0.087 C 
ATOM     24  C   UNL     1      33.846 -23.134 -16.968  0.00  0.00    +0.148 C 
ATOM     25  C   UNL     1      35.898 -23.274 -15.634  0.00  0.00    +0.045 C 
ATOM     26  C   UNL     1      36.517 -23.346 -14.390  0.00  0.00    +0.173 C 
ATOM     27  C   UNL     1      34.349 -23.287 -13.331  0.00  0.00    +0.059 C 
ATOM     28  C   UNL     1      35.742 -23.353 -13.238  0.00  0.00    +0.174 C 
ATOM     29  C   UNL     1      32.462 -23.070 -17.027  0.00  0.00    +0.058 C 
ATOM     30  C   UNL     1      31.771 -23.082 -15.833  0.00  0.00    +0.102 C 
BRANCH  26  31
ATOM     31  O   UNL     1      37.876 -23.409 -14.317  0.00  0.00    -0.468 OA
ATOM     32  C   UNL     1      38.462 -24.707 -14.245  0.00  0.00    +0.253 C 
ENDBRANCH  26  31
BRANCH  28  33
ATOM     33  O   UNL     1      36.327 -23.422 -12.009  0.00  0.00    -0.468 OA
ATOM     34  C   UNL     1      36.107 -24.611 -11.252  0.00  0.00    +0.253 C 
ENDBRANCH  28  33
ENDBRANCH  20  24
ENDBRANCH   2  20
TORSDOF 5
ENDMDL
MODEL 3
REMARK VINA RESULT:     -12.4      3.332     10.980
REMARK  Name = 9911830
REMARK  5 active torsions:
REMARK  status: ('A' for Active; 'I' for Inactive)
REMARK    1  A    between atoms: C_2  and  O_20
REMARK    2  A    between atoms: C_3  and  N_10
REMARK    3  A    between atoms: O_20  and  C_24
REMARK    4  A    between atoms: C_26  and  O_31
REMARK    5  A    between atoms: C_28  and  O_33
REMARK                            x       y       z     vdW  Elec       q    Type
REMARK                         _______ _______ _______ _____ _____    ______ ____
ROOT
ATOM      1 CL   UNL     1      34.916 -16.115 -24.856  0.00  0.00    -0.081 Cl
ATOM      2  C   UNL     1      35.413 -17.919 -21.348  0.00  0.00    +0.146 C 
ATOM      3  C   UNL     1      34.911 -15.346 -22.238  0.00  0.00    +0.062 C 
ATOM      4  C   UNL     1      35.304 -17.683 -22.707  0.00  0.00    +0.050 C 
ATOM      5  C   UNL     1      35.277 -16.898 -20.423  0.00  0.00    +0.039 C 
ATOM      6  C   UNL     1      35.050 -16.388 -23.156  0.00  0.00    +0.074 C 
ATOM      7  C   UNL     1      35.023 -15.602 -20.872  0.00  0.00    +0.019 C 
ENDROOT
BRANCH   3  10
ATOM      8  O   UNL     1      31.496  -9.417 -21.953  0.00  0.00    -0.357 OA
ATOM      9  O   UNL     1      32.877 -13.383 -21.276  0.00  0.00    -0.252 OA
ATOM     10  N   UNL     1      34.654 -14.036 -22.654  0.00  0.00    -0.267 N 
ATOM     11  N   UNL     1      33.764 -11.919 -22.868  0.00  0.00    -0.251 N 
ATOM     12  N   UNL     1      32.012 -10.698 -21.799  0.00  0.00    -0.062 NA
ATOM     13  C   UNL     1      33.678 -13.134 -22.170  0.00  0.00    +0.309 C 
ATOM     14  C   UNL     1      32.975 -10.757 -22.696  0.00  0.00    +0.177 C 
ATOM     15  C   UNL     1      33.143  -9.603 -23.443  0.00  0.00    +0.073 C 
ATOM     16  C   UNL     1      32.179  -8.774 -22.935  0.00  0.00    +0.156 C 
ATOM     17  C   UNL     1      31.762  -7.398 -23.230  0.00  0.00    +0.075 C 
ATOM     18  H   UNL     1      35.229 -13.697 -23.377  0.00  0.00    +0.156 HD
ATOM     19  H   UNL     1      34.461 -11.868 -23.563  0.00  0.00    +0.158 HD
ENDBRANCH   3  10
BRANCH   2  20
ATOM     20  O   UNL     1      35.667 -19.203 -20.902  0.00  0.00    -0.453 OA
BRANCH  20  24
ATOM     21  N   UNL     1      32.413 -21.361 -19.506  0.00  0.00    -0.244 NA
ATOM     22  C   UNL     1      34.758 -20.828 -19.364  0.00  0.00    +0.055 C 
ATOM     23  C   UNL     1      33.618 -21.535 -18.931  0.00  0.00    +0.087 C 
ATOM     24  C   UNL     1      34.610 -19.925 -20.426  0.00  0.00    +0.148 C 
ATOM     25  C   UNL     1      36.001 -21.035 -18.741  0.00  0.00    +0.045 C 
ATOM     26  C   UNL     1      36.120 -21.938 -17.689  0.00  0.00    +0.173 C 
ATOM     27  C   UNL     1      33.765 -22.433 -17.876  0.00  0.00    +0.059 C 
ATOM     28  C   UNL     1      35.000 -22.637 -17.257  0.00  0.00    +0.174 C 
ATOM     29  C   UNL     1      33.370 -19.744 -21.020  0.00  0.00    +0.058 C 
ATOM     30  C   UNL     1      32.312 -20.480 -20.527  0.00  0.00    +0.102 C 
BRANCH  26  31
ATOM     31  O   UNL     1      37.331 -22.126 -17.095  0.00  0.00    -0.468 OA
ATOM     32  C   UNL     1      37.546 -21.482 -15.841  0.00  0.00    +0.253 C 
ENDBRANCH  26  31
BRANCH  28  33
ATOM     33  O   UNL     1      35.093 -23.527 -16.228  0.00  0.00    -0.468 OA
ATOM     34  C   UNL     1      34.311 -23.259 -15.066  0.00  0.00    +0.253 C 
ENDBRANCH  28  33
ENDBRANCH  20  24
ENDBRANCH   2  20
TORSDOF 5
ENDMDL
MODEL 4
REMARK VINA RESULT:     -12.2      3.305     11.091
REMARK  Name = 9911830
REMARK  5 active torsions:
REMARK  status: ('A' for Active; 'I' for Inactive)
REMARK    1  A    between atoms: C_2  and  O_20
REMARK    2  A    between atoms: C_3  and  N_10
REMARK    3  A    between atoms: O_20  and  C_24
REMARK    4  A    between atoms: C_26  and  O_31
REMARK    5  A    between atoms: C_28  and  O_33
REMARK                            x       y       z     vdW  Elec       q    Type
REMARK                         _______ _______ _______ _____ _____    ______ ____
ROOT
ATOM      1 CL   UNL     1      37.511 -18.959 -20.697  0.00  0.00    -0.081 Cl
ATOM      2  C   UNL     1      34.891 -21.537 -19.182  0.00  0.00    +0.146 C 
ATOM      3  C   UNL     1      34.791 -19.143 -20.566  0.00  0.00    +0.062 C 
ATOM      4  C   UNL     1      36.073 -20.919 -19.548  0.00  0.00    +0.050 C 
ATOM      5  C   UNL     1      33.659 -20.986 -19.491  0.00  0.00    +0.039 C 
ATOM      6  C   UNL     1      36.023 -19.713 -20.247  0.00  0.00    +0.074 C 
ATOM      7  C   UNL     1      33.609 -19.780 -20.189  0.00  0.00    +0.019 C 
ENDROOT
BRANCH   3  10
ATOM      8  O   UNL     1      33.796 -15.448 -26.245  0.00  0.00    -0.357 OA
ATOM      9  O   UNL     1      34.218 -18.627 -23.452  0.00  0.00    -0.252 OA
ATOM     10  N   UNL     1      34.706 -17.935 -21.267  0.00  0.00    -0.267 N 
ATOM     11  N   UNL     1      34.439 -16.358 -22.929  0.00  0.00    -0.251 N 
ATOM     12  N   UNL     1      33.950 -16.421 -25.266  0.00  0.00    -0.062 NA
ATOM     13  C   UNL     1      34.430 -17.732 -22.640  0.00  0.00    +0.309 C 
ATOM     14  C   UNL     1      34.211 -15.729 -24.176  0.00  0.00    +0.177 C 
ATOM     15  C   UNL     1      34.243 -14.355 -24.354  0.00  0.00    +0.073 C 
ATOM     16  C   UNL     1      33.972 -14.221 -25.690  0.00  0.00    +0.156 C 
ATOM     17  C   UNL     1      33.843 -13.069 -26.591  0.00  0.00    +0.075 C 
ATOM     18  H   UNL     1      34.856 -17.121 -20.736  0.00  0.00    +0.156 HD
ATOM     19  H   UNL     1      34.626 -15.758 -22.171  0.00  0.00    +0.158 HD
ENDBRANCH   3  10
BRANCH   2  20
ATOM     20  O   UNL     1      34.938 -22.732 -18.488  0.00  0.00    -0.453 OA
BRANCH  20  24
ATOM     21  N   UNL     1      35.737 -22.534 -14.423  0.00  0.00    -0.244 NA
ATOM     22  C   UNL     1      34.165 -22.924 -16.208  0.00  0.00    +0.055 C 
ATOM     23  C   UNL     1      34.494 -22.842 -14.839  0.00  0.00    +0.087 C 
ATOM     24  C   UNL     1      35.177 -22.673 -17.145  0.00  0.00    +0.148 C 
ATOM     25  C   UNL     1      32.857 -23.248 -16.606  0.00  0.00    +0.045 C 
ATOM     26  C   UNL     1      31.872 -23.493 -15.655  0.00  0.00    +0.173 C 
ATOM     27  C   UNL     1      33.488 -23.091 -13.908  0.00  0.00    +0.059 C 
ATOM     28  C   UNL     1      32.188 -23.414 -14.304  0.00  0.00    +0.174 C 
ATOM     29  C   UNL     1      36.459 -22.355 -16.720  0.00  0.00    +0.058 C 
ATOM     30  C   UNL     1      36.684 -22.299 -15.359  0.00  0.00    +0.102 C 
BRANCH  26  31
ATOM     31  O   UNL     1      30.609 -23.806 -16.057  0.00  0.00    -0.468 OA
ATOM     32  C   UNL     1      29.655 -22.746 -16.090  0.00  0.00    +0.253 C 
ENDBRANCH  26  31
BRANCH  28  33
ATOM     33  O   UNL     1      31.239 -23.651 -13.355  0.00  0.00    -0.468 OA
ATOM     34  C   UNL     1      31.163 -24.974 -12.829  0.00  0.00    +0.253 C 
ENDBRANCH  28  33
ENDBRANCH  20  24
ENDBRANCH   2  20
TORSDOF 5
ENDMDL
MODEL 5
REMARK VINA RESULT:     -11.7      3.390      3.743
REMARK  Name = 9911830
REMARK  5 active torsions:
REMARK  status: ('A' for Active; 'I' for Inactive)
REMARK    1  A    between atoms: C_2  and  O_20
REMARK    2  A    between atoms: C_3  and  N_10
REMARK    3  A    between atoms: O_20  and  C_24
REMARK    4  A    between atoms: C_26  and  O_31
REMARK    5  A    between atoms: C_28  and  O_33
REMARK                            x       y       z     vdW  Elec       q    Type
REMARK                         _______ _______ _______ _____ _____    ______ ____
ROOT
ATOM      1 CL   UNL     1      36.886 -21.795 -17.786  0.00  0.00    -0.081 Cl
ATOM      2  C   UNL     1      35.497 -19.576 -20.778  0.00  0.00    +0.146 C 
ATOM      3  C   UNL     1      34.439 -21.298 -18.888  0.00  0.00    +0.062 C 
ATOM      4  C   UNL     1      36.344 -20.182 -19.867  0.00  0.00    +0.050 C 
ATOM      5  C   UNL     1      34.133 -19.810 -20.766  0.00  0.00    +0.039 C 
ATOM      6  C   UNL     1      35.811 -21.049 -18.914  0.00  0.00    +0.074 C 
ATOM      7  C   UNL     1      33.600 -20.678 -19.813  0.00  0.00    +0.019 C 
ENDROOT
BRANCH   3  10
ATOM      8  O   UNL     1      29.199 -23.685 -15.181  0.00  0.00    -0.357 OA
ATOM      9  O   UNL     1      31.632 -21.480 -17.884  0.00  0.00    -0.252 OA
ATOM     10  N   UNL     1      33.872 -22.161 -17.944  0.00  0.00    -0.267 N 
ATOM     11  N   UNL     1      32.391 -23.235 -16.539  0.00  0.00    -0.251 N 
ATOM     12  N   UNL     1      30.066 -23.020 -16.038  0.00  0.00    -0.062 NA
ATOM     13  C   UNL     1      32.532 -22.217 -17.495  0.00  0.00    +0.309 C 
ATOM     14  C   UNL     1      31.222 -23.622 -15.843  0.00  0.00    +0.177 C 
ATOM     15  C   UNL     1      31.191 -24.648 -14.913  0.00  0.00    +0.073 C 
ATOM     16  C   UNL     1      29.880 -24.653 -14.517  0.00  0.00    +0.156 C 
ATOM     17  C   UNL     1      29.110 -25.460 -13.562  0.00  0.00    +0.075 C 
ATOM     18  H   UNL     1      34.486 -22.817 -17.542  0.00  0.00    +0.156 HD
ATOM     19  H   UNL     1      33.208 -23.745 -16.327  0.00  0.00    +0.158 HD
ENDBRANCH   3  10
BRANCH   2  20
ATOM     20  O   UNL     1      36.024 -18.716 -21.724  0.00  0.00    -0.453 OA
BRANCH  20  24
ATOM     21  N   UNL     1      33.740 -18.016 -25.114  0.00  0.00    -0.244 NA
ATOM     22  C   UNL     1      34.829 -17.167 -23.140  0.00  0.00    +0.055 C 
ATOM     23  C   UNL     1      34.056 -16.987 -24.305  0.00  0.00    +0.087 C 
ATOM     24  C   UNL     1      35.271 -18.461 -22.834  0.00  0.00    +0.148 C 
ATOM     25  C   UNL     1      35.140 -16.069 -22.318  0.00  0.00    +0.045 C 
ATOM     26  C   UNL     1      34.689 -14.795 -22.645  0.00  0.00    +0.173 C 
ATOM     27  C   UNL     1      33.617 -15.701 -24.608  0.00  0.00    +0.059 C 
ATOM     28  C   UNL     1      33.926 -14.611 -23.791  0.00  0.00    +0.174 C 
ATOM     29  C   UNL     1      34.947 -19.524 -23.665  0.00  0.00    +0.058 C 
ATOM     30  C   UNL     1      34.185 -19.250 -24.783  0.00  0.00    +0.102 C 
BRANCH  26  31
ATOM     31  O   UNL     1      35.000 -13.742 -21.839  0.00  0.00    -0.468 OA
ATOM     32  C   UNL     1      34.580 -13.821 -20.478  0.00  0.00    +0.253 C 
ENDBRANCH  26  31
BRANCH  28  33
ATOM     33  O   UNL     1      33.474 -13.371 -24.132  0.00  0.00    -0.468 OA
ATOM     34  C   UNL     1      33.402 -13.066 -25.523  0.00  0.00    +0.253 C 
ENDBRANCH  28  33
ENDBRANCH  20  24
ENDBRANCH   2  20
TORSDOF 5
ENDMDL
MODEL 6
REMARK VINA RESULT:     -11.6      2.269     11.251
REMARK  Name = 9911830
REMARK  5 active torsions:
REMARK  status: ('A' for Active; 'I' for Inactive)
REMARK    1  A    between atoms: C_2  and  O_20
REMARK    2  A    between atoms: C_3  and  N_10
REMARK    3  A    between atoms: O_20  and  C_24
REMARK    4  A    between atoms: C_26  and  O_31
REMARK    5  A    between atoms: C_28  and  O_33
REMARK                            x       y       z     vdW  Elec       q    Type
REMARK                         _______ _______ _______ _____ _____    ______ ____
ROOT
ATOM      1 CL   UNL     1      32.521 -20.105 -20.504  0.00  0.00    -0.081 Cl
ATOM      2  C   UNL     1      35.697 -21.590 -18.628  0.00  0.00    +0.146 C 
ATOM      3  C   UNL     1      35.194 -19.557 -20.438  0.00  0.00    +0.062 C 
ATOM      4  C   UNL     1      34.401 -21.379 -19.063  0.00  0.00    +0.050 C 
ATOM      5  C   UNL     1      36.748 -20.809 -19.077  0.00  0.00    +0.039 C 
ATOM      6  C   UNL     1      34.147 -20.354 -19.974  0.00  0.00    +0.074 C 
ATOM      7  C   UNL     1      36.494 -19.785 -19.988  0.00  0.00    +0.019 C 
ENDROOT
BRANCH   3  10
ATOM      8  O   UNL     1      34.467 -12.955 -22.103  0.00  0.00    -0.357 OA
ATOM      9  O   UNL     1      35.060 -16.606 -20.003  0.00  0.00    -0.252 OA
ATOM     10  N   UNL     1      34.974 -18.520 -21.350  0.00  0.00    -0.267 N 
ATOM     11  N   UNL     1      34.675 -16.442 -22.304  0.00  0.00    -0.251 N 
ATOM     12  N   UNL     1      34.651 -14.193 -21.500  0.00  0.00    -0.062 NA
ATOM     13  C   UNL     1      34.918 -17.129 -21.104  0.00  0.00    +0.309 C 
ATOM     14  C   UNL     1      34.547 -15.046 -22.499  0.00  0.00    +0.177 C 
ATOM     15  C   UNL     1      34.306 -14.467 -23.733  0.00  0.00    +0.073 C 
ATOM     16  C   UNL     1      34.262 -13.131 -23.434  0.00  0.00    +0.156 C 
ATOM     17  C   UNL     1      34.048 -11.917 -24.231  0.00  0.00    +0.075 C 
ATOM     18  H   UNL     1      34.841 -18.795 -22.285  0.00  0.00    +0.156 HD
ATOM     19  H   UNL     1      34.583 -17.000 -23.110  0.00  0.00    +0.158 HD
ENDBRANCH   3  10
BRANCH   2  20
ATOM     20  O   UNL     1      35.950 -22.607 -17.726  0.00  0.00    -0.453 OA
BRANCH  20  24
ATOM     21  N   UNL     1      32.978 -23.413 -14.948  0.00  0.00    -0.244 NA
ATOM     22  C   UNL     1      35.322 -23.257 -15.486  0.00  0.00    +0.055 C 
ATOM     23  C   UNL     1      34.270 -23.518 -14.584  0.00  0.00    +0.087 C 
ATOM     24  C   UNL     1      34.989 -22.878 -16.794  0.00  0.00    +0.148 C 
ATOM     25  C   UNL     1      36.659 -23.378 -15.072  0.00  0.00    +0.045 C 
ATOM     26  C   UNL     1      36.961 -23.756 -13.767  0.00  0.00    +0.173 C 
ATOM     27  C   UNL     1      34.600 -23.895 -13.285  0.00  0.00    +0.059 C 
ATOM     28  C   UNL     1      35.930 -24.015 -12.873  0.00  0.00    +0.174 C 
ATOM     29  C   UNL     1      33.659 -22.768 -17.173  0.00  0.00    +0.058 C 
ATOM     30  C   UNL     1      32.700 -23.044 -16.220  0.00  0.00    +0.102 C 
BRANCH  26  31
ATOM     31  O   UNL     1      38.262 -23.867 -13.382  0.00  0.00    -0.468 OA
ATOM     32  C   UNL     1      38.918 -25.104 -13.658  0.00  0.00    +0.253 C 
ENDBRANCH  26  31
BRANCH  28  33
ATOM     33  O   UNL     1      36.202 -24.386 -11.590  0.00  0.00    -0.468 OA
ATOM     34  C   UNL     1      36.349 -23.342 -10.630  0.00  0.00    +0.253 C 
ENDBRANCH  28  33
ENDBRANCH  20  24
ENDBRANCH   2  20
TORSDOF 5
ENDMDL
MODEL 7
REMARK VINA RESULT:     -11.0      3.947     11.266
REMARK  Name = 9911830
REMARK  5 active torsions:
REMARK  status: ('A' for Active; 'I' for Inactive)
REMARK    1  A    between atoms: C_2  and  O_20
REMARK    2  A    between atoms: C_3  and  N_10
REMARK    3  A    between atoms: O_20  and  C_24
REMARK    4  A    between atoms: C_26  and  O_31
REMARK    5  A    between atoms: C_28  and  O_33
REMARK                            x       y       z     vdW  Elec       q    Type
REMARK                         _______ _______ _______ _____ _____    ______ ____
ROOT
ATOM      1 CL   UNL     1      33.733 -14.407 -25.667  0.00  0.00    -0.081 Cl
ATOM      2  C   UNL     1      34.511 -16.872 -22.646  0.00  0.00    +0.146 C 
ATOM      3  C   UNL     1      34.373 -14.135 -23.028  0.00  0.00    +0.062 C 
ATOM      4  C   UNL     1      34.198 -16.380 -23.901  0.00  0.00    +0.050 C 
ATOM      5  C   UNL     1      34.757 -16.027 -21.577  0.00  0.00    +0.039 C 
ATOM      6  C   UNL     1      34.128 -15.001 -24.094  0.00  0.00    +0.074 C 
ATOM      7  C   UNL     1      34.687 -14.648 -21.770  0.00  0.00    +0.019 C 
ENDROOT
BRANCH   3  10
ATOM      8  O   UNL     1      31.441  -8.019 -22.082  0.00  0.00    -0.357 OA
ATOM      9  O   UNL     1      32.343 -12.175 -22.049  0.00  0.00    -0.252 OA
ATOM     10  N   UNL     1      34.309 -12.747 -23.187  0.00  0.00    -0.267 N 
ATOM     11  N   UNL     1      33.648 -10.539 -23.092  0.00  0.00    -0.251 N 
ATOM     12  N   UNL     1      31.813  -9.357 -22.121  0.00  0.00    -0.062 NA
ATOM     13  C   UNL     1      33.327 -11.850 -22.705  0.00  0.00    +0.309 C 
ATOM     14  C   UNL     1      32.932  -9.349 -22.817  0.00  0.00    +0.177 C 
ATOM     15  C   UNL     1      33.338  -8.098 -23.249  0.00  0.00    +0.073 C 
ATOM     16  C   UNL     1      32.357  -7.279 -22.757  0.00  0.00    +0.156 C 
ATOM     17  C   UNL     1      32.116  -5.832 -22.815  0.00  0.00    +0.075 C 
ATOM     18  H   UNL     1      35.044 -12.341 -23.701  0.00  0.00    +0.156 HD
ATOM     19  H   UNL     1      34.473 -10.433 -23.619  0.00  0.00    +0.158 HD
ENDBRANCH   3  10
BRANCH   2  20
ATOM     20  O   UNL     1      34.583 -18.240 -22.454  0.00  0.00    -0.453 OA
BRANCH  20  24
ATOM     21  N   UNL     1      37.719 -19.636 -20.127  0.00  0.00    -0.244 NA
ATOM     22  C   UNL     1      35.380 -19.701 -20.704  0.00  0.00    +0.055 C 
ATOM     23  C   UNL     1      36.483 -20.138 -19.942  0.00  0.00    +0.087 C 
ATOM     24  C   UNL     1      35.599 -18.715 -21.676  0.00  0.00    +0.148 C 
ATOM     25  C   UNL     1      34.104 -20.247 -20.484  0.00  0.00    +0.045 C 
ATOM     26  C   UNL     1      33.915 -21.226 -19.513  0.00  0.00    +0.173 C 
ATOM     27  C   UNL     1      36.265 -21.118 -18.977  0.00  0.00    +0.059 C 
ATOM     28  C   UNL     1      34.997 -21.661 -18.759  0.00  0.00    +0.174 C 
ATOM     29  C   UNL     1      36.871 -18.195 -21.868  0.00  0.00    +0.058 C 
ATOM     30  C   UNL     1      37.888 -18.686 -21.075  0.00  0.00    +0.102 C 
BRANCH  26  31
ATOM     31  O   UNL     1      32.671 -21.745 -19.313  0.00  0.00    -0.468 OA
ATOM     32  C   UNL     1      32.135 -21.655 -17.994  0.00  0.00    +0.253 C 
ENDBRANCH  26  31
BRANCH  28  33
ATOM     33  O   UNL     1      34.834 -22.619 -17.803  0.00  0.00    -0.468 OA
ATOM     34  C   UNL     1      35.533 -22.433 -16.574  0.00  0.00    +0.253 C 
ENDBRANCH  28  33
ENDBRANCH  20  24
ENDBRANCH   2  20
TORSDOF 5
ENDMDL
MODEL 8
REMARK VINA RESULT:     -10.8      5.078     11.973
REMARK  Name = 9911830
REMARK  5 active torsions:
REMARK  status: ('A' for Active; 'I' for Inactive)
REMARK    1  A    between atoms: C_2  and  O_20
REMARK    2  A    between atoms: C_3  and  N_10
REMARK    3  A    between atoms: O_20  and  C_24
REMARK    4  A    between atoms: C_26  and  O_31
REMARK    5  A    between atoms: C_28  and  O_33
REMARK                            x       y       z     vdW  Elec       q    Type
REMARK                         _______ _______ _______ _____ _____    ______ ____
ROOT
ATOM      1 CL   UNL     1      32.086 -12.387 -20.182  0.00  0.00    -0.081 Cl
ATOM      2  C   UNL     1      34.529 -13.620 -23.067  0.00  0.00    +0.146 C 
ATOM      3  C   UNL     1      32.999 -11.373 -22.546  0.00  0.00    +0.062 C 
ATOM      4  C   UNL     1      33.781 -13.567 -21.904  0.00  0.00    +0.050 C 
ATOM      5  C   UNL     1      34.530 -12.576 -23.976  0.00  0.00    +0.039 C 
ATOM      6  C   UNL     1      33.011 -12.434 -21.640  0.00  0.00    +0.074 C 
ATOM      7  C   UNL     1      33.760 -11.443 -23.712  0.00  0.00    +0.019 C 
ENDROOT
BRANCH   3  10
ATOM      8  O   UNL     1      32.235  -4.598 -21.904  0.00  0.00    -0.357 OA
ATOM      9  O   UNL     1      33.817  -8.501 -22.499  0.00  0.00    -0.252 OA
ATOM     10  N   UNL     1      32.240 -10.222 -22.311  0.00  0.00    -0.267 N 
ATOM     11  N   UNL     1      31.577  -8.032 -22.021  0.00  0.00    -0.251 N 
ATOM     12  N   UNL     1      32.664  -5.907 -22.084  0.00  0.00    -0.062 NA
ATOM     13  C   UNL     1      32.666  -8.873 -22.299  0.00  0.00    +0.309 C 
ATOM     14  C   UNL     1      31.570  -6.621 -21.918  0.00  0.00    +0.177 C 
ATOM     15  C   UNL     1      30.432  -5.882 -21.637  0.00  0.00    +0.073 C 
ATOM     16  C   UNL     1      30.903  -4.596 -21.638  0.00  0.00    +0.156 C 
ATOM     17  C   UNL     1      30.281  -3.285 -21.419  0.00  0.00    +0.075 C 
ATOM     18  H   UNL     1      31.283 -10.370 -22.132  0.00  0.00    +0.156 HD
ATOM     19  H   UNL     1      30.710  -8.479 -21.881  0.00  0.00    +0.158 HD
ENDBRANCH   3  10
BRANCH   2  20
ATOM     20  O   UNL     1      35.292 -14.743 -23.330  0.00  0.00    -0.453 OA
BRANCH  20  24
ATOM     21  N   UNL     1      33.262 -18.158 -24.518  0.00  0.00    -0.244 NA
ATOM     22  C   UNL     1      34.729 -17.061 -22.953  0.00  0.00    +0.055 C 
ATOM     23  C   UNL     1      34.018 -18.192 -23.404  0.00  0.00    +0.087 C 
ATOM     24  C   UNL     1      34.633 -15.880 -23.701  0.00  0.00    +0.148 C 
ATOM     25  C   UNL     1      35.509 -17.132 -21.786  0.00  0.00    +0.045 C 
ATOM     26  C   UNL     1      35.586 -18.318 -21.062  0.00  0.00    +0.173 C 
ATOM     27  C   UNL     1      34.114 -19.366 -22.661  0.00  0.00    +0.059 C 
ATOM     28  C   UNL     1      34.888 -19.436 -21.501  0.00  0.00    +0.174 C 
ATOM     29  C   UNL     1      33.856 -15.842 -24.850  0.00  0.00    +0.058 C 
ATOM     30  C   UNL     1      33.196 -16.999 -25.212  0.00  0.00    +0.102 C 
BRANCH  26  31
ATOM     31  O   UNL     1      36.346 -18.370 -19.932  0.00  0.00    -0.468 OA
ATOM     32  C   UNL     1      37.332 -19.398 -19.860  0.00  0.00    +0.253 C 
ENDBRANCH  26  31
BRANCH  28  33
ATOM     33  O   UNL     1      34.949 -20.608 -20.807  0.00  0.00    -0.468 OA
ATOM     34  C   UNL     1      33.924 -20.846 -19.845  0.00  0.00    +0.253 C 
ENDBRANCH  28  33
ENDBRANCH  20  24
ENDBRANCH   2  20
TORSDOF 5
ENDMDL
MODEL 9
REMARK VINA RESULT:     -10.8      5.729     12.577
REMARK  Name = 9911830
REMARK  5 active torsions:
REMARK  status: ('A' for Active; 'I' for Inactive)
REMARK    1  A    between atoms: C_2  and  O_20
REMARK    2  A    between atoms: C_3  and  N_10
REMARK    3  A    between atoms: O_20  and  C_24
REMARK    4  A    between atoms: C_26  and  O_31
REMARK    5  A    between atoms: C_28  and  O_33
REMARK                            x       y       z     vdW  Elec       q    Type
REMARK                         _______ _______ _______ _____ _____    ______ ____
ROOT
ATOM      1 CL   UNL     1      31.223 -11.064 -20.736  0.00  0.00    -0.081 Cl
ATOM      2  C   UNL     1      34.264 -12.565 -22.811  0.00  0.00    +0.146 C 
ATOM      3  C   UNL     1      32.821 -10.204 -22.775  0.00  0.00    +0.062 C 
ATOM      4  C   UNL     1      33.233 -12.418 -21.901  0.00  0.00    +0.050 C 
ATOM      5  C   UNL     1      34.591 -11.559 -23.704  0.00  0.00    +0.039 C 
ATOM      6  C   UNL     1      32.506 -11.228 -21.881  0.00  0.00    +0.074 C 
ATOM      7  C   UNL     1      33.864 -10.369 -23.685  0.00  0.00    +0.019 C 
ENDROOT
BRANCH   3  10
ATOM      8  O   UNL     1      31.953  -3.636 -21.040  0.00  0.00    -0.357 OA
ATOM      9  O   UNL     1      33.467  -7.584 -21.494  0.00  0.00    -0.252 OA
ATOM     10  N   UNL     1      32.113  -8.998 -22.780  0.00  0.00    -0.267 N 
ATOM     11  N   UNL     1      31.463  -6.814 -22.418  0.00  0.00    -0.251 N 
ATOM     12  N   UNL     1      32.371  -4.946 -21.241  0.00  0.00    -0.062 NA
ATOM     13  C   UNL     1      32.455  -7.773 -22.160  0.00  0.00    +0.309 C 
ATOM     14  C   UNL     1      31.417  -5.468 -21.985  0.00  0.00    +0.177 C 
ATOM     15  C   UNL     1      30.385  -4.600 -22.298  0.00  0.00    +0.073 C 
ATOM     16  C   UNL     1      30.768  -3.442 -21.675  0.00  0.00    +0.156 C 
ATOM     17  C   UNL     1      30.177  -2.103 -21.565  0.00  0.00    +0.075 C 
ATOM     18  H   UNL     1      31.267  -9.001 -23.283  0.00  0.00    +0.156 HD
ATOM     19  H   UNL     1      30.704  -7.115 -22.971  0.00  0.00    +0.158 HD
ENDBRANCH   3  10
BRANCH   2  20
ATOM     20  O   UNL     1      34.985 -13.745 -22.832  0.00  0.00    -0.453 OA
BRANCH  20  24
ATOM     21  N   UNL     1      33.349 -16.886 -24.990  0.00  0.00    -0.244 NA
ATOM     22  C   UNL     1      34.590 -16.115 -23.074  0.00  0.00    +0.055 C 
ATOM     23  C   UNL     1      34.013 -17.143 -23.847  0.00  0.00    +0.087 C 
ATOM     24  C   UNL     1      34.456 -14.795 -23.525  0.00  0.00    +0.148 C 
ATOM     25  C   UNL     1      35.277 -16.420 -21.886  0.00  0.00    +0.045 C 
ATOM     26  C   UNL     1      35.395 -17.740 -21.460  0.00  0.00    +0.173 C 
ATOM     27  C   UNL     1      34.147 -18.455 -23.399  0.00  0.00    +0.059 C 
ATOM     28  C   UNL     1      34.829 -18.758 -22.218  0.00  0.00    +0.174 C 
ATOM     29  C   UNL     1      33.772 -14.526 -24.702  0.00  0.00    +0.058 C 
ATOM     30  C   UNL     1      33.242 -15.598 -25.391  0.00  0.00    +0.102 C 
BRANCH  26  31
ATOM     31  O   UNL     1      36.063 -18.019 -20.307  0.00  0.00    -0.468 OA
ATOM     32  C   UNL     1      37.229 -18.834 -20.413  0.00  0.00    +0.253 C 
ENDBRANCH  26  31
BRANCH  28  33
ATOM     33  O   UNL     1      34.933 -20.057 -21.820  0.00  0.00    -0.468 OA
ATOM     34  C   UNL     1      34.188 -20.443 -20.667  0.00  0.00    +0.253 C 
ENDBRANCH  28  33
ENDBRANCH  20  24
ENDBRANCH   2  20
TORSDOF 5
ENDMDL
