MODEL 1
REMARK VINA RESULT:     -12.8      0.000      0.000
REMARK  Name = 6105620
REMARK  4 active torsions:
REMARK  status: ('A' for Active; 'I' for Inactive)
REMARK    1  A    between atoms: N_2  and  C_7
REMARK    2  A    between atoms: N_3  and  C_21
REMARK    3  A    between atoms: C_9  and  C_29
REMARK    4  A    between atoms: C_30  and  C_31
REMARK                            x       y       z     vdW  Elec       q    Type
REMARK                         _______ _______ _______ _____ _____    ______ ____
ROOT
ATOM      1  N   UNL     1      33.621 -22.758 -16.919  0.00  0.00    -0.086 NA
ATOM      2  N   UNL     1      34.985 -22.536 -16.451  0.00  0.00    -0.132 N 
ATOM      3  N   UNL     1      33.565 -22.199 -18.228  0.00  0.00    -0.240 N 
ATOM      4  N   UNL     1      35.665 -21.793 -17.408  0.00  0.00    -0.146 NA
ATOM      5  C   UNL     1      34.806 -21.626 -18.401  0.00  0.00    +0.162 C 
ATOM      6  H   UNL     1      32.813 -22.217 -18.862  0.00  0.00    +0.170 HD
ENDROOT
BRANCH   2  11
ATOM      7  O   UNL     1      36.794 -27.176 -15.330  0.00  0.00    -0.220 OA
ATOM      8  O   UNL     1      38.217 -24.302 -11.238  0.00  0.00    -0.220 OA
ATOM      9  N   UNL     1      37.819 -27.000 -13.300  0.00  0.00    -0.062 NA
ATOM     10  N   UNL     1      38.161 -26.311 -12.318  0.00  0.00    -0.062 NA
ATOM     11  C   UNL     1      35.702 -23.128 -15.391  0.00  0.00    +0.089 C 
ATOM     12  C   UNL     1      36.041 -24.493 -15.425  0.00  0.00    +0.030 C 
ATOM     13  C   UNL     1      36.095 -22.366 -14.276  0.00  0.00    +0.019 C 
ATOM     14  C   UNL     1      36.752 -25.070 -14.369  0.00  0.00    +0.097 C 
ATOM     15  C   UNL     1      37.130 -24.307 -13.282  0.00  0.00    +0.096 C 
ATOM     16  C   UNL     1      36.805 -22.948 -13.225  0.00  0.00    +0.014 C 
ATOM     17  C   UNL     1      37.124 -26.489 -14.367  0.00  0.00    +0.174 C 
ATOM     18  C   UNL     1      37.875 -24.973 -12.208  0.00  0.00    +0.174 C 
ENDBRANCH   2  11
BRANCH   1  21
ATOM     19  S   UNL     1      32.794 -24.039 -14.720  0.00  0.00    -0.074 S 
ATOM     20  N   UNL     1      31.312 -23.128 -16.680  0.00  0.00    -0.310 N 
ATOM     21  C   UNL     1      32.579 -23.222 -16.265  0.00  0.00    +0.222 C 
ATOM     22  C   UNL     1      30.436 -23.692 -15.808  0.00  0.00    +0.052 C 
ATOM     23  C   UNL     1      31.030 -24.248 -14.670  0.00  0.00    +0.041 C 
ATOM     24  C   UNL     1      29.060 -23.740 -15.981  0.00  0.00    +0.015 C 
ATOM     25  C   UNL     1      30.270 -24.860 -13.687  0.00  0.00    +0.007 C 
ATOM     26  C   UNL     1      28.284 -24.355 -14.996  0.00  0.00    +0.001 C 
ATOM     27  C   UNL     1      28.885 -24.911 -13.857  0.00  0.00    +0.001 C 
ATOM     28  H   UNL     1      31.043 -22.697 -17.524  0.00  0.00    +0.149 HD
ENDBRANCH   1  21
BRANCH   5  29
ATOM     29  C   UNL     1      35.184 -20.865 -19.602  0.00  0.00    +0.037 C 
ATOM     30  C   UNL     1      34.393 -19.940 -20.119  0.00  0.00    +0.003 C 
BRANCH  30  31
ATOM     31  C   UNL     1      34.723 -19.160 -21.324  0.00  0.00    +0.000 C 
ATOM     32  C   UNL     1      35.728 -18.207 -21.261  0.00  0.00    +0.000 C 
ATOM     33  C   UNL     1      34.023 -19.393 -22.496  0.00  0.00    +0.000 C 
ATOM     34  C   UNL     1      36.041 -17.468 -22.403  0.00  0.00    +0.000 C 
ATOM     35  C   UNL     1      34.336 -18.654 -23.638  0.00  0.00    +0.000 C 
ATOM     36  C   UNL     1      35.345 -17.692 -23.591  0.00  0.00    +0.000 C 
ENDBRANCH  30  31
ENDBRANCH   5  29
TORSDOF 4
ENDMDL
MODEL 2
REMARK VINA RESULT:     -12.8      2.404      5.482
REMARK  Name = 6105620
REMARK  4 active torsions:
REMARK  status: ('A' for Active; 'I' for Inactive)
REMARK    1  A    between atoms: N_2  and  C_7
REMARK    2  A    between atoms: N_3  and  C_21
REMARK    3  A    between atoms: C_9  and  C_29
REMARK    4  A    between atoms: C_30  and  C_31
REMARK                            x       y       z     vdW  Elec       q    Type
REMARK                         _______ _______ _______ _____ _____    ______ ____
ROOT
ATOM      1  N   UNL     1      35.492 -22.568 -16.703  0.00  0.00    -0.086 NA
ATOM      2  N   UNL     1      34.088 -22.596 -17.099  0.00  0.00    -0.132 N 
ATOM      3  N   UNL     1      36.149 -21.751 -17.667  0.00  0.00    -0.240 N 
ATOM      4  N   UNL     1      33.952 -21.906 -18.296  0.00  0.00    -0.146 NA
ATOM      5  C   UNL     1      35.161 -21.444 -18.577  0.00  0.00    +0.162 C 
ATOM      6  H   UNL     1      37.092 -21.469 -17.680  0.00  0.00    +0.170 HD
ENDROOT
BRANCH   2  11
ATOM      7  O   UNL     1      33.074 -24.723 -12.570  0.00  0.00    -0.220 OA
ATOM      8  O   UNL     1      28.361 -23.941 -14.621  0.00  0.00    -0.220 OA
ATOM      9  N   UNL     1      30.803 -24.879 -12.420  0.00  0.00    -0.062 NA
ATOM     10  N   UNL     1      29.672 -24.692 -12.912  0.00  0.00    -0.062 NA
ATOM     11  C   UNL     1      32.936 -22.971 -16.377  0.00  0.00    +0.089 C 
ATOM     12  C   UNL     1      33.043 -23.556 -15.102  0.00  0.00    +0.030 C 
ATOM     13  C   UNL     1      31.653 -22.767 -16.916  0.00  0.00    +0.019 C 
ATOM     14  C   UNL     1      31.895 -23.923 -14.395  0.00  0.00    +0.097 C 
ATOM     15  C   UNL     1      30.643 -23.717 -14.940  0.00  0.00    +0.096 C 
ATOM     16  C   UNL     1      30.510 -23.136 -16.205  0.00  0.00    +0.014 C 
ATOM     17  C   UNL     1      31.966 -24.536 -13.064  0.00  0.00    +0.174 C 
ATOM     18  C   UNL     1      29.479 -24.124 -14.146  0.00  0.00    +0.174 C 
ENDBRANCH   2  11
BRANCH   1  21
ATOM     19  S   UNL     1      37.287 -22.470 -14.720  0.00  0.00    -0.074 S 
ATOM     20  N   UNL     1      35.917 -24.555 -15.521  0.00  0.00    -0.310 N 
ATOM     21  C   UNL     1      36.109 -23.255 -15.767  0.00  0.00    +0.222 C 
ATOM     22  C   UNL     1      36.685 -25.010 -14.498  0.00  0.00    +0.052 C 
ATOM     23  C   UNL     1      37.508 -24.039 -13.916  0.00  0.00    +0.041 C 
ATOM     24  C   UNL     1      36.693 -26.315 -14.026  0.00  0.00    +0.015 C 
ATOM     25  C   UNL     1      38.350 -24.346 -12.860  0.00  0.00    +0.007 C 
ATOM     26  C   UNL     1      37.538 -26.636 -12.962  0.00  0.00    +0.001 C 
ATOM     27  C   UNL     1      38.361 -25.658 -12.383  0.00  0.00    +0.001 C 
ATOM     28  H   UNL     1      35.289 -25.121 -16.027  0.00  0.00    +0.149 HD
ENDBRANCH   1  21
BRANCH   5  29
ATOM     29  C   UNL     1      35.401 -20.660 -19.797  0.00  0.00    +0.037 C 
ATOM     30  C   UNL     1      34.567 -19.714 -20.194  0.00  0.00    +0.003 C 
BRANCH  30  31
ATOM     31  C   UNL     1      34.760 -18.910 -21.413  0.00  0.00    +0.000 C 
ATOM     32  C   UNL     1      35.444 -17.707 -21.331  0.00  0.00    +0.000 C 
ATOM     33  C   UNL     1      34.255 -19.371 -22.618  0.00  0.00    +0.000 C 
ATOM     34  C   UNL     1      35.627 -16.945 -22.486  0.00  0.00    +0.000 C 
ATOM     35  C   UNL     1      34.438 -18.609 -23.772  0.00  0.00    +0.000 C 
ATOM     36  C   UNL     1      35.124 -17.397 -23.706  0.00  0.00    +0.000 C 
ENDBRANCH  30  31
ENDBRANCH   5  29
TORSDOF 4
ENDMDL
MODEL 3
REMARK VINA RESULT:     -12.4      2.486      6.003
REMARK  Name = 6105620
REMARK  4 active torsions:
REMARK  status: ('A' for Active; 'I' for Inactive)
REMARK    1  A    between atoms: N_2  and  C_7
REMARK    2  A    between atoms: N_3  and  C_21
REMARK    3  A    between atoms: C_9  and  C_29
REMARK    4  A    between atoms: C_30  and  C_31
REMARK                            x       y       z     vdW  Elec       q    Type
REMARK                         _______ _______ _______ _____ _____    ______ ____
ROOT
ATOM      1  N   UNL     1      35.683 -22.606 -16.321  0.00  0.00    -0.086 NA
ATOM      2  N   UNL     1      34.300 -22.830 -16.731  0.00  0.00    -0.132 N 
ATOM      3  N   UNL     1      36.262 -21.799 -17.342  0.00  0.00    -0.240 N 
ATOM      4  N   UNL     1      34.113 -22.261 -17.984  0.00  0.00    -0.146 NA
ATOM      5  C   UNL     1      35.266 -21.686 -18.287  0.00  0.00    +0.162 C 
ATOM      6  H   UNL     1      37.167 -21.411 -17.367  0.00  0.00    +0.170 HD
ENDROOT
BRANCH   2  11
ATOM      7  O   UNL     1      29.234 -22.255 -16.964  0.00  0.00    -0.220 OA
ATOM      8  O   UNL     1      29.912 -25.327 -12.826  0.00  0.00    -0.220 OA
ATOM      9  N   UNL     1      28.364 -23.445 -15.224  0.00  0.00    -0.062 NA
ATOM     10  N   UNL     1      28.526 -24.182 -14.231  0.00  0.00    -0.062 NA
ATOM     11  C   UNL     1      33.183 -23.276 -15.996  0.00  0.00    +0.089 C 
ATOM     12  C   UNL     1      31.880 -22.900 -16.367  0.00  0.00    +0.030 C 
ATOM     13  C   UNL     1      33.347 -24.107 -14.873  0.00  0.00    +0.019 C 
ATOM     14  C   UNL     1      30.779 -23.348 -15.632  0.00  0.00    +0.097 C 
ATOM     15  C   UNL     1      30.959 -24.164 -14.532  0.00  0.00    +0.096 C 
ATOM     16  C   UNL     1      32.244 -24.551 -14.142  0.00  0.00    +0.014 C 
ATOM     17  C   UNL     1      29.405 -22.978 -15.987  0.00  0.00    +0.174 C 
ATOM     18  C   UNL     1      29.762 -24.599 -13.803  0.00  0.00    +0.174 C 
ENDBRANCH   2  11
BRANCH   1  21
ATOM     19  S   UNL     1      35.906 -22.771 -13.659  0.00  0.00    -0.074 S 
ATOM     20  N   UNL     1      37.392 -23.967 -15.456  0.00  0.00    -0.310 N 
ATOM     21  C   UNL     1      36.353 -23.136 -15.323  0.00  0.00    +0.222 C 
ATOM     22  C   UNL     1      37.897 -24.365 -14.260  0.00  0.00    +0.052 C 
ATOM     23  C   UNL     1      37.236 -23.832 -13.147  0.00  0.00    +0.041 C 
ATOM     24  C   UNL     1      38.974 -25.224 -14.095  0.00  0.00    +0.015 C 
ATOM     25  C   UNL     1      37.632 -24.143 -11.857  0.00  0.00    +0.007 C 
ATOM     26  C   UNL     1      39.381 -25.545 -12.798  0.00  0.00    +0.001 C 
ATOM     27  C   UNL     1      38.715 -25.007 -11.687  0.00  0.00    +0.001 C 
ATOM     28  H   UNL     1      37.752 -24.259 -16.325  0.00  0.00    +0.149 HD
ENDBRANCH   1  21
BRANCH   5  29
ATOM     29  C   UNL     1      35.443 -20.983 -19.566  0.00  0.00    +0.037 C 
ATOM     30  C   UNL     1      34.707 -19.933 -19.892  0.00  0.00    +0.003 C 
BRANCH  30  31
ATOM     31  C   UNL     1      34.840 -19.202 -21.164  0.00  0.00    +0.000 C 
ATOM     32  C   UNL     1      35.820 -18.231 -21.290  0.00  0.00    +0.000 C 
ATOM     33  C   UNL     1      33.982 -19.499 -22.211  0.00  0.00    +0.000 C 
ATOM     34  C   UNL     1      35.946 -17.539 -22.495  0.00  0.00    +0.000 C 
ATOM     35  C   UNL     1      34.108 -18.808 -23.416  0.00  0.00    +0.000 C 
ATOM     36  C   UNL     1      35.090 -17.827 -23.558  0.00  0.00    +0.000 C 
ENDBRANCH  30  31
ENDBRANCH   5  29
TORSDOF 4
ENDMDL
MODEL 4
REMARK VINA RESULT:     -12.4      1.403      2.225
REMARK  Name = 6105620
REMARK  4 active torsions:
REMARK  status: ('A' for Active; 'I' for Inactive)
REMARK    1  A    between atoms: N_2  and  C_7
REMARK    2  A    between atoms: N_3  and  C_21
REMARK    3  A    between atoms: C_9  and  C_29
REMARK    4  A    between atoms: C_30  and  C_31
REMARK                            x       y       z     vdW  Elec       q    Type
REMARK                         _______ _______ _______ _____ _____    ______ ____
ROOT
ATOM      1  N   UNL     1      33.715 -22.977 -16.527  0.00  0.00    -0.086 NA
ATOM      2  N   UNL     1      35.072 -22.887 -15.998  0.00  0.00    -0.132 N 
ATOM      3  N   UNL     1      33.761 -22.367 -17.814  0.00  0.00    -0.240 N 
ATOM      4  N   UNL     1      35.850 -22.168 -16.896  0.00  0.00    -0.146 NA
ATOM      5  C   UNL     1      35.051 -21.894 -17.916  0.00  0.00    +0.162 C 
ATOM      6  H   UNL     1      33.037 -22.298 -18.478  0.00  0.00    +0.170 HD
ENDROOT
BRANCH   2  11
ATOM      7  O   UNL     1      37.802 -21.648 -11.867  0.00  0.00    -0.220 OA
ATOM      8  O   UNL     1      37.528 -26.834 -11.624  0.00  0.00    -0.220 OA
ATOM      9  N   UNL     1      38.316 -23.606 -10.817  0.00  0.00    -0.062 NA
ATOM     10  N   UNL     1      38.251 -24.851 -10.759  0.00  0.00    -0.062 NA
ATOM     11  C   UNL     1      35.692 -23.575 -14.935  0.00  0.00    +0.089 C 
ATOM     12  C   UNL     1      36.388 -22.875 -13.933  0.00  0.00    +0.030 C 
ATOM     13  C   UNL     1      35.629 -24.978 -14.853  0.00  0.00    +0.019 C 
ATOM     14  C   UNL     1      36.999 -23.566 -12.883  0.00  0.00    +0.097 C 
ATOM     15  C   UNL     1      36.927 -24.944 -12.819  0.00  0.00    +0.096 C 
ATOM     16  C   UNL     1      36.241 -25.663 -13.803  0.00  0.00    +0.014 C 
ATOM     17  C   UNL     1      37.733 -22.873 -11.820  0.00  0.00    +0.174 C 
ATOM     18  C   UNL     1      37.589 -25.609 -11.692  0.00  0.00    +0.174 C 
ENDBRANCH   2  11
BRANCH   1  21
ATOM     19  S   UNL     1      31.040 -22.922 -16.583  0.00  0.00    -0.074 S 
ATOM     20  N   UNL     1      32.569 -24.129 -14.830  0.00  0.00    -0.310 N 
ATOM     21  C   UNL     1      32.612 -23.375 -15.933  0.00  0.00    +0.222 C 
ATOM     22  C   UNL     1      31.298 -24.394 -14.431  0.00  0.00    +0.052 C 
ATOM     23  C   UNL     1      30.307 -23.833 -15.245  0.00  0.00    +0.041 C 
ATOM     24  C   UNL     1      30.953 -25.151 -13.320  0.00  0.00    +0.015 C 
ATOM     25  C   UNL     1      28.962 -24.013 -14.970  0.00  0.00    +0.007 C 
ATOM     26  C   UNL     1      29.599 -25.339 -13.034  0.00  0.00    +0.001 C 
ATOM     27  C   UNL     1      28.611 -24.774 -13.853  0.00  0.00    +0.001 C 
ATOM     28  H   UNL     1      33.369 -24.456 -14.358  0.00  0.00    +0.149 HD
ENDBRANCH   1  21
BRANCH   5  29
ATOM     29  C   UNL     1      35.541 -21.124 -19.069  0.00  0.00    +0.037 C 
ATOM     30  C   UNL     1      34.742 -20.341 -19.774  0.00  0.00    +0.003 C 
BRANCH  30  31
ATOM     31  C   UNL     1      35.183 -19.559 -20.942  0.00  0.00    +0.000 C 
ATOM     32  C   UNL     1      36.442 -18.977 -20.933  0.00  0.00    +0.000 C 
ATOM     33  C   UNL     1      34.333 -19.419 -22.026  0.00  0.00    +0.000 C 
ATOM     34  C   UNL     1      36.860 -18.237 -22.039  0.00  0.00    +0.000 C 
ATOM     35  C   UNL     1      34.751 -18.679 -23.132  0.00  0.00    +0.000 C 
ATOM     36  C   UNL     1      36.015 -18.088 -23.139  0.00  0.00    +0.000 C 
ENDBRANCH  30  31
ENDBRANCH   5  29
TORSDOF 4
ENDMDL
