MODEL 1
REMARK VINA RESULT:     -12.4      0.000      0.000
REMARK  Name = 59473233
REMARK  3 active torsions:
REMARK  status: ('A' for Active; 'I' for Inactive)
REMARK    1  A    between atoms: N_1  and  C_25
REMARK    2  A    between atoms: C_7  and  C_14
REMARK    3  A    between atoms: C_22  and  N_29
REMARK                            x       y       z     vdW  Elec       q    Type
REMARK                         _______ _______ _______ _____ _____    ______ ____
ROOT
ATOM      1  N   UNL     1      36.688 -22.803 -15.819  0.00  0.00    -0.286 N 
ATOM      2  N   UNL     1      35.367 -23.641 -12.465  0.00  0.00    -0.260 N 
ATOM      3  N   UNL     1      34.528 -23.299 -15.080  0.00  0.00    -0.387 NA
ATOM      4  N   UNL     1      37.488 -23.197 -12.992  0.00  0.00    -0.224 NA
ATOM      5  C   UNL     1      35.809 -23.136 -14.814  0.00  0.00    +0.216 C 
ATOM      6  C   UNL     1      36.263 -23.315 -13.449  0.00  0.00    +0.180 C 
ATOM      7  C   UNL     1      33.645 -23.638 -14.055  0.00  0.00    +0.131 C 
ATOM      8  C   UNL     1      34.031 -23.804 -12.770  0.00  0.00    +0.156 C 
ATOM      9  C   UNL     1      36.069 -23.737 -11.296  0.00  0.00    +0.088 C 
ATOM     10  C   UNL     1      37.373 -23.460 -11.647  0.00  0.00    +0.117 C 
ATOM     11  H   UNL     1      37.614 -23.122 -15.718  0.00  0.00    +0.155 HD
ENDROOT
BRANCH   7  14
ATOM     12  N   UNL     1      29.517 -22.609 -16.674  0.00  0.00    -0.236 N 
ATOM     13  N   UNL     1      28.252 -23.062 -16.661  0.00  0.00    -0.180 NA
ATOM     14  C   UNL     1      32.218 -23.793 -14.416  0.00  0.00    +0.028 C 
ATOM     15  C   UNL     1      30.333 -23.198 -15.745  0.00  0.00    +0.067 C 
ATOM     16  C   UNL     1      31.683 -23.010 -15.445  0.00  0.00    +0.018 C 
ATOM     17  C   UNL     1      29.526 -24.110 -15.075  0.00  0.00    +0.035 C 
ATOM     18  C   UNL     1      31.430 -24.716 -13.726  0.00  0.00    +0.002 C 
ATOM     19  C   UNL     1      30.077 -24.889 -14.044  0.00  0.00    +0.003 C 
ATOM     20  C   UNL     1      28.261 -23.974 -15.687  0.00  0.00    +0.119 C 
ATOM     21  H   UNL     1      29.829 -21.914 -17.297  0.00  0.00    +0.174 HD
ENDBRANCH   7  14
BRANCH   1  25
ATOM     22  C   UNL     1      35.834 -20.584 -19.259  0.00  0.00    +0.048 C 
ATOM     23  C   UNL     1      36.986 -20.311 -18.521  0.00  0.00    +0.016 C 
ATOM     24  C   UNL     1      34.967 -21.596 -18.848  0.00  0.00    +0.016 C 
ATOM     25  C   UNL     1      36.403 -22.063 -16.963  0.00  0.00    +0.050 C 
ATOM     26  C   UNL     1      37.271 -21.051 -17.372  0.00  0.00    +0.016 C 
ATOM     27  C   UNL     1      35.251 -22.336 -17.701  0.00  0.00    +0.016 C 
BRANCH  22  29
ATOM     28  O   UNL     1      34.915 -18.137 -22.552  0.00  0.00    -0.350 OA
ATOM     29  N   UNL     1      35.549 -19.842 -20.409  0.00  0.00    -0.303 N 
ATOM     30  C   UNL     1      36.410 -18.694 -20.725  0.00  0.00    +0.123 C 
ATOM     31  C   UNL     1      34.166 -19.735 -20.888  0.00  0.00    +0.123 C 
ATOM     32  C   UNL     1      36.284 -18.347 -22.204  0.00  0.00    +0.164 C 
ATOM     33  C   UNL     1      34.159 -19.331 -22.358  0.00  0.00    +0.164 C 
ENDBRANCH  22  29
ENDBRANCH   1  25
TORSDOF 3
ENDMDL
MODEL 2
REMARK VINA RESULT:     -11.3      1.135      1.446
REMARK  Name = 59473233
REMARK  3 active torsions:
REMARK  status: ('A' for Active; 'I' for Inactive)
REMARK    1  A    between atoms: N_1  and  C_25
REMARK    2  A    between atoms: C_7  and  C_14
REMARK    3  A    between atoms: C_22  and  N_29
REMARK                            x       y       z     vdW  Elec       q    Type
REMARK                         _______ _______ _______ _____ _____    ______ ____
ROOT
ATOM      1  N   UNL     1      36.851 -22.484 -16.576  0.00  0.00    -0.286 N 
ATOM      2  N   UNL     1      35.768 -23.465 -13.175  0.00  0.00    -0.260 N 
ATOM      3  N   UNL     1      34.746 -23.009 -15.708  0.00  0.00    -0.387 NA
ATOM      4  N   UNL     1      37.847 -23.001 -13.832  0.00  0.00    -0.224 NA
ATOM      5  C   UNL     1      36.044 -22.859 -15.526  0.00  0.00    +0.216 C 
ATOM      6  C   UNL     1      36.592 -23.098 -14.206  0.00  0.00    +0.180 C 
ATOM      7  C   UNL     1      33.937 -23.391 -14.638  0.00  0.00    +0.131 C 
ATOM      8  C   UNL     1      34.413 -23.613 -13.392  0.00  0.00    +0.156 C 
ATOM      9  C   UNL     1      36.550 -23.613 -12.065  0.00  0.00    +0.088 C 
ATOM     10  C   UNL     1      37.827 -23.322 -12.495  0.00  0.00    +0.117 C 
ATOM     11  H   UNL     1      37.781 -22.807 -16.554  0.00  0.00    +0.155 HD
ENDROOT
BRANCH   7  14
ATOM     12  N   UNL     1      29.360 -25.227 -13.839  0.00  0.00    -0.236 N 
ATOM     13  N   UNL     1      28.156 -25.045 -14.407  0.00  0.00    -0.180 NA
ATOM     14  C   UNL     1      32.488 -23.529 -14.903  0.00  0.00    +0.028 C 
ATOM     15  C   UNL     1      30.365 -24.490 -14.406  0.00  0.00    +0.067 C 
ATOM     16  C   UNL     1      31.727 -24.398 -14.113  0.00  0.00    +0.018 C 
ATOM     17  C   UNL     1      29.759 -23.769 -15.429  0.00  0.00    +0.035 C 
ATOM     18  C   UNL     1      31.904 -22.795 -15.937  0.00  0.00    +0.002 C 
ATOM     19  C   UNL     1      30.536 -22.902 -16.215  0.00  0.00    +0.003 C 
ATOM     20  C   UNL     1      28.402 -24.158 -15.374  0.00  0.00    +0.119 C 
ATOM     21  H   UNL     1      29.506 -25.838 -13.082  0.00  0.00    +0.174 HD
ENDBRANCH   7  14
BRANCH   1  25
ATOM     22  C   UNL     1      35.764 -20.117 -19.847  0.00  0.00    +0.048 C 
ATOM     23  C   UNL     1      36.947 -19.850 -19.155  0.00  0.00    +0.016 C 
ATOM     24  C   UNL     1      34.946 -21.172 -19.446  0.00  0.00    +0.016 C 
ATOM     25  C   UNL     1      36.489 -21.695 -17.663  0.00  0.00    +0.050 C 
ATOM     26  C   UNL     1      37.309 -20.640 -18.063  0.00  0.00    +0.016 C 
ATOM     27  C   UNL     1      35.306 -21.961 -18.355  0.00  0.00    +0.016 C 
BRANCH  22  29
ATOM     28  O   UNL     1      34.515 -17.587 -22.963  0.00  0.00    -0.350 OA
ATOM     29  N   UNL     1      35.402 -19.325 -20.941  0.00  0.00    -0.303 N 
ATOM     30  C   UNL     1      35.826 -17.918 -20.950  0.00  0.00    +0.123 C 
ATOM     31  C   UNL     1      34.160 -19.607 -21.669  0.00  0.00    +0.123 C 
ATOM     32  C   UNL     1      35.800 -17.382 -22.377  0.00  0.00    +0.164 C 
ATOM     33  C   UNL     1      34.222 -18.980 -23.057  0.00  0.00    +0.164 C 
ENDBRANCH  22  29
ENDBRANCH   1  25
TORSDOF 3
ENDMDL
MODEL 3
REMARK VINA RESULT:     -10.9      1.193      1.282
REMARK  Name = 59473233
REMARK  3 active torsions:
REMARK  status: ('A' for Active; 'I' for Inactive)
REMARK    1  A    between atoms: N_1  and  C_25
REMARK    2  A    between atoms: C_7  and  C_14
REMARK    3  A    between atoms: C_22  and  N_29
REMARK                            x       y       z     vdW  Elec       q    Type
REMARK                         _______ _______ _______ _____ _____    ______ ____
ROOT
ATOM      1  N   UNL     1      36.947 -22.598 -17.080  0.00  0.00    -0.286 N 
ATOM      2  N   UNL     1      36.220 -23.570 -13.584  0.00  0.00    -0.260 N 
ATOM      3  N   UNL     1      34.932 -22.843 -15.924  0.00  0.00    -0.387 NA
ATOM      4  N   UNL     1      38.232 -23.391 -14.530  0.00  0.00    -0.224 NA
ATOM      5  C   UNL     1      36.249 -22.899 -15.933  0.00  0.00    +0.216 C 
ATOM      6  C   UNL     1      36.937 -23.281 -14.715  0.00  0.00    +0.180 C 
ATOM      7  C   UNL     1      34.234 -23.151 -14.756  0.00  0.00    +0.131 C 
ATOM      8  C   UNL     1      34.842 -23.503 -13.601  0.00  0.00    +0.156 C 
ATOM      9  C   UNL     1      37.121 -23.888 -12.606  0.00  0.00    +0.088 C 
ATOM     10  C   UNL     1      38.353 -23.770 -13.213  0.00  0.00    +0.117 C 
ATOM     11  H   UNL     1      37.808 -23.058 -17.206  0.00  0.00    +0.155 HD
ENDROOT
BRANCH   7  14
ATOM     12  N   UNL     1      29.793 -23.123 -17.043  0.00  0.00    -0.236 N 
ATOM     13  N   UNL     1      28.520 -22.989 -16.635  0.00  0.00    -0.180 NA
ATOM     14  C   UNL     1      32.758 -23.058 -14.807  0.00  0.00    +0.028 C 
ATOM     15  C   UNL     1      30.715 -23.065 -16.033  0.00  0.00    +0.067 C 
ATOM     16  C   UNL     1      32.108 -23.159 -16.042  0.00  0.00    +0.018 C 
ATOM     17  C   UNL     1      29.975 -22.879 -14.871  0.00  0.00    +0.035 C 
ATOM     18  C   UNL     1      32.039 -22.870 -13.625  0.00  0.00    +0.002 C 
ATOM     19  C   UNL     1      30.641 -22.778 -13.638  0.00  0.00    +0.003 C 
ATOM     20  C   UNL     1      28.634 -22.840 -15.313  0.00  0.00    +0.119 C 
ATOM     21  H   UNL     1      30.040 -23.250 -17.987  0.00  0.00    +0.174 HD
ENDBRANCH   7  14
BRANCH   1  25
ATOM     22  C   UNL     1      35.786 -19.938 -20.091  0.00  0.00    +0.048 C 
ATOM     23  C   UNL     1      37.038 -19.807 -19.488  0.00  0.00    +0.016 C 
ATOM     24  C   UNL     1      34.923 -20.957 -19.688  0.00  0.00    +0.016 C 
ATOM     25  C   UNL     1      36.560 -21.712 -18.081  0.00  0.00    +0.050 C 
ATOM     26  C   UNL     1      37.425 -20.694 -18.483  0.00  0.00    +0.016 C 
ATOM     27  C   UNL     1      35.308 -21.843 -18.684  0.00  0.00    +0.016 C 
BRANCH  22  29
ATOM     28  O   UNL     1      34.450 -17.145 -22.934  0.00  0.00    -0.350 OA
ATOM     29  N   UNL     1      35.399 -19.049 -21.098  0.00  0.00    -0.303 N 
ATOM     30  C   UNL     1      35.735 -17.628 -20.935  0.00  0.00    +0.123 C 
ATOM     31  C   UNL     1      34.193 -19.319 -21.889  0.00  0.00    +0.123 C 
ATOM     32  C   UNL     1      35.706 -16.933 -22.291  0.00  0.00    +0.164 C 
ATOM     33  C   UNL     1      34.247 -18.533 -23.194  0.00  0.00    +0.164 C 
ENDBRANCH  22  29
ENDBRANCH   1  25
TORSDOF 3
ENDMDL
