MODEL 1
REMARK VINA RESULT:     -11.6      0.000      0.000
REMARK  Name = 657131
REMARK  7 active torsions:
REMARK  status: ('A' for Active; 'I' for Inactive)
REMARK    1  A    between atoms: C_1  and  CA_2
REMARK    2  A    between atoms: C_1  and  C_3
REMARK    3  A    between atoms: CA_2  and  C_28
REMARK    4  A    between atoms: C_4  and  O_9
REMARK    5  A    between atoms: O_9  and  C_11
REMARK    6  A    between atoms: C_19  and  C_21
REMARK    7  A    between atoms: C_28  and  O_29
REMARK                            x       y       z     vdW  Elec       q    Type
REMARK                         _______ _______ _______ _____ _____    ______ ____
ROOT
ATOM      1  C   UNL     1      35.056 -15.585 -20.593  0.00  0.00    +0.074 C 
ENDROOT
BRANCH   1   2
ATOM      2  C   UNL     1      34.203 -14.464 -20.954  0.00  0.00    -0.016 C 
ATOM      3  C   UNL     1      32.569 -12.312 -21.648  0.00  0.00    +0.145 C 
ATOM      4  C   UNL     1      33.090 -14.153 -20.174  0.00  0.00    -0.001 C 
ATOM      5  C   UNL     1      34.500 -13.697 -22.081  0.00  0.00    -0.001 C 
ATOM      6  C   UNL     1      32.272 -13.077 -20.521  0.00  0.00    +0.037 C 
ATOM      7  C   UNL     1      33.683 -12.621 -22.428  0.00  0.00    +0.037 C 
BRANCH   3   8
ATOM      8  O   UNL     1      31.773 -11.262 -21.986  0.00  0.00    -0.453 OA
BRANCH   8  10
ATOM      9 BR   UNL     1      31.220  -9.882 -19.240  0.00  0.00    -0.046 Br
ATOM     10  C   UNL     1      32.313  -9.989 -21.901  0.00  0.00    +0.151 C 
ATOM     11  C   UNL     1      32.162  -9.233 -20.751  0.00  0.00    +0.069 C 
ATOM     12  C   UNL     1      33.003  -9.508 -23.000  0.00  0.00    +0.038 C 
ATOM     13  C   UNL     1      32.720  -7.955 -20.700  0.00  0.00    +0.010 C 
ATOM     14  C   UNL     1      33.560  -8.229 -22.948  0.00  0.00    +0.003 C 
ATOM     15  C   UNL     1      33.418  -7.454 -21.798  0.00  0.00    +0.001 C 
ENDBRANCH   8  10
ENDBRANCH   3   8
ENDBRANCH   1   2
BRANCH   1  16
ATOM     16  CA  UNL     1      35.005 -16.831 -21.118  0.00  0.00    +0.108 C 
ATOM     17  O   UNL     1      34.874 -19.507 -22.102  0.00  0.00    -0.270 OA
ATOM     18  N   UNL     1      34.794 -17.956 -20.371  0.00  0.00    -0.278 N 
ATOM     19  C   UNL     1      34.741 -19.231 -20.912  0.00  0.00    +0.249 C 
ATOM     20  H   UNL     1      34.674 -17.855 -19.400  0.00  0.00    +0.155 HD
BRANCH  19  21
ATOM     21  C   UNL     1      34.527 -20.333 -19.937  0.00  0.00    +0.054 C 
ATOM     22  C   UNL     1      33.235 -20.692 -19.613  0.00  0.00    +0.005 C 
ATOM     23  C   UNL     1      35.626 -20.961 -19.391  0.00  0.00    +0.005 C 
ATOM     24  C   UNL     1      33.033 -21.725 -18.699  0.00  0.00    +0.000 C 
ATOM     25  C   UNL     1      35.424 -21.996 -18.477  0.00  0.00    +0.000 C 
ATOM     26  C   UNL     1      34.127 -22.377 -18.131  0.00  0.00    +0.000 C 
ENDBRANCH  19  21
BRANCH  16  28
ATOM     27  OXT UNL     1      34.369 -16.739 -23.442  0.00  0.00    -0.244 OA
ATOM     28  C   UNL     1      35.204 -16.984 -22.584  0.00  0.00    +0.348 C 
BRANCH  28  29
ATOM     29  O   UNL     1      36.450 -17.440 -22.857  0.00  0.00    -0.476 OA
ATOM     30  H   UNL     1      36.571 -18.126 -23.483  0.00  0.00    +0.295 HD
ENDBRANCH  28  29
ENDBRANCH  16  28
ENDBRANCH   1  16
TORSDOF 7
ENDMDL
MODEL 2
REMARK VINA RESULT:     -11.6      1.637      2.469
REMARK  Name = 657131
REMARK  7 active torsions:
REMARK  status: ('A' for Active; 'I' for Inactive)
REMARK    1  A    between atoms: C_1  and  CA_2
REMARK    2  A    between atoms: C_1  and  C_3
REMARK    3  A    between atoms: CA_2  and  C_28
REMARK    4  A    between atoms: C_4  and  O_9
REMARK    5  A    between atoms: O_9  and  C_11
REMARK    6  A    between atoms: C_19  and  C_21
REMARK    7  A    between atoms: C_28  and  O_29
REMARK                            x       y       z     vdW  Elec       q    Type
REMARK                         _______ _______ _______ _____ _____    ______ ____
ROOT
ATOM      1  C   UNL     1      34.936 -14.227 -23.057  0.00  0.00    +0.074 C 
ENDROOT
BRANCH   1   2
ATOM      2  C   UNL     1      33.944 -13.246 -22.650  0.00  0.00    -0.016 C 
ATOM      3  C   UNL     1      32.039 -11.364 -21.866  0.00  0.00    +0.145 C 
ATOM      4  C   UNL     1      33.936 -11.978 -23.230  0.00  0.00    -0.001 C 
ATOM      5  C   UNL     1      32.998 -13.573 -21.677  0.00  0.00    -0.001 C 
ATOM      6  C   UNL     1      32.984 -11.036 -22.839  0.00  0.00    +0.037 C 
ATOM      7  C   UNL     1      32.046 -12.632 -21.286  0.00  0.00    +0.037 C 
BRANCH   3   8
ATOM      8  O   UNL     1      31.110 -10.446 -21.485  0.00  0.00    -0.453 OA
BRANCH   8  10
ATOM      9 BR   UNL     1      32.121 -10.074 -18.555  0.00  0.00    -0.046 Br
ATOM     10  C   UNL     1      31.546  -9.158 -21.222  0.00  0.00    +0.151 C 
ATOM     11  C   UNL     1      32.028  -8.817 -19.970  0.00  0.00    +0.069 C 
ATOM     12  C   UNL     1      31.482  -8.234 -22.251  0.00  0.00    +0.038 C 
ATOM     13  C   UNL     1      32.460  -7.511 -19.740  0.00  0.00    +0.010 C 
ATOM     14  C   UNL     1      31.914  -6.927 -22.020  0.00  0.00    +0.003 C 
ATOM     15  C   UNL     1      32.402  -6.566 -20.764  0.00  0.00    +0.001 C 
ENDBRANCH   8  10
ENDBRANCH   3   8
ENDBRANCH   1   2
BRANCH   1  16
ATOM     16  CA  UNL     1      34.713 -15.543 -23.283  0.00  0.00    +0.108 C 
ATOM     17  O   UNL     1      34.297 -18.345 -23.636  0.00  0.00    -0.270 OA
ATOM     18  N   UNL     1      35.036 -16.526 -22.389  0.00  0.00    -0.278 N 
ATOM     19  C   UNL     1      34.807 -17.874 -22.622  0.00  0.00    +0.249 C 
ATOM     20  H   UNL     1      35.452 -16.263 -21.537  0.00  0.00    +0.155 HD
BRANCH  19  21
ATOM     21  C   UNL     1      35.247 -18.795 -21.542  0.00  0.00    +0.054 C 
ATOM     22  C   UNL     1      36.549 -18.720 -21.093  0.00  0.00    +0.005 C 
ATOM     23  C   UNL     1      34.339 -19.692 -21.021  0.00  0.00    +0.005 C 
ATOM     24  C   UNL     1      36.962 -19.583 -20.080  0.00  0.00    +0.000 C 
ATOM     25  C   UNL     1      34.752 -20.556 -20.007  0.00  0.00    +0.000 C 
ATOM     26  C   UNL     1      36.064 -20.502 -19.536  0.00  0.00    +0.000 C 
ENDBRANCH  19  21
BRANCH  16  28
ATOM     27  OXT UNL     1      32.906 -15.921 -24.833  0.00  0.00    -0.244 OA
ATOM     28  C   UNL     1      34.101 -15.941 -24.578  0.00  0.00    +0.348 C 
BRANCH  28  29
ATOM     29  O   UNL     1      35.049 -16.339 -25.460  0.00  0.00    -0.476 OA
ATOM     30  H   UNL     1      35.908 -15.965 -25.425  0.00  0.00    +0.295 HD
ENDBRANCH  28  29
ENDBRANCH  16  28
ENDBRANCH   1  16
TORSDOF 7
ENDMDL
MODEL 3
REMARK VINA RESULT:     -11.3      3.820      6.784
REMARK  Name = 657131
REMARK  7 active torsions:
REMARK  status: ('A' for Active; 'I' for Inactive)
REMARK    1  A    between atoms: C_1  and  CA_2
REMARK    2  A    between atoms: C_1  and  C_3
REMARK    3  A    between atoms: CA_2  and  C_28
REMARK    4  A    between atoms: C_4  and  O_9
REMARK    5  A    between atoms: O_9  and  C_11
REMARK    6  A    between atoms: C_19  and  C_21
REMARK    7  A    between atoms: C_28  and  O_29
REMARK                            x       y       z     vdW  Elec       q    Type
REMARK                         _______ _______ _______ _____ _____    ______ ____
ROOT
ATOM      1  C   UNL     1      36.147 -21.582 -18.757  0.00  0.00    +0.074 C 
ENDROOT
BRANCH   1   2
ATOM      2  C   UNL     1      35.963 -20.533 -19.746  0.00  0.00    -0.016 C 
ATOM      3  C   UNL     1      35.612 -18.518 -21.644  0.00  0.00    +0.145 C 
ATOM      4  C   UNL     1      34.748 -20.414 -20.422  0.00  0.00    -0.001 C 
ATOM      5  C   UNL     1      37.002 -19.643 -20.020  0.00  0.00    -0.001 C 
ATOM      6  C   UNL     1      34.572 -19.407 -21.371  0.00  0.00    +0.037 C 
ATOM      7  C   UNL     1      36.826 -18.635 -20.969  0.00  0.00    +0.037 C 
BRANCH   3   8
ATOM      8  O   UNL     1      35.440 -17.535 -22.569  0.00  0.00    -0.453 OA
BRANCH   8  10
ATOM      9 BR   UNL     1      34.349 -15.721 -24.864  0.00  0.00    -0.046 Br
ATOM     10  C   UNL     1      35.007 -16.298 -22.122  0.00  0.00    +0.151 C 
ATOM     11  C   UNL     1      34.493 -15.367 -23.008  0.00  0.00    +0.069 C 
ATOM     12  C   UNL     1      35.109 -16.031 -20.768  0.00  0.00    +0.038 C 
ATOM     13  C   UNL     1      34.066 -14.130 -22.524  0.00  0.00    +0.010 C 
ATOM     14  C   UNL     1      34.682 -14.794 -20.284  0.00  0.00    +0.003 C 
ATOM     15  C   UNL     1      34.161 -13.844 -21.162  0.00  0.00    +0.001 C 
ENDBRANCH   8  10
ENDBRANCH   3   8
ENDBRANCH   1   2
BRANCH   1  16
ATOM     16  CA  UNL     1      35.184 -22.121 -17.974  0.00  0.00    +0.108 C 
ATOM     17  O   UNL     1      33.241 -23.256 -16.217  0.00  0.00    -0.270 OA
ATOM     18  N   UNL     1      35.372 -22.433 -16.656  0.00  0.00    -0.278 N 
ATOM     19  C   UNL     1      34.384 -22.985 -15.855  0.00  0.00    +0.249 C 
ATOM     20  H   UNL     1      36.254 -22.258 -16.256  0.00  0.00    +0.155 HD
BRANCH  19  21
ATOM     21  C   UNL     1      34.783 -23.277 -14.454  0.00  0.00    +0.054 C 
ATOM     22  C   UNL     1      33.864 -23.864 -13.609  0.00  0.00    +0.005 C 
ATOM     23  C   UNL     1      36.060 -22.955 -14.045  0.00  0.00    +0.005 C 
ATOM     24  C   UNL     1      34.239 -24.140 -12.295  0.00  0.00    +0.000 C 
ATOM     25  C   UNL     1      36.435 -23.231 -12.730  0.00  0.00    +0.000 C 
ATOM     26  C   UNL     1      35.524 -23.823 -11.854  0.00  0.00    +0.000 C 
ENDBRANCH  19  21
BRANCH  16  28
ATOM     27  OXT UNL     1      32.901 -21.641 -18.582  0.00  0.00    -0.244 OA
ATOM     28  C   UNL     1      33.857 -22.402 -18.583  0.00  0.00    +0.348 C 
BRANCH  28  29
ATOM     29  O   UNL     1      33.837 -23.632 -19.151  0.00  0.00    -0.476 OA
ATOM     30  H   UNL     1      34.427 -23.835 -19.849  0.00  0.00    +0.295 HD
ENDBRANCH  28  29
ENDBRANCH  16  28
ENDBRANCH   1  16
TORSDOF 7
ENDMDL
MODEL 4
REMARK VINA RESULT:     -11.2      4.993      8.108
REMARK  Name = 657131
REMARK  7 active torsions:
REMARK  status: ('A' for Active; 'I' for Inactive)
REMARK    1  A    between atoms: C_1  and  CA_2
REMARK    2  A    between atoms: C_1  and  C_3
REMARK    3  A    between atoms: CA_2  and  C_28
REMARK    4  A    between atoms: C_4  and  O_9
REMARK    5  A    between atoms: O_9  and  C_11
REMARK    6  A    between atoms: C_19  and  C_21
REMARK    7  A    between atoms: C_28  and  O_29
REMARK                            x       y       z     vdW  Elec       q    Type
REMARK                         _______ _______ _______ _____ _____    ______ ____
ROOT
ATOM      1  C   UNL     1      34.693 -22.868 -18.339  0.00  0.00    +0.074 C 
ENDROOT
BRANCH   1   2
ATOM      2  C   UNL     1      34.935 -21.623 -19.049  0.00  0.00    -0.016 C 
ATOM      3  C   UNL     1      35.396 -19.234 -20.414  0.00  0.00    +0.145 C 
ATOM      4  C   UNL     1      36.237 -21.147 -19.204  0.00  0.00    -0.001 C 
ATOM      5  C   UNL     1      33.863 -20.903 -19.579  0.00  0.00    -0.001 C 
ATOM      6  C   UNL     1      36.468 -19.953 -19.886  0.00  0.00    +0.037 C 
ATOM      7  C   UNL     1      34.094 -19.708 -20.261  0.00  0.00    +0.037 C 
BRANCH   3   8
ATOM      8  O   UNL     1      35.621 -18.069 -21.080  0.00  0.00    -0.453 OA
BRANCH   8  10
ATOM      9 BR   UNL     1      34.935 -15.104 -21.780  0.00  0.00    -0.046 Br
ATOM     10  C   UNL     1      35.058 -17.926 -22.337  0.00  0.00    +0.151 C 
ATOM     11  C   UNL     1      34.692 -16.677 -22.809  0.00  0.00    +0.069 C 
ATOM     12  C   UNL     1      34.877 -19.069 -23.096  0.00  0.00    +0.038 C 
ATOM     13  C   UNL     1      34.127 -16.569 -24.080  0.00  0.00    +0.010 C 
ATOM     14  C   UNL     1      34.312 -18.960 -24.367  0.00  0.00    +0.003 C 
ATOM     15  C   UNL     1      33.937 -17.710 -24.859  0.00  0.00    +0.001 C 
ENDBRANCH   8  10
ENDBRANCH   3   8
ENDBRANCH   1   2
BRANCH   1  16
ATOM     16  CA  UNL     1      34.202 -22.990 -17.084  0.00  0.00    +0.108 C 
ATOM     17  O   UNL     1      33.043 -23.261 -14.489  0.00  0.00    -0.270 OA
ATOM     18  N   UNL     1      32.873 -23.143 -16.806  0.00  0.00    -0.278 N 
ATOM     19  C   UNL     1      32.372 -23.269 -15.519  0.00  0.00    +0.249 C 
ATOM     20  H   UNL     1      32.238 -23.164 -17.558  0.00  0.00    +0.155 HD
BRANCH  19  21
ATOM     21  C   UNL     1      30.895 -23.402 -15.416  0.00  0.00    +0.054 C 
ATOM     22  C   UNL     1      30.372 -24.390 -14.607  0.00  0.00    +0.005 C 
ATOM     23  C   UNL     1      30.097 -22.533 -16.129  0.00  0.00    +0.005 C 
ATOM     24  C   UNL     1      28.987 -24.514 -14.509  0.00  0.00    +0.000 C 
ATOM     25  C   UNL     1      28.711 -22.658 -16.031  0.00  0.00    +0.000 C 
ATOM     26  C   UNL     1      28.156 -23.649 -15.221  0.00  0.00    +0.000 C 
ENDBRANCH  19  21
BRANCH  16  28
ATOM     27  OXT UNL     1      35.665 -21.927 -15.489  0.00  0.00    -0.244 OA
ATOM     28  C   UNL     1      35.159 -22.941 -15.947  0.00  0.00    +0.348 C 
BRANCH  28  29
ATOM     29  O   UNL     1      35.409 -24.185 -15.470  0.00  0.00    -0.476 OA
ATOM     30  H   UNL     1      34.755 -24.852 -15.539  0.00  0.00    +0.295 HD
ENDBRANCH  28  29
ENDBRANCH  16  28
ENDBRANCH   1  16
TORSDOF 7
ENDMDL
MODEL 5
REMARK VINA RESULT:     -11.2      3.343     10.376
REMARK  Name = 657131
REMARK  7 active torsions:
REMARK  status: ('A' for Active; 'I' for Inactive)
REMARK    1  A    between atoms: C_1  and  CA_2
REMARK    2  A    between atoms: C_1  and  C_3
REMARK    3  A    between atoms: CA_2  and  C_28
REMARK    4  A    between atoms: C_4  and  O_9
REMARK    5  A    between atoms: O_9  and  C_11
REMARK    6  A    between atoms: C_19  and  C_21
REMARK    7  A    between atoms: C_28  and  O_29
REMARK                            x       y       z     vdW  Elec       q    Type
REMARK                         _______ _______ _______ _____ _____    ______ ____
ROOT
ATOM      1  C   UNL     1      31.525 -11.623 -21.034  0.00  0.00    +0.074 C 
ENDROOT
BRANCH   1   2
ATOM      2  C   UNL     1      32.567 -12.580 -21.367  0.00  0.00    -0.016 C 
ATOM      3  C   UNL     1      34.567 -14.418 -22.003  0.00  0.00    +0.145 C 
ATOM      4  C   UNL     1      33.124 -12.591 -22.646  0.00  0.00    -0.001 C 
ATOM      5  C   UNL     1      33.012 -13.489 -20.406  0.00  0.00    -0.001 C 
ATOM      6  C   UNL     1      34.124 -13.509 -22.964  0.00  0.00    +0.037 C 
ATOM      7  C   UNL     1      34.012 -14.407 -20.724  0.00  0.00    +0.037 C 
BRANCH   3   8
ATOM      8  O   UNL     1      35.544 -15.313 -22.314  0.00  0.00    -0.453 OA
BRANCH   8  10
ATOM      9 BR   UNL     1      34.353 -16.528 -24.932  0.00  0.00    -0.046 Br
ATOM     10  C   UNL     1      35.243 -16.660 -22.198  0.00  0.00    +0.151 C 
ATOM     11  C   UNL     1      34.707 -17.359 -23.266  0.00  0.00    +0.069 C 
ATOM     12  C   UNL     1      35.498 -17.275 -20.984  0.00  0.00    +0.038 C 
ATOM     13  C   UNL     1      34.416 -18.715 -23.115  0.00  0.00    +0.010 C 
ATOM     14  C   UNL     1      35.208 -18.631 -20.834  0.00  0.00    +0.003 C 
ATOM     15  C   UNL     1      34.667 -19.351 -21.899  0.00  0.00    +0.001 C 
ENDBRANCH   8  10
ENDBRANCH   3   8
ENDBRANCH   1   2
BRANCH   1  16
ATOM     16  CA  UNL     1      31.710 -10.328 -20.684  0.00  0.00    +0.108 C 
ATOM     17  O   UNL     1      32.109  -7.568 -20.078  0.00  0.00    -0.270 OA
ATOM     18  N   UNL     1      31.919  -9.326 -21.589  0.00  0.00    -0.278 N 
ATOM     19  C   UNL     1      32.107  -8.000 -21.229  0.00  0.00    +0.249 C 
ATOM     20  H   UNL     1      31.937  -9.557 -22.546  0.00  0.00    +0.155 HD
BRANCH  19  21
ATOM     21  C   UNL     1      32.343  -7.057 -22.353  0.00  0.00    +0.054 C 
ATOM     22  C   UNL     1      33.614  -6.555 -22.544  0.00  0.00    +0.005 C 
ATOM     23  C   UNL     1      31.287  -6.718 -23.171  0.00  0.00    +0.005 C 
ATOM     24  C   UNL     1      33.836  -5.671 -23.599  0.00  0.00    +0.000 C 
ATOM     25  C   UNL     1      31.509  -5.834 -24.226  0.00  0.00    +0.000 C 
ATOM     26  C   UNL     1      32.785  -5.310 -24.440  0.00  0.00    +0.000 C 
ENDBRANCH  19  21
BRANCH  16  28
ATOM     27  OXT UNL     1      32.685  -9.911 -18.519  0.00  0.00    -0.244 OA
ATOM     28  C   UNL     1      31.700  -9.983 -19.238  0.00  0.00    +0.348 C 
BRANCH  28  29
ATOM     29  O   UNL     1      30.437  -9.753 -18.804  0.00  0.00    -0.476 OA
ATOM     30  H   UNL     1      29.712 -10.160 -19.236  0.00  0.00    +0.295 HD
ENDBRANCH  28  29
ENDBRANCH  16  28
ENDBRANCH   1  16
TORSDOF 7
ENDMDL
MODEL 6
REMARK VINA RESULT:     -11.2      4.281      7.009
REMARK  Name = 657131
REMARK  7 active torsions:
REMARK  status: ('A' for Active; 'I' for Inactive)
REMARK    1  A    between atoms: C_1  and  CA_2
REMARK    2  A    between atoms: C_1  and  C_3
REMARK    3  A    between atoms: CA_2  and  C_28
REMARK    4  A    between atoms: C_4  and  O_9
REMARK    5  A    between atoms: O_9  and  C_11
REMARK    6  A    between atoms: C_19  and  C_21
REMARK    7  A    between atoms: C_28  and  O_29
REMARK                            x       y       z     vdW  Elec       q    Type
REMARK                         _______ _______ _______ _____ _____    ______ ____
ROOT
ATOM      1  C   UNL     1      35.560 -21.864 -19.091  0.00  0.00    +0.074 C 
ENDROOT
BRANCH   1   2
ATOM      2  C   UNL     1      35.611 -20.561 -19.733  0.00  0.00    -0.016 C 
ATOM      3  C   UNL     1      35.712 -18.060 -20.964  0.00  0.00    +0.145 C 
ATOM      4  C   UNL     1      34.430 -19.916 -20.099  0.00  0.00    -0.001 C 
ATOM      5  C   UNL     1      36.843 -19.955 -19.981  0.00  0.00    -0.001 C 
ATOM      6  C   UNL     1      34.480 -18.665 -20.715  0.00  0.00    +0.037 C 
ATOM      7  C   UNL     1      36.893 -18.704 -20.597  0.00  0.00    +0.037 C 
BRANCH   3   8
ATOM      8  O   UNL     1      35.761 -16.839 -21.564  0.00  0.00    -0.453 OA
BRANCH   8  10
ATOM      9 BR   UNL     1      34.606 -13.952 -21.842  0.00  0.00    -0.046 Br
ATOM     10  C   UNL     1      35.023 -16.661 -22.722  0.00  0.00    +0.151 C 
ATOM     11  C   UNL     1      34.438 -15.439 -23.006  0.00  0.00    +0.069 C 
ATOM     12  C   UNL     1      34.896 -17.741 -23.578  0.00  0.00    +0.038 C 
ATOM     13  C   UNL     1      33.702 -15.293 -24.182  0.00  0.00    +0.010 C 
ATOM     14  C   UNL     1      34.160 -17.595 -24.754  0.00  0.00    +0.003 C 
ATOM     15  C   UNL     1      33.563 -16.371 -25.056  0.00  0.00    +0.001 C 
ENDBRANCH   8  10
ENDBRANCH   3   8
ENDBRANCH   1   2
BRANCH   1  16
ATOM     16  CA  UNL     1      35.535 -22.100 -17.758  0.00  0.00    +0.108 C 
ATOM     17  O   UNL     1      35.355 -22.642 -14.961  0.00  0.00    -0.270 OA
ATOM     18  N   UNL     1      34.448 -22.608 -17.102  0.00  0.00    -0.278 N 
ATOM     19  C   UNL     1      34.425 -22.849 -15.737  0.00  0.00    +0.249 C 
ATOM     20  H   UNL     1      33.641 -22.813 -17.627  0.00  0.00    +0.155 HD
BRANCH  19  21
ATOM     21  C   UNL     1      33.146 -23.382 -15.202  0.00  0.00    +0.054 C 
ATOM     22  C   UNL     1      33.162 -24.084 -14.015  0.00  0.00    +0.005 C 
ATOM     23  C   UNL     1      31.983 -23.154 -15.907  0.00  0.00    +0.005 C 
ATOM     24  C   UNL     1      31.962 -24.584 -13.512  0.00  0.00    +0.000 C 
ATOM     25  C   UNL     1      30.782 -23.654 -15.404  0.00  0.00    +0.000 C 
ATOM     26  C   UNL     1      30.771 -24.369 -14.206  0.00  0.00    +0.000 C 
ENDBRANCH  19  21
BRANCH  16  28
ATOM     27  OXT UNL     1      37.094 -20.650 -16.626  0.00  0.00    -0.244 OA
ATOM     28  C   UNL     1      36.749 -21.773 -16.964  0.00  0.00    +0.348 C 
BRANCH  28  29
ATOM     29  O   UNL     1      37.441 -22.895 -16.654  0.00  0.00    -0.476 OA
ATOM     30  H   UNL     1      37.551 -23.570 -17.295  0.00  0.00    +0.295 HD
ENDBRANCH  28  29
ENDBRANCH  16  28
ENDBRANCH   1  16
TORSDOF 7
ENDMDL
MODEL 7
REMARK VINA RESULT:     -11.1      4.014     10.082
REMARK  Name = 657131
REMARK  7 active torsions:
REMARK  status: ('A' for Active; 'I' for Inactive)
REMARK    1  A    between atoms: C_1  and  CA_2
REMARK    2  A    between atoms: C_1  and  C_3
REMARK    3  A    between atoms: CA_2  and  C_28
REMARK    4  A    between atoms: C_4  and  O_9
REMARK    5  A    between atoms: O_9  and  C_11
REMARK    6  A    between atoms: C_19  and  C_21
REMARK    7  A    between atoms: C_28  and  O_29
REMARK                            x       y       z     vdW  Elec       q    Type
REMARK                         _______ _______ _______ _____ _____    ______ ____
ROOT
ATOM      1  C   UNL     1      35.452 -18.341 -20.996  0.00  0.00    +0.074 C 
ENDROOT
BRANCH   1   2
ATOM      2  C   UNL     1      35.218 -19.578 -20.270  0.00  0.00    -0.016 C 
ATOM      3  C   UNL     1      34.772 -21.953 -18.877  0.00  0.00    +0.145 C 
ATOM      4  C   UNL     1      33.915 -20.021 -20.046  0.00  0.00    -0.001 C 
ATOM      5  C   UNL     1      36.299 -20.324 -19.798  0.00  0.00    -0.001 C 
ATOM      6  C   UNL     1      33.691 -21.209 -19.349  0.00  0.00    +0.037 C 
ATOM      7  C   UNL     1      36.075 -21.512 -19.102  0.00  0.00    +0.037 C 
BRANCH   3   8
ATOM      8  O   UNL     1      34.553 -23.112 -18.198  0.00  0.00    -0.453 OA
BRANCH   8  10
ATOM      9 BR   UNL     1      36.421 -22.860 -15.709  0.00  0.00    -0.046 Br
ATOM     10  C   UNL     1      33.856 -23.038 -17.004  0.00  0.00    +0.151 C 
ATOM     11  C   UNL     1      34.529 -22.923 -15.800  0.00  0.00    +0.069 C 
ATOM     12  C   UNL     1      32.474 -23.084 -17.061  0.00  0.00    +0.038 C 
ATOM     13  C   UNL     1      33.796 -22.851 -14.615  0.00  0.00    +0.010 C 
ATOM     14  C   UNL     1      31.741 -23.011 -15.876  0.00  0.00    +0.003 C 
ATOM     15  C   UNL     1      32.402 -22.895 -14.653  0.00  0.00    +0.001 C 
ENDBRANCH   8  10
ENDBRANCH   3   8
ENDBRANCH   1   2
BRANCH   1  16
ATOM     16  CA  UNL     1      34.941 -18.013 -22.206  0.00  0.00    +0.108 C 
ATOM     17  O   UNL     1      33.872 -17.192 -24.722  0.00  0.00    -0.270 OA
ATOM     18  N   UNL     1      34.721 -16.725 -22.608  0.00  0.00    -0.278 N 
ATOM     19  C   UNL     1      34.197 -16.392 -23.847  0.00  0.00    +0.249 C 
ATOM     20  H   UNL     1      34.946 -15.997 -21.985  0.00  0.00    +0.155 HD
BRANCH  19  21
ATOM     21  C   UNL     1      34.009 -14.939 -24.094  0.00  0.00    +0.054 C 
ATOM     22  C   UNL     1      33.508 -14.531 -25.313  0.00  0.00    +0.005 C 
ATOM     23  C   UNL     1      34.337 -14.046 -23.096  0.00  0.00    +0.005 C 
ATOM     24  C   UNL     1      33.330 -13.167 -25.545  0.00  0.00    +0.000 C 
ATOM     25  C   UNL     1      34.159 -12.682 -23.328  0.00  0.00    +0.000 C 
ATOM     26  C   UNL     1      33.656 -12.243 -24.553  0.00  0.00    +0.000 C 
ENDBRANCH  19  21
BRANCH  16  28
ATOM     27  OXT UNL     1      35.378 -19.773 -23.795  0.00  0.00    -0.244 OA
ATOM     28  C   UNL     1      34.584 -19.114 -23.140  0.00  0.00    +0.348 C 
BRANCH  28  29
ATOM     29  O   UNL     1      33.243 -19.301 -23.178  0.00  0.00    -0.476 OA
ATOM     30  H   UNL     1      32.882 -20.002 -23.683  0.00  0.00    +0.295 HD
ENDBRANCH  28  29
ENDBRANCH  16  28
ENDBRANCH   1  16
TORSDOF 7
ENDMDL
MODEL 8
REMARK VINA RESULT:     -11.0      3.701     10.294
REMARK  Name = 657131
REMARK  7 active torsions:
REMARK  status: ('A' for Active; 'I' for Inactive)
REMARK    1  A    between atoms: C_1  and  CA_2
REMARK    2  A    between atoms: C_1  and  C_3
REMARK    3  A    between atoms: CA_2  and  C_28
REMARK    4  A    between atoms: C_4  and  O_9
REMARK    5  A    between atoms: O_9  and  C_11
REMARK    6  A    between atoms: C_19  and  C_21
REMARK    7  A    between atoms: C_28  and  O_29
REMARK                            x       y       z     vdW  Elec       q    Type
REMARK                         _______ _______ _______ _____ _____    ______ ____
ROOT
ATOM      1  C   UNL     1      31.524 -11.546 -21.049  0.00  0.00    +0.074 C 
ENDROOT
BRANCH   1   2
ATOM      2  C   UNL     1      32.528 -12.529 -21.422  0.00  0.00    -0.016 C 
ATOM      3  C   UNL     1      34.455 -14.414 -22.139  0.00  0.00    +0.145 C 
ATOM      4  C   UNL     1      32.985 -13.452 -20.481  0.00  0.00    -0.001 C 
ATOM      5  C   UNL     1      33.035 -12.549 -22.722  0.00  0.00    -0.001 C 
ATOM      6  C   UNL     1      33.949 -14.395 -20.840  0.00  0.00    +0.037 C 
ATOM      7  C   UNL     1      33.999 -13.492 -23.080  0.00  0.00    +0.037 C 
BRANCH   3   8
ATOM      8  O   UNL     1      35.395 -15.334 -22.488  0.00  0.00    -0.453 OA
BRANCH   8  10
ATOM      9 BR   UNL     1      35.849 -17.830 -20.669  0.00  0.00    -0.046 Br
ATOM     10  C   UNL     1      34.957 -16.514 -23.068  0.00  0.00    +0.151 C 
ATOM     11  C   UNL     1      35.082 -17.719 -22.398  0.00  0.00    +0.069 C 
ATOM     12  C   UNL     1      34.395 -16.441 -24.331  0.00  0.00    +0.038 C 
ATOM     13  C   UNL     1      34.631 -18.888 -23.011  0.00  0.00    +0.010 C 
ATOM     14  C   UNL     1      33.944 -17.611 -24.943  0.00  0.00    +0.003 C 
ATOM     15  C   UNL     1      34.062 -18.834 -24.283  0.00  0.00    +0.001 C 
ENDBRANCH   8  10
ENDBRANCH   3   8
ENDBRANCH   1   2
BRANCH   1  16
ATOM     16  CA  UNL     1      31.754 -10.258 -20.705  0.00  0.00    +0.108 C 
ATOM     17  O   UNL     1      32.246  -7.509 -20.110  0.00  0.00    -0.270 OA
ATOM     18  N   UNL     1      31.956  -9.258 -21.615  0.00  0.00    -0.278 N 
ATOM     19  C   UNL     1      32.190  -7.939 -21.260  0.00  0.00    +0.249 C 
ATOM     20  H   UNL     1      31.933  -9.487 -22.572  0.00  0.00    +0.155 HD
BRANCH  19  21
ATOM     21  C   UNL     1      32.409  -7.000 -22.390  0.00  0.00    +0.054 C 
ATOM     22  C   UNL     1      33.687  -6.541 -22.636  0.00  0.00    +0.005 C 
ATOM     23  C   UNL     1      31.330  -6.619 -23.159  0.00  0.00    +0.005 C 
ATOM     24  C   UNL     1      33.893  -5.660 -23.697  0.00  0.00    +0.000 C 
ATOM     25  C   UNL     1      31.536  -5.738 -24.221  0.00  0.00    +0.000 C 
ATOM     26  C   UNL     1      32.819  -5.258 -24.489  0.00  0.00    +0.000 C 
ENDBRANCH  19  21
BRANCH  16  28
ATOM     27  OXT UNL     1      32.820  -9.850 -18.581  0.00  0.00    -0.244 OA
ATOM     28  C   UNL     1      31.805  -9.915 -19.259  0.00  0.00    +0.348 C 
BRANCH  28  29
ATOM     29  O   UNL     1      30.563  -9.681 -18.772  0.00  0.00    -0.476 OA
ATOM     30  H   UNL     1      30.113  -8.891 -18.998  0.00  0.00    +0.295 HD
ENDBRANCH  28  29
ENDBRANCH  16  28
ENDBRANCH   1  16
TORSDOF 7
ENDMDL
MODEL 9
REMARK VINA RESULT:     -10.8      3.281      9.598
REMARK  Name = 657131
REMARK  7 active torsions:
REMARK  status: ('A' for Active; 'I' for Inactive)
REMARK    1  A    between atoms: C_1  and  CA_2
REMARK    2  A    between atoms: C_1  and  C_3
REMARK    3  A    between atoms: CA_2  and  C_28
REMARK    4  A    between atoms: C_4  and  O_9
REMARK    5  A    between atoms: O_9  and  C_11
REMARK    6  A    between atoms: C_19  and  C_21
REMARK    7  A    between atoms: C_28  and  O_29
REMARK                            x       y       z     vdW  Elec       q    Type
REMARK                         _______ _______ _______ _____ _____    ______ ____
ROOT
ATOM      1  C   UNL     1      36.063 -17.184 -21.838  0.00  0.00    +0.074 C 
ENDROOT
BRANCH   1   2
ATOM      2  C   UNL     1      35.751 -18.398 -21.104  0.00  0.00    -0.016 C 
ATOM      3  C   UNL     1      35.150 -20.729 -19.693  0.00  0.00    +0.145 C 
ATOM      4  C   UNL     1      36.776 -19.153 -20.534  0.00  0.00    -0.001 C 
ATOM      5  C   UNL     1      34.425 -18.809 -20.968  0.00  0.00    -0.001 C 
ATOM      6  C   UNL     1      36.476 -20.319 -19.828  0.00  0.00    +0.037 C 
ATOM      7  C   UNL     1      34.124 -19.975 -20.262  0.00  0.00    +0.037 C 
BRANCH   3   8
ATOM      8  O   UNL     1      34.857 -21.865 -19.004  0.00  0.00    -0.453 OA
BRANCH   8  10
ATOM      9 BR   UNL     1      32.917 -23.178 -16.941  0.00  0.00    -0.046 Br
ATOM     10  C   UNL     1      35.426 -22.025 -17.752  0.00  0.00    +0.151 C 
ATOM     11  C   UNL     1      34.705 -22.592 -16.715  0.00  0.00    +0.069 C 
ATOM     12  C   UNL     1      36.732 -21.599 -17.578  0.00  0.00    +0.038 C 
ATOM     13  C   UNL     1      35.309 -22.737 -15.466  0.00  0.00    +0.010 C 
ATOM     14  C   UNL     1      37.335 -21.745 -16.329  0.00  0.00    +0.003 C 
ATOM     15  C   UNL     1      36.623 -22.314 -15.273  0.00  0.00    +0.001 C 
ENDBRANCH   8  10
ENDBRANCH   3   8
ENDBRANCH   1   2
BRANCH   1  16
ATOM     16  CA  UNL     1      35.183 -16.407 -22.512  0.00  0.00    +0.108 C 
ATOM     17  O   UNL     1      33.314 -14.691 -23.820  0.00  0.00    -0.270 OA
ATOM     18  N   UNL     1      34.572 -15.312 -21.966  0.00  0.00    -0.278 N 
ATOM     19  C   UNL     1      33.671 -14.517 -22.657  0.00  0.00    +0.249 C 
ATOM     20  H   UNL     1      34.784 -15.076 -21.034  0.00  0.00    +0.155 HD
BRANCH  19  21
ATOM     21  C   UNL     1      33.094 -13.384 -21.888  0.00  0.00    +0.054 C 
ATOM     22  C   UNL     1      32.922 -12.170 -22.520  0.00  0.00    +0.005 C 
ATOM     23  C   UNL     1      32.747 -13.583 -20.569  0.00  0.00    +0.005 C 
ATOM     24  C   UNL     1      32.380 -11.107 -21.799  0.00  0.00    +0.000 C 
ATOM     25  C   UNL     1      32.205 -12.519 -19.847  0.00  0.00    +0.000 C 
ATOM     26  C   UNL     1      32.022 -11.281 -20.463  0.00  0.00    +0.000 C 
ENDBRANCH  19  21
BRANCH  16  28
ATOM     27  OXT UNL     1      34.101 -17.679 -24.251  0.00  0.00    -0.244 OA
ATOM     28  C   UNL     1      34.850 -16.774 -23.913  0.00  0.00    +0.348 C 
BRANCH  28  29
ATOM     29  O   UNL     1      35.493 -15.967 -24.790  0.00  0.00    -0.476 OA
ATOM     30  H   UNL     1      36.011 -15.252 -24.476  0.00  0.00    +0.295 HD
ENDBRANCH  28  29
ENDBRANCH  16  28
ENDBRANCH   1  16
TORSDOF 7
ENDMDL
