MODEL 1
REMARK VINA RESULT:     -11.7      0.000      0.000
REMARK  Name = 46937030
REMARK  7 active torsions:
REMARK  status: ('A' for Active; 'I' for Inactive)
REMARK    1  A    between atoms: C_3  and  C_10
REMARK    2  A    between atoms: C_7  and  C_25
REMARK    3  A    between atoms: N_9  and  C_12
REMARK    4  A    between atoms: C_12  and  C_13
REMARK    5  A    between atoms: C_18  and  C_21
REMARK    6  A    between atoms: C_25  and  N_26
REMARK    7  A    between atoms: N_26  and  C_29
REMARK                            x       y       z     vdW  Elec       q    Type
REMARK                         _______ _______ _______ _____ _____    ______ ____
ROOT
ATOM      1  O   UNL     1      35.100 -25.153 -11.361  0.00  0.00    -0.277 OA
ATOM      2  N   UNL     1      35.874 -23.980 -13.194  0.00  0.00    -0.275 N 
ATOM      3  C   UNL     1      35.766 -22.951 -14.227  0.00  0.00    +0.152 C 
ATOM      4  C   UNL     1      37.210 -22.602 -14.571  0.00  0.00    +0.031 C 
ATOM      5  C   UNL     1      37.241 -24.474 -13.089  0.00  0.00    +0.094 C 
ATOM      6  C   UNL     1      37.964 -23.901 -14.297  0.00  0.00    +0.024 C 
ATOM      7  C   UNL     1      34.897 -24.375 -12.294  0.00  0.00    +0.204 C 
ENDROOT
BRANCH   3  10
ATOM      8  O   UNL     1      34.853 -24.761 -15.488  0.00  0.00    -0.273 OA
ATOM      9  N   UNL     1      34.747 -22.609 -16.367  0.00  0.00    -0.299 N 
ATOM     10  C   UNL     1      35.071 -23.555 -15.410  0.00  0.00    +0.241 C 
ATOM     11  H   UNL     1      34.974 -21.667 -16.190  0.00  0.00    +0.150 HD
BRANCH   9  12
ATOM     12  C   UNL     1      34.092 -22.935 -17.613  0.00  0.00    +0.116 C 
BRANCH  12  13
ATOM     13  C   UNL     1      34.288 -21.865 -18.648  0.00  0.00    -0.003 C 
ATOM     14  C   UNL     1      33.182 -21.206 -19.186  0.00  0.00    -0.003 C 
ATOM     15  C   UNL     1      35.574 -21.531 -19.071  0.00  0.00    -0.003 C 
ATOM     16  C   UNL     1      33.364 -20.211 -20.148  0.00  0.00    +0.002 C 
ATOM     17  C   UNL     1      35.755 -20.537 -20.033  0.00  0.00    +0.002 C 
ATOM     18  C   UNL     1      34.650 -19.877 -20.571  0.00  0.00    +0.031 C 
BRANCH  18  21
ATOM     19  N   UNL     1      35.362 -17.593 -21.235  0.00  0.00    -0.343 N 
ATOM     20  N   UNL     1      34.510 -19.071 -22.831  0.00  0.00    -0.285 NA
ATOM     21  C   UNL     1      34.840 -18.840 -21.573  0.00  0.00    +0.117 C 
ATOM     22  H   UNL     1      35.483 -16.906 -21.930  0.00  0.00    +0.144 HD
ATOM     23  H   UNL     1      35.612 -17.399 -20.303  0.00  0.00    +0.144 HD
ATOM     24  H   UNL     1      34.637 -18.370 -23.510  0.00  0.00    +0.188 HD
ENDBRANCH  18  21
ENDBRANCH  12  13
ENDBRANCH   9  12
ENDBRANCH   3  10
BRANCH   7  25
ATOM     25  C   UNL     1      33.523 -23.792 -12.509  0.00  0.00    +0.006 C 
BRANCH  25  26
ATOM     26  N   UNL     1      32.701 -24.842 -13.088  0.00  0.00    +0.391 N 
ATOM     27  H   UNL     1      32.991 -25.001 -14.053  0.00  0.00    -0.084 HD
ATOM     28  H   UNL     1      32.821 -25.694 -12.539  0.00  0.00    -0.084 HD
BRANCH  26  29
ATOM     29  C   UNL     1      31.286 -24.461 -13.066  0.00  0.00    -0.061 C 
ATOM     30  C   UNL     1      31.131 -22.963 -13.361  0.00  0.00    -0.021 C 
ATOM     31  C   UNL     1      30.497 -25.428 -13.961  0.00  0.00    -0.021 C 
ATOM     32  C   UNL     1      29.038 -25.036 -14.203  0.00  0.00    -0.002 C 
ATOM     33  C   UNL     1      31.594 -22.459 -14.729  0.00  0.00    -0.002 C 
ATOM     34  C   UNL     1      28.764 -24.431 -15.582  0.00  0.00    -0.000 C 
ATOM     35  C   UNL     1      30.868 -22.996 -15.962  0.00  0.00    -0.000 C 
ATOM     36  C   UNL     1      29.343 -23.040 -15.853  0.00  0.00    -0.000 C 
ENDBRANCH  26  29
ENDBRANCH  25  26
ENDBRANCH   7  25
TORSDOF 7
ENDMDL
MODEL 2
REMARK VINA RESULT:     -10.3      2.155      6.684
REMARK  Name = 46937030
REMARK  7 active torsions:
REMARK  status: ('A' for Active; 'I' for Inactive)
REMARK    1  A    between atoms: C_3  and  C_10
REMARK    2  A    between atoms: C_7  and  C_25
REMARK    3  A    between atoms: N_9  and  C_12
REMARK    4  A    between atoms: C_12  and  C_13
REMARK    5  A    between atoms: C_18  and  C_21
REMARK    6  A    between atoms: C_25  and  N_26
REMARK    7  A    between atoms: N_26  and  C_29
REMARK                            x       y       z     vdW  Elec       q    Type
REMARK                         _______ _______ _______ _____ _____    ______ ____
ROOT
ATOM      1  O   UNL     1      38.245 -22.454 -15.744  0.00  0.00    -0.277 OA
ATOM      2  N   UNL     1      37.263 -24.227 -14.636  0.00  0.00    -0.275 N 
ATOM      3  C   UNL     1      36.178 -25.176 -14.393  0.00  0.00    +0.152 C 
ATOM      4  C   UNL     1      36.866 -26.397 -13.790  0.00  0.00    +0.031 C 
ATOM      5  C   UNL     1      38.491 -24.657 -13.979  0.00  0.00    +0.094 C 
ATOM      6  C   UNL     1      38.075 -25.802 -13.070  0.00  0.00    +0.024 C 
ATOM      7  C   UNL     1      37.249 -23.132 -15.485  0.00  0.00    +0.204 C 
ENDROOT
BRANCH   3  10
ATOM      8  O   UNL     1      35.636 -23.891 -12.456  0.00  0.00    -0.273 OA
ATOM      9  N   UNL     1      33.912 -24.849 -13.692  0.00  0.00    -0.299 N 
ATOM     10  C   UNL     1      35.235 -24.558 -13.406  0.00  0.00    +0.241 C 
ATOM     11  H   UNL     1      33.713 -25.396 -14.487  0.00  0.00    +0.150 HD
BRANCH   9  12
ATOM     12  C   UNL     1      32.807 -24.391 -12.881  0.00  0.00    +0.116 C 
BRANCH  12  13
ATOM     13  C   UNL     1      31.572 -24.147 -13.700  0.00  0.00    -0.003 C 
ATOM     14  C   UNL     1      31.542 -23.096 -14.618  0.00  0.00    -0.003 C 
ATOM     15  C   UNL     1      30.457 -24.968 -13.542  0.00  0.00    -0.003 C 
ATOM     16  C   UNL     1      30.395 -22.868 -15.379  0.00  0.00    +0.002 C 
ATOM     17  C   UNL     1      29.310 -24.741 -14.304  0.00  0.00    +0.002 C 
ATOM     18  C   UNL     1      29.279 -23.691 -15.222  0.00  0.00    +0.031 C 
BRANCH  18  21
ATOM     19  N   UNL     1      27.249 -22.368 -15.762  0.00  0.00    -0.343 N 
ATOM     20  N   UNL     1      27.770 -24.283 -16.996  0.00  0.00    -0.285 NA
ATOM     21  C   UNL     1      28.084 -23.455 -16.015  0.00  0.00    +0.117 C 
ATOM     22  H   UNL     1      26.445 -22.227 -16.313  0.00  0.00    +0.144 HD
ATOM     23  H   UNL     1      27.464 -21.741 -15.034  0.00  0.00    +0.144 HD
ATOM     24  H   UNL     1      26.961 -24.124 -17.534  0.00  0.00    +0.188 HD
ENDBRANCH  18  21
ENDBRANCH  12  13
ENDBRANCH   9  12
ENDBRANCH   3  10
BRANCH   7  25
ATOM     25  C   UNL     1      35.917 -22.791 -16.104  0.00  0.00    +0.006 C 
BRANCH  25  26
ATOM     26  N   UNL     1      36.064 -21.490 -16.738  0.00  0.00    +0.391 N 
ATOM     27  H   UNL     1      35.255 -20.912 -16.508  0.00  0.00    -0.084 HD
ATOM     28  H   UNL     1      36.919 -21.052 -16.395  0.00  0.00    -0.084 HD
BRANCH  26  29
ATOM     29  C   UNL     1      36.157 -21.634 -18.194  0.00  0.00    -0.061 C 
ATOM     30  C   UNL     1      34.942 -22.401 -18.734  0.00  0.00    -0.021 C 
ATOM     31  C   UNL     1      36.436 -20.256 -18.812  0.00  0.00    -0.021 C 
ATOM     32  C   UNL     1      36.357 -20.208 -20.339  0.00  0.00    -0.002 C 
ATOM     33  C   UNL     1      33.563 -21.767 -18.546  0.00  0.00    -0.002 C 
ATOM     34  C   UNL     1      35.080 -19.567 -20.888  0.00  0.00    -0.000 C 
ATOM     35  C   UNL     1      33.299 -20.432 -19.241  0.00  0.00    -0.000 C 
ATOM     36  C   UNL     1      33.777 -20.346 -20.691  0.00  0.00    -0.000 C 
ENDBRANCH  26  29
ENDBRANCH  25  26
ENDBRANCH   7  25
TORSDOF 7
ENDMDL
MODEL 3
REMARK VINA RESULT:      -9.5      7.088     12.482
REMARK  Name = 46937030
REMARK  7 active torsions:
REMARK  status: ('A' for Active; 'I' for Inactive)
REMARK    1  A    between atoms: C_3  and  C_10
REMARK    2  A    between atoms: C_7  and  C_25
REMARK    3  A    between atoms: N_9  and  C_12
REMARK    4  A    between atoms: C_12  and  C_13
REMARK    5  A    between atoms: C_18  and  C_21
REMARK    6  A    between atoms: C_25  and  N_26
REMARK    7  A    between atoms: N_26  and  C_29
REMARK                            x       y       z     vdW  Elec       q    Type
REMARK                         _______ _______ _______ _____ _____    ______ ____
ROOT
ATOM      1  O   UNL     1      33.253 -11.881 -24.271  0.00  0.00    -0.277 OA
ATOM      2  N   UNL     1      33.641 -14.159 -24.262  0.00  0.00    -0.275 N 
ATOM      3  C   UNL     1      33.529 -15.500 -23.693  0.00  0.00    +0.152 C 
ATOM      4  C   UNL     1      33.634 -16.434 -24.894  0.00  0.00    +0.031 C 
ATOM      5  C   UNL     1      34.081 -14.214 -25.650  0.00  0.00    +0.094 C 
ATOM      6  C   UNL     1      34.508 -15.655 -25.874  0.00  0.00    +0.024 C 
ATOM      7  C   UNL     1      33.255 -12.962 -23.679  0.00  0.00    +0.204 C 
ENDROOT
BRANCH   3  10
ATOM      8  O   UNL     1      35.255 -14.762 -22.217  0.00  0.00    -0.273 OA
ATOM      9  N   UNL     1      35.016 -17.041 -22.623  0.00  0.00    -0.299 N 
ATOM     10  C   UNL     1      34.685 -15.704 -22.760  0.00  0.00    +0.241 C 
ATOM     11  H   UNL     1      34.483 -17.710 -23.110  0.00  0.00    +0.150 HD
BRANCH   9  12
ATOM     12  C   UNL     1      36.109 -17.505 -21.797  0.00  0.00    +0.116 C 
BRANCH  12  13
ATOM     13  C   UNL     1      35.723 -18.699 -20.973  0.00  0.00    -0.003 C 
ATOM     14  C   UNL     1      34.388 -19.101 -20.912  0.00  0.00    -0.003 C 
ATOM     15  C   UNL     1      36.697 -19.405 -20.268  0.00  0.00    -0.003 C 
ATOM     16  C   UNL     1      34.028 -20.210 -20.146  0.00  0.00    +0.002 C 
ATOM     17  C   UNL     1      36.338 -20.514 -19.502  0.00  0.00    +0.002 C 
ATOM     18  C   UNL     1      35.003 -20.917 -19.441  0.00  0.00    +0.031 C 
BRANCH  18  21
ATOM     19  N   UNL     1      33.519 -22.850 -18.968  0.00  0.00    -0.343 N 
ATOM     20  N   UNL     1      35.346 -22.402 -17.583  0.00  0.00    -0.285 NA
ATOM     21  C   UNL     1      34.629 -22.073 -18.643  0.00  0.00    +0.117 C 
ATOM     22  H   UNL     1      33.284 -23.629 -18.414  0.00  0.00    +0.144 HD
ATOM     23  H   UNL     1      32.970 -22.620 -19.752  0.00  0.00    +0.144 HD
ATOM     24  H   UNL     1      35.094 -23.185 -17.041  0.00  0.00    +0.188 HD
ENDBRANCH  18  21
ENDBRANCH  12  13
ENDBRANCH   9  12
ENDBRANCH   3  10
BRANCH   7  25
ATOM     25  C   UNL     1      32.819 -13.037 -22.238  0.00  0.00    +0.006 C 
BRANCH  25  26
ATOM     26  N   UNL     1      33.163 -11.766 -21.623  0.00  0.00    +0.391 N 
ATOM     27  H   UNL     1      33.436 -11.925 -20.652  0.00  0.00    -0.084 HD
ATOM     28  H   UNL     1      33.935 -11.347 -22.141  0.00  0.00    -0.084 HD
BRANCH  26  29
ATOM     29  C   UNL     1      32.019 -10.850 -21.658  0.00  0.00    -0.061 C 
ATOM     30  C   UNL     1      31.288 -10.854 -20.308  0.00  0.00    -0.021 C 
ATOM     31  C   UNL     1      32.490  -9.486 -22.186  0.00  0.00    -0.021 C 
ATOM     32  C   UNL     1      31.453  -8.365 -22.088  0.00  0.00    -0.002 C 
ATOM     33  C   UNL     1      32.065 -10.375 -19.081  0.00  0.00    -0.002 C 
ATOM     34  C   UNL     1      31.697  -7.373 -20.948  0.00  0.00    -0.000 C 
ATOM     35  C   UNL     1      32.533  -8.920 -19.066  0.00  0.00    -0.000 C 
ATOM     36  C   UNL     1      31.494  -7.896 -19.523  0.00  0.00    -0.000 C 
ENDBRANCH  26  29
ENDBRANCH  25  26
ENDBRANCH   7  25
TORSDOF 7
ENDMDL
MODEL 4
REMARK VINA RESULT:      -9.5      2.059      5.199
REMARK  Name = 46937030
REMARK  7 active torsions:
REMARK  status: ('A' for Active; 'I' for Inactive)
REMARK    1  A    between atoms: C_3  and  C_10
REMARK    2  A    between atoms: C_7  and  C_25
REMARK    3  A    between atoms: N_9  and  C_12
REMARK    4  A    between atoms: C_12  and  C_13
REMARK    5  A    between atoms: C_18  and  C_21
REMARK    6  A    between atoms: C_25  and  N_26
REMARK    7  A    between atoms: N_26  and  C_29
REMARK                            x       y       z     vdW  Elec       q    Type
REMARK                         _______ _______ _______ _____ _____    ______ ____
ROOT
ATOM      1  O   UNL     1      32.781 -23.493 -13.072  0.00  0.00    -0.277 OA
ATOM      2  N   UNL     1      33.286 -23.268 -15.315  0.00  0.00    -0.275 N 
ATOM      3  C   UNL     1      34.115 -23.500 -16.497  0.00  0.00    +0.152 C 
ATOM      4  C   UNL     1      33.142 -23.409 -17.668  0.00  0.00    +0.031 C 
ATOM      5  C   UNL     1      31.968 -22.772 -15.689  0.00  0.00    +0.094 C 
ATOM      6  C   UNL     1      32.074 -22.439 -17.168  0.00  0.00    +0.024 C 
ATOM      7  C   UNL     1      33.584 -23.594 -14.001  0.00  0.00    +0.204 C 
ENDROOT
BRANCH   3  10
ATOM      8  O   UNL     1      35.465 -21.760 -15.576  0.00  0.00    -0.273 OA
ATOM      9  N   UNL     1      35.613 -22.217 -17.854  0.00  0.00    -0.299 N 
ATOM     10  C   UNL     1      35.135 -22.405 -16.568  0.00  0.00    +0.241 C 
ATOM     11  H   UNL     1      35.272 -22.800 -18.571  0.00  0.00    +0.150 HD
BRANCH   9  12
ATOM     12  C   UNL     1      36.588 -21.207 -18.196  0.00  0.00    +0.116 C 
BRANCH  12  13
ATOM     13  C   UNL     1      36.170 -20.405 -19.395  0.00  0.00    -0.003 C 
ATOM     14  C   UNL     1      34.869 -20.515 -19.887  0.00  0.00    -0.003 C 
ATOM     15  C   UNL     1      37.081 -19.551 -20.016  0.00  0.00    -0.003 C 
ATOM     16  C   UNL     1      34.480 -19.770 -21.000  0.00  0.00    +0.002 C 
ATOM     17  C   UNL     1      36.692 -18.806 -21.129  0.00  0.00    +0.002 C 
ATOM     18  C   UNL     1      35.391 -18.916 -21.621  0.00  0.00    +0.031 C 
BRANCH  18  21
ATOM     19  N   UNL     1      35.565 -16.903 -23.065  0.00  0.00    -0.343 N 
ATOM     20  N   UNL     1      34.045 -18.600 -23.587  0.00  0.00    -0.285 NA
ATOM     21  C   UNL     1      34.985 -18.139 -22.781  0.00  0.00    +0.117 C 
ATOM     22  H   UNL     1      35.275 -16.394 -23.856  0.00  0.00    +0.144 HD
ATOM     23  H   UNL     1      36.264 -16.541 -22.475  0.00  0.00    +0.144 HD
ATOM     24  H   UNL     1      33.769 -18.075 -24.373  0.00  0.00    +0.188 HD
ENDBRANCH  18  21
ENDBRANCH  12  13
ENDBRANCH   9  12
ENDBRANCH   3  10
BRANCH   7  25
ATOM     25  C   UNL     1      34.982 -24.097 -13.744  0.00  0.00    +0.006 C 
BRANCH  25  26
ATOM     26  N   UNL     1      35.632 -23.124 -12.882  0.00  0.00    +0.391 N 
ATOM     27  H   UNL     1      35.255 -22.196 -13.079  0.00  0.00    -0.084 HD
ATOM     28  H   UNL     1      35.456 -23.376 -11.909  0.00  0.00    -0.084 HD
BRANCH  26  29
ATOM     29  C   UNL     1      37.080 -23.115 -13.114  0.00  0.00    -0.061 C 
ATOM     30  C   UNL     1      37.828 -23.541 -11.844  0.00  0.00    -0.021 C 
ATOM     31  C   UNL     1      37.382 -23.908 -14.395  0.00  0.00    -0.021 C 
ATOM     32  C   UNL     1      38.867 -24.162 -14.659  0.00  0.00    -0.002 C 
ATOM     33  C   UNL     1      37.581 -24.955 -11.317  0.00  0.00    -0.002 C 
ATOM     34  C   UNL     1      39.333 -25.586 -14.344  0.00  0.00    -0.000 C 
ATOM     35  C   UNL     1      37.994 -26.124 -12.211  0.00  0.00    -0.000 C 
ATOM     36  C   UNL     1      39.369 -25.989 -12.867  0.00  0.00    -0.000 C 
ENDBRANCH  26  29
ENDBRANCH  25  26
ENDBRANCH   7  25
TORSDOF 7
ENDMDL
MODEL 5
REMARK VINA RESULT:      -9.5      2.960      5.556
REMARK  Name = 46937030
REMARK  7 active torsions:
REMARK  status: ('A' for Active; 'I' for Inactive)
REMARK    1  A    between atoms: C_3  and  C_10
REMARK    2  A    between atoms: C_7  and  C_25
REMARK    3  A    between atoms: N_9  and  C_12
REMARK    4  A    between atoms: C_12  and  C_13
REMARK    5  A    between atoms: C_18  and  C_21
REMARK    6  A    between atoms: C_25  and  N_26
REMARK    7  A    between atoms: N_26  and  C_29
REMARK                            x       y       z     vdW  Elec       q    Type
REMARK                         _______ _______ _______ _____ _____    ______ ____
ROOT
ATOM      1  O   UNL     1      34.296 -22.891 -14.782  0.00  0.00    -0.277 OA
ATOM      2  N   UNL     1      34.515 -22.510 -17.050  0.00  0.00    -0.275 N 
ATOM      3  C   UNL     1      35.245 -22.548 -18.317  0.00  0.00    +0.152 C 
ATOM      4  C   UNL     1      34.156 -22.606 -19.383  0.00  0.00    +0.031 C 
ATOM      5  C   UNL     1      33.097 -22.259 -17.271  0.00  0.00    +0.094 C 
ATOM      6  C   UNL     1      32.986 -21.868 -18.736  0.00  0.00    +0.024 C 
ATOM      7  C   UNL     1      35.003 -22.813 -15.789  0.00  0.00    +0.204 C 
ENDROOT
BRANCH   3  10
ATOM      8  O   UNL     1      36.740 -20.867 -17.516  0.00  0.00    -0.273 OA
ATOM      9  N   UNL     1      35.846 -20.656 -19.655  0.00  0.00    -0.299 N 
ATOM     10  C   UNL     1      36.035 -21.279 -18.433  0.00  0.00    +0.241 C 
ATOM     11  H   UNL     1      35.253 -21.085 -20.314  0.00  0.00    +0.150 HD
BRANCH   9  12
ATOM     12  C   UNL     1      36.476 -19.405 -20.011  0.00  0.00    +0.116 C 
BRANCH  12  13
ATOM     13  C   UNL     1      35.823 -18.766 -21.203  0.00  0.00    -0.003 C 
ATOM     14  C   UNL     1      35.076 -19.544 -22.088  0.00  0.00    -0.003 C 
ATOM     15  C   UNL     1      35.966 -17.397 -21.426  0.00  0.00    -0.003 C 
ATOM     16  C   UNL     1      34.470 -18.951 -23.196  0.00  0.00    +0.002 C 
ATOM     17  C   UNL     1      35.359 -16.804 -22.534  0.00  0.00    +0.002 C 
ATOM     18  C   UNL     1      34.611 -17.581 -23.418  0.00  0.00    +0.031 C 
BRANCH  18  21
ATOM     19  N   UNL     1      34.403 -15.727 -25.057  0.00  0.00    -0.343 N 
ATOM     20  N   UNL     1      32.977 -17.574 -25.180  0.00  0.00    -0.285 NA
ATOM     21  C   UNL     1      33.978 -16.963 -24.572  0.00  0.00    +0.117 C 
ATOM     22  H   UNL     1      33.961 -15.327 -25.840  0.00  0.00    +0.144 HD
ATOM     23  H   UNL     1      35.146 -15.255 -24.616  0.00  0.00    +0.144 HD
ATOM     24  H   UNL     1      32.547 -17.156 -25.962  0.00  0.00    +0.188 HD
ENDBRANCH  18  21
ENDBRANCH  12  13
ENDBRANCH   9  12
ENDBRANCH   3  10
BRANCH   7  25
ATOM     25  C   UNL     1      36.488 -23.053 -15.692  0.00  0.00    +0.006 C 
BRANCH  25  26
ATOM     26  N   UNL     1      36.965 -22.310 -14.537  0.00  0.00    +0.391 N 
ATOM     27  H   UNL     1      37.513 -21.510 -14.856  0.00  0.00    -0.084 HD
ATOM     28  H   UNL     1      36.161 -21.992 -13.996  0.00  0.00    -0.084 HD
BRANCH  26  29
ATOM     29  C   UNL     1      37.802 -23.160 -13.686  0.00  0.00    -0.061 C 
ATOM     30  C   UNL     1      37.498 -22.900 -12.205  0.00  0.00    -0.021 C 
ATOM     31  C   UNL     1      37.689 -24.613 -14.172  0.00  0.00    -0.021 C 
ATOM     32  C   UNL     1      38.345 -25.650 -13.258  0.00  0.00    -0.002 C 
ATOM     33  C   UNL     1      36.087 -23.212 -11.706  0.00  0.00    -0.002 C 
ATOM     34  C   UNL     1      37.363 -26.454 -12.403  0.00  0.00    -0.000 C 
ATOM     35  C   UNL     1      35.622 -24.667 -11.768  0.00  0.00    -0.000 C 
ATOM     36  C   UNL     1      36.642 -25.698 -11.284  0.00  0.00    -0.000 C 
ENDBRANCH  26  29
ENDBRANCH  25  26
ENDBRANCH   7  25
TORSDOF 7
ENDMDL
MODEL 6
REMARK VINA RESULT:      -9.5      1.611      2.448
REMARK  Name = 46937030
REMARK  7 active torsions:
REMARK  status: ('A' for Active; 'I' for Inactive)
REMARK    1  A    between atoms: C_3  and  C_10
REMARK    2  A    between atoms: C_7  and  C_25
REMARK    3  A    between atoms: N_9  and  C_12
REMARK    4  A    between atoms: C_12  and  C_13
REMARK    5  A    between atoms: C_18  and  C_21
REMARK    6  A    between atoms: C_25  and  N_26
REMARK    7  A    between atoms: N_26  and  C_29
REMARK                            x       y       z     vdW  Elec       q    Type
REMARK                         _______ _______ _______ _____ _____    ______ ____
ROOT
ATOM      1  O   UNL     1      33.431 -24.907 -12.361  0.00  0.00    -0.277 OA
ATOM      2  N   UNL     1      35.520 -23.924 -12.447  0.00  0.00    -0.275 N 
ATOM      3  C   UNL     1      36.457 -22.882 -12.863  0.00  0.00    +0.152 C 
ATOM      4  C   UNL     1      37.536 -22.886 -11.784  0.00  0.00    +0.031 C 
ATOM      5  C   UNL     1      36.081 -24.734 -11.374  0.00  0.00    +0.094 C 
ATOM      6  C   UNL     1      37.545 -24.332 -11.297  0.00  0.00    +0.024 C 
ATOM      7  C   UNL     1      34.206 -24.087 -12.857  0.00  0.00    +0.204 C 
ENDROOT
BRANCH   3  10
ATOM      8  O   UNL     1      37.602 -24.358 -14.351  0.00  0.00    -0.273 OA
ATOM      9  N   UNL     1      36.858 -22.302 -15.151  0.00  0.00    -0.299 N 
ATOM     10  C   UNL     1      37.033 -23.282 -14.189  0.00  0.00    +0.241 C 
ATOM     11  H   UNL     1      36.382 -21.478 -14.901  0.00  0.00    +0.150 HD
BRANCH   9  12
ATOM     12  C   UNL     1      37.341 -22.431 -16.508  0.00  0.00    +0.116 C 
BRANCH  12  13
ATOM     13  C   UNL     1      36.364 -21.881 -17.507  0.00  0.00    -0.003 C 
ATOM     14  C   UNL     1      35.018 -22.242 -17.435  0.00  0.00    -0.003 C 
ATOM     15  C   UNL     1      36.802 -21.012 -18.505  0.00  0.00    -0.003 C 
ATOM     16  C   UNL     1      34.110 -21.733 -18.363  0.00  0.00    +0.002 C 
ATOM     17  C   UNL     1      35.893 -20.502 -19.433  0.00  0.00    +0.002 C 
ATOM     18  C   UNL     1      34.547 -20.862 -19.362  0.00  0.00    +0.031 C 
BRANCH  18  21
ATOM     19  N   UNL     1      32.227 -20.506 -20.171  0.00  0.00    -0.343 N 
ATOM     20  N   UNL     1      34.040 -19.667 -21.385  0.00  0.00    -0.285 NA
ATOM     21  C   UNL     1      33.601 -20.329 -20.329  0.00  0.00    +0.117 C 
ATOM     22  H   UNL     1      31.604 -20.136 -20.838  0.00  0.00    +0.144 HD
ATOM     23  H   UNL     1      31.880 -20.999 -19.393  0.00  0.00    +0.144 HD
ATOM     24  H   UNL     1      33.400 -19.307 -22.040  0.00  0.00    +0.188 HD
ENDBRANCH  18  21
ENDBRANCH  12  13
ENDBRANCH   9  12
ENDBRANCH   3  10
BRANCH   7  25
ATOM     25  C   UNL     1      33.745 -23.186 -13.975  0.00  0.00    +0.006 C 
BRANCH  25  26
ATOM     26  N   UNL     1      32.356 -22.850 -13.704  0.00  0.00    +0.391 N 
ATOM     27  H   UNL     1      31.991 -23.484 -12.992  0.00  0.00    -0.084 HD
ATOM     28  H   UNL     1      32.309 -21.886 -13.375  0.00  0.00    -0.084 HD
BRANCH  26  29
ATOM     29  C   UNL     1      31.549 -22.975 -14.921  0.00  0.00    -0.061 C 
ATOM     30  C   UNL     1      31.403 -24.450 -15.317  0.00  0.00    -0.021 C 
ATOM     31  C   UNL     1      30.249 -22.175 -14.739  0.00  0.00    -0.021 C 
ATOM     32  C   UNL     1      29.211 -22.375 -15.844  0.00  0.00    -0.002 C 
ATOM     33  C   UNL     1      30.682 -25.379 -14.340  0.00  0.00    -0.002 C 
ATOM     34  C   UNL     1      28.040 -23.282 -15.458  0.00  0.00    -0.000 C 
ATOM     35  C   UNL     1      29.210 -25.090 -14.046  0.00  0.00    -0.000 C 
ATOM     36  C   UNL     1      28.352 -24.769 -15.270  0.00  0.00    -0.000 C 
ENDBRANCH  26  29
ENDBRANCH  25  26
ENDBRANCH   7  25
TORSDOF 7
ENDMDL
MODEL 7
REMARK VINA RESULT:      -9.4      8.547     13.242
REMARK  Name = 46937030
REMARK  7 active torsions:
REMARK  status: ('A' for Active; 'I' for Inactive)
REMARK    1  A    between atoms: C_3  and  C_10
REMARK    2  A    between atoms: C_7  and  C_25
REMARK    3  A    between atoms: N_9  and  C_12
REMARK    4  A    between atoms: C_12  and  C_13
REMARK    5  A    between atoms: C_18  and  C_21
REMARK    6  A    between atoms: C_25  and  N_26
REMARK    7  A    between atoms: N_26  and  C_29
REMARK                            x       y       z     vdW  Elec       q    Type
REMARK                         _______ _______ _______ _____ _____    ______ ____
ROOT
ATOM      1  O   UNL     1      33.978 -16.200 -24.508  0.00  0.00    -0.277 OA
ATOM      2  N   UNL     1      33.884 -13.921 -24.141  0.00  0.00    -0.275 N 
ATOM      3  C   UNL     1      34.158 -12.709 -23.370  0.00  0.00    +0.152 C 
ATOM      4  C   UNL     1      34.189 -11.594 -24.410  0.00  0.00    +0.031 C 
ATOM      5  C   UNL     1      33.473 -13.594 -25.500  0.00  0.00    +0.094 C 
ATOM      6  C   UNL     1      33.235 -12.093 -25.493  0.00  0.00    +0.024 C 
ATOM      7  C   UNL     1      34.106 -15.233 -23.755  0.00  0.00    +0.204 C 
ENDROOT
BRANCH   3  10
ATOM      8  O   UNL     1      32.365 -13.448 -21.978  0.00  0.00    -0.273 OA
ATOM      9  N   UNL     1      32.827 -11.170 -22.109  0.00  0.00    -0.299 N 
ATOM     10  C   UNL     1      33.026 -12.507 -22.409  0.00  0.00    +0.241 C 
ATOM     11  H   UNL     1      33.425 -10.503 -22.517  0.00  0.00    +0.150 HD
BRANCH   9  12
ATOM     12  C   UNL     1      31.784 -10.705 -21.223  0.00  0.00    +0.116 C 
BRANCH  12  13
ATOM     13  C   UNL     1      31.637  -9.211 -21.265  0.00  0.00    -0.003 C 
ATOM     14  C   UNL     1      31.195  -8.586 -22.431  0.00  0.00    -0.003 C 
ATOM     15  C   UNL     1      31.944  -8.448 -20.138  0.00  0.00    -0.003 C 
ATOM     16  C   UNL     1      31.058  -7.198 -22.470  0.00  0.00    +0.002 C 
ATOM     17  C   UNL     1      31.807  -7.060 -20.177  0.00  0.00    +0.002 C 
ATOM     18  C   UNL     1      31.364  -6.436 -21.343  0.00  0.00    +0.031 C 
BRANCH  18  21
ATOM     19  N   UNL     1      30.012  -4.389 -21.729  0.00  0.00    -0.343 N 
ATOM     20  N   UNL     1      32.253  -4.217 -21.091  0.00  0.00    -0.285 NA
ATOM     21  C   UNL     1      31.221  -4.989 -21.383  0.00  0.00    +0.117 C 
ATOM     22  H   UNL     1      29.938  -3.408 -21.750  0.00  0.00    +0.144 HD
ATOM     23  H   UNL     1      29.232  -4.947 -21.953  0.00  0.00    +0.144 HD
ATOM     24  H   UNL     1      32.159  -3.238 -21.118  0.00  0.00    +0.188 HD
ENDBRANCH  18  21
ENDBRANCH  12  13
ENDBRANCH   9  12
ENDBRANCH   3  10
BRANCH   7  25
ATOM     25  C   UNL     1      34.529 -15.439 -22.322  0.00  0.00    +0.006 C 
BRANCH  25  26
ATOM     26  N   UNL     1      35.690 -16.314 -22.344  0.00  0.00    +0.391 N 
ATOM     27  H   UNL     1      36.267 -16.087 -23.154  0.00  0.00    -0.084 HD
ATOM     28  H   UNL     1      36.221 -16.178 -21.484  0.00  0.00    -0.084 HD
BRANCH  26  29
ATOM     29  C   UNL     1      35.276 -17.718 -22.426  0.00  0.00    -0.061 C 
ATOM     30  C   UNL     1      36.502 -18.631 -22.560  0.00  0.00    -0.021 C 
ATOM     31  C   UNL     1      34.311 -18.020 -21.269  0.00  0.00    -0.021 C 
ATOM     32  C   UNL     1      33.951 -19.497 -21.100  0.00  0.00    -0.002 C 
ATOM     33  C   UNL     1      37.505 -18.644 -21.406  0.00  0.00    -0.002 C 
ATOM     34  C   UNL     1      34.664 -20.195 -19.939  0.00  0.00    -0.000 C 
ATOM     35  C   UNL     1      37.013 -19.145 -20.049  0.00  0.00    -0.000 C 
ATOM     36  C   UNL     1      36.171 -20.421 -20.091  0.00  0.00    -0.000 C 
ENDBRANCH  26  29
ENDBRANCH  25  26
ENDBRANCH   7  25
TORSDOF 7
ENDMDL
MODEL 8
REMARK VINA RESULT:      -9.3      2.342      7.649
REMARK  Name = 46937030
REMARK  7 active torsions:
REMARK  status: ('A' for Active; 'I' for Inactive)
REMARK    1  A    between atoms: C_3  and  C_10
REMARK    2  A    between atoms: C_7  and  C_25
REMARK    3  A    between atoms: N_9  and  C_12
REMARK    4  A    between atoms: C_12  and  C_13
REMARK    5  A    between atoms: C_18  and  C_21
REMARK    6  A    between atoms: C_25  and  N_26
REMARK    7  A    between atoms: N_26  and  C_29
REMARK                            x       y       z     vdW  Elec       q    Type
REMARK                         _______ _______ _______ _____ _____    ______ ____
ROOT
ATOM      1  O   UNL     1      32.631 -23.919 -17.626  0.00  0.00    -0.277 OA
ATOM      2  N   UNL     1      32.182 -23.393 -15.422  0.00  0.00    -0.275 N 
ATOM      3  C   UNL     1      32.532 -22.844 -14.112  0.00  0.00    +0.152 C 
ATOM      4  C   UNL     1      31.197 -22.423 -13.506  0.00  0.00    +0.031 C 
ATOM      5  C   UNL     1      30.744 -23.593 -15.538  0.00  0.00    +0.094 C 
ATOM      6  C   UNL     1      30.201 -23.397 -14.132  0.00  0.00    +0.024 C 
ATOM      7  C   UNL     1      33.022 -23.579 -16.508  0.00  0.00    +0.204 C 
ENDROOT
BRANCH   3  10
ATOM      8  O   UNL     1      32.664 -25.063 -13.240  0.00  0.00    -0.273 OA
ATOM      9  N   UNL     1      34.307 -23.521 -12.656  0.00  0.00    -0.299 N 
ATOM     10  C   UNL     1      33.159 -23.941 -13.305  0.00  0.00    +0.241 C 
ATOM     11  H   UNL     1      34.608 -22.593 -12.787  0.00  0.00    +0.150 HD
BRANCH   9  12
ATOM     12  C   UNL     1      35.088 -24.381 -11.795  0.00  0.00    +0.116 C 
BRANCH  12  13
ATOM     13  C   UNL     1      36.376 -24.803 -12.442  0.00  0.00    -0.003 C 
ATOM     14  C   UNL     1      36.359 -25.411 -13.697  0.00  0.00    -0.003 C 
ATOM     15  C   UNL     1      37.589 -24.589 -11.787  0.00  0.00    -0.003 C 
ATOM     16  C   UNL     1      37.555 -25.804 -14.299  0.00  0.00    +0.002 C 
ATOM     17  C   UNL     1      38.785 -24.981 -12.388  0.00  0.00    +0.002 C 
ATOM     18  C   UNL     1      38.768 -25.588 -13.644  0.00  0.00    +0.031 C 
BRANCH  18  21
ATOM     19  N   UNL     1      40.977 -26.720 -13.567  0.00  0.00    -0.343 N 
ATOM     20  N   UNL     1      40.254 -25.678 -15.530  0.00  0.00    -0.285 NA
ATOM     21  C   UNL     1      40.015 -25.997 -14.271  0.00  0.00    +0.117 C 
ATOM     22  H   UNL     1      41.814 -26.986 -14.012  0.00  0.00    +0.144 HD
ATOM     23  H   UNL     1      40.819 -26.964 -12.627  0.00  0.00    +0.144 HD
ATOM     24  H   UNL     1      41.098 -25.953 -15.956  0.00  0.00    +0.188 HD
ENDBRANCH  18  21
ENDBRANCH  12  13
ENDBRANCH   9  12
ENDBRANCH   3  10
BRANCH   7  25
ATOM     25  C   UNL     1      34.490 -23.338 -16.260  0.00  0.00    +0.006 C 
BRANCH  25  26
ATOM     26  N   UNL     1      34.796 -22.012 -16.773  0.00  0.00    +0.391 N 
ATOM     27  H   UNL     1      33.926 -21.497 -16.910  0.00  0.00    -0.084 HD
ATOM     28  H   UNL     1      35.390 -21.528 -16.101  0.00  0.00    -0.084 HD
BRANCH  26  29
ATOM     29  C   UNL     1      35.507 -22.106 -18.052  0.00  0.00    -0.061 C 
ATOM     30  C   UNL     1      34.513 -22.300 -19.204  0.00  0.00    -0.021 C 
ATOM     31  C   UNL     1      36.479 -20.922 -18.167  0.00  0.00    -0.021 C 
ATOM     32  C   UNL     1      37.146 -20.769 -19.536  0.00  0.00    -0.002 C 
ATOM     33  C   UNL     1      33.502 -21.181 -19.463  0.00  0.00    -0.002 C 
ATOM     34  C   UNL     1      36.567 -19.646 -20.401  0.00  0.00    -0.000 C 
ATOM     35  C   UNL     1      34.050 -19.817 -19.880  0.00  0.00    -0.000 C 
ATOM     36  C   UNL     1      35.150 -19.854 -20.943  0.00  0.00    -0.000 C 
ENDBRANCH  26  29
ENDBRANCH  25  26
ENDBRANCH   7  25
TORSDOF 7
ENDMDL
MODEL 9
REMARK VINA RESULT:      -9.3      6.312     10.624
REMARK  Name = 46937030
REMARK  7 active torsions:
REMARK  status: ('A' for Active; 'I' for Inactive)
REMARK    1  A    between atoms: C_3  and  C_10
REMARK    2  A    between atoms: C_7  and  C_25
REMARK    3  A    between atoms: N_9  and  C_12
REMARK    4  A    between atoms: C_12  and  C_13
REMARK    5  A    between atoms: C_18  and  C_21
REMARK    6  A    between atoms: C_25  and  N_26
REMARK    7  A    between atoms: N_26  and  C_29
REMARK                            x       y       z     vdW  Elec       q    Type
REMARK                         _______ _______ _______ _____ _____    ______ ____
ROOT
ATOM      1  O   UNL     1      34.557 -18.962 -23.389  0.00  0.00    -0.277 OA
ATOM      2  N   UNL     1      34.609 -16.653 -23.338  0.00  0.00    -0.275 N 
ATOM      3  C   UNL     1      35.165 -15.368 -22.917  0.00  0.00    +0.152 C 
ATOM      4  C   UNL     1      34.772 -14.400 -24.029  0.00  0.00    +0.031 C 
ATOM      5  C   UNL     1      33.687 -16.484 -24.453  0.00  0.00    +0.094 C 
ATOM      6  C   UNL     1      33.467 -14.984 -24.563  0.00  0.00    +0.024 C 
ATOM      7  C   UNL     1      34.973 -17.914 -22.892  0.00  0.00    +0.204 C 
ENDROOT
BRANCH   3  10
ATOM      8  O   UNL     1      34.880 -15.447 -20.548  0.00  0.00    -0.273 OA
ATOM      9  N   UNL     1      33.470 -14.091 -21.809  0.00  0.00    -0.299 N 
ATOM     10  C   UNL     1      34.512 -14.983 -21.624  0.00  0.00    +0.241 C 
ATOM     11  H   UNL     1      33.268 -13.788 -22.724  0.00  0.00    +0.150 HD
BRANCH   9  12
ATOM     12  C   UNL     1      32.662 -13.581 -20.724  0.00  0.00    +0.116 C 
BRANCH  12  13
ATOM     13  C   UNL     1      32.372 -12.116 -20.881  0.00  0.00    -0.003 C 
ATOM     14  C   UNL     1      32.691 -11.466 -22.074  0.00  0.00    -0.003 C 
ATOM     15  C   UNL     1      31.783 -11.405 -19.835  0.00  0.00    -0.003 C 
ATOM     16  C   UNL     1      32.421 -10.105 -22.220  0.00  0.00    +0.002 C 
ATOM     17  C   UNL     1      31.514 -10.044 -19.982  0.00  0.00    +0.002 C 
ATOM     18  C   UNL     1      31.832  -9.395 -21.174  0.00  0.00    +0.031 C 
BRANCH  18  21
ATOM     19  N   UNL     1      31.842  -7.066 -20.313  0.00  0.00    -0.343 N 
ATOM     20  N   UNL     1      31.002  -7.530 -22.443  0.00  0.00    -0.285 NA
ATOM     21  C   UNL     1      31.550  -7.976 -21.327  0.00  0.00    +0.117 C 
ATOM     22  H   UNL     1      31.642  -6.110 -20.438  0.00  0.00    +0.144 HD
ATOM     23  H   UNL     1      32.247  -7.379 -19.472  0.00  0.00    +0.144 HD
ATOM     24  H   UNL     1      30.809  -6.570 -22.548  0.00  0.00    +0.188 HD
ENDBRANCH  18  21
ENDBRANCH  12  13
ENDBRANCH   9  12
ENDBRANCH   3  10
BRANCH   7  25
ATOM     25  C   UNL     1      35.935 -17.955 -21.732  0.00  0.00    +0.006 C 
BRANCH  25  26
ATOM     26  N   UNL     1      35.168 -18.336 -20.557  0.00  0.00    +0.391 N 
ATOM     27  H   UNL     1      35.783 -18.347 -19.743  0.00  0.00    -0.084 HD
ATOM     28  H   UNL     1      34.416 -17.660 -20.421  0.00  0.00    -0.084 HD
BRANCH  26  29
ATOM     29  C   UNL     1      34.581 -19.668 -20.735  0.00  0.00    -0.061 C 
ATOM     30  C   UNL     1      35.670 -20.746 -20.667  0.00  0.00    -0.021 C 
ATOM     31  C   UNL     1      33.395 -19.820 -19.770  0.00  0.00    -0.021 C 
ATOM     32  C   UNL     1      32.806 -21.230 -19.692  0.00  0.00    -0.002 C 
ATOM     33  C   UNL     1      36.442 -20.892 -19.355  0.00  0.00    -0.002 C 
ATOM     34  C   UNL     1      33.198 -22.013 -18.436  0.00  0.00    -0.000 C 
ATOM     35  C   UNL     1      35.654 -21.307 -18.114  0.00  0.00    -0.000 C 
ATOM     36  C   UNL     1      34.661 -22.451 -18.325  0.00  0.00    -0.000 C 
ENDBRANCH  26  29
ENDBRANCH  25  26
ENDBRANCH   7  25
TORSDOF 7
ENDMDL
