MODEL 1
REMARK VINA RESULT:     -11.6      0.000      0.000
REMARK  Name = 28693
REMARK  5 active torsions:
REMARK  status: ('A' for Active; 'I' for Inactive)
REMARK    1  A    between atoms: C_6  and  C_20
REMARK    2  A    between atoms: C_20  and  N_22
REMARK    3  A    between atoms: C_23  and  O_25
REMARK    4  A    between atoms: O_25  and  C_26
REMARK    5  A    between atoms: C_26  and  C_27
REMARK                            x       y       z     vdW  Elec       q    Type
REMARK                         _______ _______ _______ _____ _____    ______ ____
ROOT
ATOM      1  N   UNL     1      32.525 -13.798 -20.907  0.00  0.00    +0.387 N 
ATOM      2  N   UNL     1      31.980  -7.803 -21.056  0.00  0.00    -0.284 N 
ATOM      3  C   UNL     1      33.089 -12.048 -22.624  0.00  0.00    +0.004 C 
ATOM      4  C   UNL     1      32.793 -12.350 -21.091  0.00  0.00    -0.050 C 
ATOM      5  C   UNL     1      34.258 -12.912 -23.117  0.00  0.00    +0.002 C 
ATOM      6  C   UNL     1      33.993 -14.392 -22.830  0.00  0.00    -0.001 C 
ATOM      7  C   UNL     1      31.632 -11.449 -20.519  0.00  0.00    +0.007 C 
ATOM      8  C   UNL     1      33.675 -14.608 -21.346  0.00  0.00    -0.076 C 
ATOM      9  C   UNL     1      33.302 -10.562 -22.860  0.00  0.00    -0.024 C 
ATOM     10  C   UNL     1      32.657  -9.685 -21.978  0.00  0.00    +0.007 C 
ATOM     11  C   UNL     1      31.861 -10.017 -20.863  0.00  0.00    -0.008 C 
ATOM     12  C   UNL     1      32.728  -8.310 -22.095  0.00  0.00    +0.051 C 
ATOM     13  C   UNL     1      32.202 -14.146 -19.520  0.00  0.00    -0.101 C 
ATOM     14  C   UNL     1      34.014  -9.965 -23.908  0.00  0.00    -0.004 C 
ATOM     15  C   UNL     1      31.446  -8.830 -20.304  0.00  0.00    +0.061 C 
ATOM     16  C   UNL     1      33.454  -7.706 -23.122  0.00  0.00    +0.015 C 
ATOM     17  C   UNL     1      34.092  -8.567 -24.028  0.00  0.00    +0.001 C 
ATOM     18  C   UNL     1      31.770  -6.398 -20.780  0.00  0.00    +0.117 C 
ATOM     19  H   UNL     1      31.709 -14.006 -21.483  0.00  0.00    -0.080 HD
ENDROOT
BRANCH   6  20
ATOM     20  C   UNL     1      35.190 -15.243 -23.255  0.00  0.00    +0.091 C 
BRANCH  20  22
ATOM     21  O   UNL     1      34.199 -17.574 -24.678  0.00  0.00    -0.226 OA
ATOM     22  N   UNL     1      35.065 -16.582 -22.766  0.00  0.00    -0.271 N 
ATOM     23  C   UNL     1      34.580 -17.644 -23.514  0.00  0.00    +0.402 C 
ATOM     24  H   UNL     1      35.343 -16.760 -21.839  0.00  0.00    +0.153 HD
BRANCH  23  25
ATOM     25  O   UNL     1      34.586 -18.788 -22.768  0.00  0.00    -0.430 OA
BRANCH  25  26
ATOM     26  C   UNL     1      35.397 -18.758 -21.587  0.00  0.00    +0.237 C 
BRANCH  26  27
ATOM     27  C   UNL     1      34.890 -19.786 -20.619  0.00  0.00    +0.021 C 
ATOM     28  C   UNL     1      33.521 -19.933 -20.424  0.00  0.00    -0.001 C 
ATOM     29  C   UNL     1      35.793 -20.584 -19.926  0.00  0.00    -0.001 C 
ATOM     30  C   UNL     1      33.049 -20.888 -19.525  0.00  0.00    -0.000 C 
ATOM     31  C   UNL     1      35.322 -21.540 -19.026  0.00  0.00    -0.000 C 
ATOM     32  C   UNL     1      33.949 -21.692 -18.825  0.00  0.00    -0.000 C 
ENDBRANCH  26  27
ENDBRANCH  25  26
ENDBRANCH  23  25
ENDBRANCH  20  22
ENDBRANCH   6  20
TORSDOF 5
ENDMDL
MODEL 2
REMARK VINA RESULT:     -11.4      1.548      3.154
REMARK  Name = 28693
REMARK  5 active torsions:
REMARK  status: ('A' for Active; 'I' for Inactive)
REMARK    1  A    between atoms: C_6  and  C_20
REMARK    2  A    between atoms: C_20  and  N_22
REMARK    3  A    between atoms: C_23  and  O_25
REMARK    4  A    between atoms: O_25  and  C_26
REMARK    5  A    between atoms: C_26  and  C_27
REMARK                            x       y       z     vdW  Elec       q    Type
REMARK                         _______ _______ _______ _____ _____    ______ ____
ROOT
ATOM      1  N   UNL     1      34.228 -13.184 -25.552  0.00  0.00    +0.387 N 
ATOM      2  N   UNL     1      32.057  -9.090 -21.706  0.00  0.00    -0.284 N 
ATOM      3  C   UNL     1      33.772 -13.200 -23.077  0.00  0.00    +0.004 C 
ATOM      4  C   UNL     1      33.458 -12.511 -24.476  0.00  0.00    -0.050 C 
ATOM      5  C   UNL     1      33.464 -14.702 -23.146  0.00  0.00    +0.002 C 
ATOM      6  C   UNL     1      34.200 -15.349 -24.321  0.00  0.00    -0.001 C 
ATOM      7  C   UNL     1      33.709 -10.954 -24.444  0.00  0.00    +0.007 C 
ATOM      8  C   UNL     1      33.887 -14.615 -25.630  0.00  0.00    -0.076 C 
ATOM      9  C   UNL     1      33.051 -12.492 -21.942  0.00  0.00    -0.024 C 
ATOM     10  C   UNL     1      32.774 -11.131 -22.124  0.00  0.00    +0.007 C 
ATOM     11  C   UNL     1      33.047 -10.340 -23.258  0.00  0.00    -0.008 C 
ATOM     12  C   UNL     1      32.160 -10.351 -21.162  0.00  0.00    +0.051 C 
ATOM     13  C   UNL     1      34.020 -12.574 -26.869  0.00  0.00    -0.101 C 
ATOM     14  C   UNL     1      32.696 -13.031 -20.700  0.00  0.00    -0.004 C 
ATOM     15  C   UNL     1      32.596  -9.071 -22.977  0.00  0.00    +0.061 C 
ATOM     16  C   UNL     1      31.782 -10.884 -19.930  0.00  0.00    +0.015 C 
ATOM     17  C   UNL     1      32.068 -12.243 -19.720  0.00  0.00    +0.001 C 
ATOM     18  C   UNL     1      31.475  -7.939 -21.051  0.00  0.00    +0.117 C 
ATOM     19  H   UNL     1      35.211 -13.071 -25.304  0.00  0.00    -0.080 HD
ENDROOT
BRANCH   6  20
ATOM     20  C   UNL     1      33.834 -16.830 -24.432  0.00  0.00    +0.091 C 
BRANCH  20  22
ATOM     21  O   UNL     1      34.309 -19.696 -24.382  0.00  0.00    -0.226 OA
ATOM     22  N   UNL     1      34.477 -17.595 -23.408  0.00  0.00    -0.271 N 
ATOM     23  C   UNL     1      34.664 -18.968 -23.461  0.00  0.00    +0.402 C 
ATOM     24  H   UNL     1      34.807 -17.115 -22.615  0.00  0.00    +0.153 HD
BRANCH  23  25
ATOM     25  O   UNL     1      35.307 -19.399 -22.335  0.00  0.00    -0.430 OA
BRANCH  25  26
ATOM     26  C   UNL     1      34.776 -18.923 -21.093  0.00  0.00    +0.237 C 
BRANCH  26  27
ATOM     27  C   UNL     1      34.616 -20.082 -20.153  0.00  0.00    +0.021 C 
ATOM     28  C   UNL     1      35.743 -20.734 -19.665  0.00  0.00    -0.001 C 
ATOM     29  C   UNL     1      33.342 -20.494 -19.778  0.00  0.00    -0.001 C 
ATOM     30  C   UNL     1      35.595 -21.811 -18.791  0.00  0.00    -0.000 C 
ATOM     31  C   UNL     1      33.194 -21.572 -18.905  0.00  0.00    -0.000 C 
ATOM     32  C   UNL     1      34.320 -22.230 -18.411  0.00  0.00    -0.000 C 
ENDBRANCH  26  27
ENDBRANCH  25  26
ENDBRANCH  23  25
ENDBRANCH  20  22
ENDBRANCH   6  20
TORSDOF 5
ENDMDL
MODEL 3
REMARK VINA RESULT:     -10.8      5.710     12.008
REMARK  Name = 28693
REMARK  5 active torsions:
REMARK  status: ('A' for Active; 'I' for Inactive)
REMARK    1  A    between atoms: C_6  and  C_20
REMARK    2  A    between atoms: C_20  and  N_22
REMARK    3  A    between atoms: C_23  and  O_25
REMARK    4  A    between atoms: O_25  and  C_26
REMARK    5  A    between atoms: C_26  and  C_27
REMARK                            x       y       z     vdW  Elec       q    Type
REMARK                         _______ _______ _______ _____ _____    ______ ____
ROOT
ATOM      1  N   UNL     1      36.807 -23.262 -15.438  0.00  0.00    +0.387 N 
ATOM      2  N   UNL     1      31.325 -24.358 -13.199  0.00  0.00    -0.284 N 
ATOM      3  C   UNL     1      34.485 -23.131 -16.397  0.00  0.00    +0.004 C 
ATOM      4  C   UNL     1      35.371 -23.157 -15.077  0.00  0.00    -0.050 C 
ATOM      5  C   UNL     1      34.929 -21.981 -17.311  0.00  0.00    +0.002 C 
ATOM      6  C   UNL     1      36.432 -22.065 -17.590  0.00  0.00    -0.001 C 
ATOM      7  C   UNL     1      34.921 -24.290 -14.077  0.00  0.00    +0.007 C 
ATOM      8  C   UNL     1      37.225 -22.127 -16.280  0.00  0.00    -0.076 C 
ATOM      9  C   UNL     1      33.003 -23.092 -16.062  0.00  0.00    -0.024 C 
ATOM     10  C   UNL     1      32.616 -23.668 -14.846  0.00  0.00    +0.007 C 
ATOM     11  C   UNL     1      33.446 -24.246 -13.864  0.00  0.00    -0.008 C 
ATOM     12  C   UNL     1      31.300 -23.739 -14.429  0.00  0.00    +0.051 C 
ATOM     13  C   UNL     1      37.686 -23.332 -14.266  0.00  0.00    -0.101 C 
ATOM     14  C   UNL     1      31.966 -22.609 -16.870  0.00  0.00    -0.004 C 
ATOM     15  C   UNL     1      32.623 -24.673 -12.848  0.00  0.00    +0.061 C 
ATOM     16  C   UNL     1      30.263 -23.239 -15.217  0.00  0.00    +0.015 C 
ATOM     17  C   UNL     1      30.627 -22.676 -16.449  0.00  0.00    +0.001 C 
ATOM     18  C   UNL     1      30.167 -24.647 -12.381  0.00  0.00    +0.117 C 
ATOM     19  H   UNL     1      36.901 -24.135 -15.956  0.00  0.00    -0.080 HD
ENDROOT
BRANCH   6  20
ATOM     20  C   UNL     1      36.886 -20.878 -18.440  0.00  0.00    +0.091 C 
BRANCH  20  22
ATOM     21  O   UNL     1      36.874 -18.589 -20.230  0.00  0.00    -0.226 OA
ATOM     22  N   UNL     1      35.879 -20.511 -19.388  0.00  0.00    -0.271 N 
ATOM     23  C   UNL     1      35.950 -19.396 -20.209  0.00  0.00    +0.402 C 
ATOM     24  H   UNL     1      35.085 -21.088 -19.462  0.00  0.00    +0.153 HD
BRANCH  23  25
ATOM     25  O   UNL     1      34.838 -19.322 -20.999  0.00  0.00    -0.430 OA
BRANCH  25  26
ATOM     26  C   UNL     1      35.048 -19.557 -22.397  0.00  0.00    +0.237 C 
BRANCH  26  27
ATOM     27  C   UNL     1      34.730 -18.302 -23.157  0.00  0.00    +0.021 C 
ATOM     28  C   UNL     1      35.249 -17.086 -22.726  0.00  0.00    -0.001 C 
ATOM     29  C   UNL     1      33.921 -18.367 -24.285  0.00  0.00    -0.001 C 
ATOM     30  C   UNL     1      34.955 -15.920 -23.432  0.00  0.00    -0.000 C 
ATOM     31  C   UNL     1      33.626 -17.201 -24.992  0.00  0.00    -0.000 C 
ATOM     32  C   UNL     1      34.143 -15.978 -24.565  0.00  0.00    -0.000 C 
ENDBRANCH  26  27
ENDBRANCH  25  26
ENDBRANCH  23  25
ENDBRANCH  20  22
ENDBRANCH   6  20
TORSDOF 5
ENDMDL
MODEL 4
REMARK VINA RESULT:     -10.7      8.845     12.593
REMARK  Name = 28693
REMARK  5 active torsions:
REMARK  status: ('A' for Active; 'I' for Inactive)
REMARK    1  A    between atoms: C_6  and  C_20
REMARK    2  A    between atoms: C_20  and  N_22
REMARK    3  A    between atoms: C_23  and  O_25
REMARK    4  A    between atoms: O_25  and  C_26
REMARK    5  A    between atoms: C_26  and  C_27
REMARK                            x       y       z     vdW  Elec       q    Type
REMARK                         _______ _______ _______ _____ _____    ______ ____
ROOT
ATOM      1  N   UNL     1      31.746 -23.688 -14.969  0.00  0.00    +0.387 N 
ATOM      2  N   UNL     1      34.367 -20.936 -19.640  0.00  0.00    -0.284 N 
ATOM      3  C   UNL     1      34.142 -23.360 -15.667  0.00  0.00    +0.004 C 
ATOM      4  C   UNL     1      32.640 -22.852 -15.807  0.00  0.00    -0.050 C 
ATOM      5  C   UNL     1      34.567 -23.350 -14.192  0.00  0.00    +0.002 C 
ATOM      6  C   UNL     1      33.575 -24.144 -13.340  0.00  0.00    -0.001 C 
ATOM      7  C   UNL     1      32.169 -22.793 -17.311  0.00  0.00    +0.007 C 
ATOM      8  C   UNL     1      32.146 -23.632 -13.551  0.00  0.00    -0.076 C 
ATOM      9  C   UNL     1      35.076 -22.567 -16.565  0.00  0.00    -0.024 C 
ATOM     10  C   UNL     1      34.518 -22.020 -17.728  0.00  0.00    +0.007 C 
ATOM     11  C   UNL     1      33.175 -22.079 -18.149  0.00  0.00    -0.008 C 
ATOM     12  C   UNL     1      35.256 -21.310 -18.656  0.00  0.00    +0.051 C 
ATOM     13  C   UNL     1      30.336 -23.304 -15.080  0.00  0.00    -0.101 C 
ATOM     14  C   UNL     1      36.454 -22.383 -16.399  0.00  0.00    -0.004 C 
ATOM     15  C   UNL     1      33.101 -21.401 -19.343  0.00  0.00    +0.061 C 
ATOM     16  C   UNL     1      36.625 -21.101 -18.488  0.00  0.00    +0.015 C 
ATOM     17  C   UNL     1      37.207 -21.658 -17.339  0.00  0.00    +0.001 C 
ATOM     18  C   UNL     1      34.697 -20.169 -20.821  0.00  0.00    +0.117 C 
ATOM     19  H   UNL     1      31.843 -24.640 -15.322  0.00  0.00    -0.080 HD
ENDROOT
BRANCH   6  20
ATOM     20  C   UNL     1      33.960 -24.072 -11.861  0.00  0.00    +0.091 C 
BRANCH  20  22
ATOM     21  O   UNL     1      35.707 -24.271  -9.548  0.00  0.00    -0.226 OA
ATOM     22  N   UNL     1      35.268 -23.515 -11.699  0.00  0.00    -0.271 N 
ATOM     23  C   UNL     1      36.040 -23.657 -10.556  0.00  0.00    +0.402 C 
ATOM     24  H   UNL     1      35.643 -22.998 -12.448  0.00  0.00    +0.153 HD
BRANCH  23  25
ATOM     25  O   UNL     1      37.235 -23.012 -10.712  0.00  0.00    -0.430 OA
BRANCH  25  26
ATOM     26  C   UNL     1      38.356 -23.844 -11.034  0.00  0.00    +0.237 C 
BRANCH  26  27
ATOM     27  C   UNL     1      38.006 -24.702 -12.214  0.00  0.00    +0.021 C 
ATOM     28  C   UNL     1      38.122 -24.184 -13.500  0.00  0.00    -0.001 C 
ATOM     29  C   UNL     1      37.571 -26.006 -12.013  0.00  0.00    -0.001 C 
ATOM     30  C   UNL     1      37.798 -24.981 -14.597  0.00  0.00    -0.000 C 
ATOM     31  C   UNL     1      37.246 -26.804 -13.110  0.00  0.00    -0.000 C 
ATOM     32  C   UNL     1      37.359 -26.291 -14.403  0.00  0.00    -0.000 C 
ENDBRANCH  26  27
ENDBRANCH  25  26
ENDBRANCH  23  25
ENDBRANCH  20  22
ENDBRANCH   6  20
TORSDOF 5
ENDMDL
MODEL 5
REMARK VINA RESULT:     -10.5      3.591      6.031
REMARK  Name = 28693
REMARK  5 active torsions:
REMARK  status: ('A' for Active; 'I' for Inactive)
REMARK    1  A    between atoms: C_6  and  C_20
REMARK    2  A    between atoms: C_20  and  N_22
REMARK    3  A    between atoms: C_23  and  O_25
REMARK    4  A    between atoms: O_25  and  C_26
REMARK    5  A    between atoms: C_26  and  C_27
REMARK                            x       y       z     vdW  Elec       q    Type
REMARK                         _______ _______ _______ _____ _____    ______ ____
ROOT
ATOM      1  N   UNL     1      35.273 -19.049 -23.259  0.00  0.00    +0.387 N 
ATOM      2  N   UNL     1      33.149 -13.703 -25.040  0.00  0.00    -0.284 N 
ATOM      3  C   UNL     1      35.450 -16.716 -22.331  0.00  0.00    +0.004 C 
ATOM      4  C   UNL     1      34.644 -17.705 -23.283  0.00  0.00    -0.050 C 
ATOM      5  C   UNL     1      35.518 -17.290 -20.909  0.00  0.00    +0.002 C 
ATOM      6  C   UNL     1      36.085 -18.711 -20.928  0.00  0.00    -0.001 C 
ATOM      7  C   UNL     1      34.499 -17.137 -24.747  0.00  0.00    +0.007 C 
ATOM      8  C   UNL     1      35.292 -19.600 -21.892  0.00  0.00    -0.076 C 
ATOM      9  C   UNL     1      34.872 -15.312 -22.383  0.00  0.00    -0.024 C 
ATOM     10  C   UNL     1      34.229 -14.939 -23.570  0.00  0.00    +0.007 C 
ATOM     11  C   UNL     1      34.012 -15.728 -24.717  0.00  0.00    -0.008 C 
ATOM     12  C   UNL     1      33.691 -13.682 -23.774  0.00  0.00    +0.051 C 
ATOM     13  C   UNL     1      34.607 -20.005 -24.148  0.00  0.00    -0.101 C 
ATOM     14  C   UNL     1      34.975 -14.318 -21.401  0.00  0.00    -0.004 C 
ATOM     15  C   UNL     1      33.341 -14.939 -25.623  0.00  0.00    +0.061 C 
ATOM     16  C   UNL     1      33.768 -12.693 -22.793  0.00  0.00    +0.015 C 
ATOM     17  C   UNL     1      34.426 -13.040 -21.603  0.00  0.00    +0.001 C 
ATOM     18  C   UNL     1      32.474 -12.596 -25.682  0.00  0.00    +0.117 C 
ATOM     19  H   UNL     1      36.227 -18.916 -23.596  0.00  0.00    -0.080 HD
ENDROOT
BRANCH   6  20
ATOM     20  C   UNL     1      36.085 -19.308 -19.520  0.00  0.00    +0.091 C 
BRANCH  20  22
ATOM     21  O   UNL     1      36.701 -21.703 -17.996  0.00  0.00    -0.226 OA
ATOM     22  N   UNL     1      35.354 -20.537 -19.485  0.00  0.00    -0.271 N 
ATOM     23  C   UNL     1      35.717 -21.639 -18.726  0.00  0.00    +0.402 C 
ATOM     24  H   UNL     1      34.540 -20.604 -20.034  0.00  0.00    +0.153 HD
BRANCH  23  25
ATOM     25  O   UNL     1      34.819 -22.652 -18.907  0.00  0.00    -0.430 OA
BRANCH  25  26
ATOM     26  C   UNL     1      33.452 -22.332 -18.624  0.00  0.00    +0.237 C 
BRANCH  26  27
ATOM     27  C   UNL     1      33.134 -22.743 -17.216  0.00  0.00    +0.021 C 
ATOM     28  C   UNL     1      34.157 -23.167 -16.375  0.00  0.00    -0.001 C 
ATOM     29  C   UNL     1      31.820 -22.696 -16.765  0.00  0.00    -0.001 C 
ATOM     30  C   UNL     1      33.862 -23.549 -15.066  0.00  0.00    -0.000 C 
ATOM     31  C   UNL     1      31.524 -23.078 -15.456  0.00  0.00    -0.000 C 
ATOM     32  C   UNL     1      32.546 -23.505 -14.607  0.00  0.00    -0.000 C 
ENDBRANCH  26  27
ENDBRANCH  25  26
ENDBRANCH  23  25
ENDBRANCH  20  22
ENDBRANCH   6  20
TORSDOF 5
ENDMDL
MODEL 6
REMARK VINA RESULT:     -10.5      3.470     10.538
REMARK  Name = 28693
REMARK  5 active torsions:
REMARK  status: ('A' for Active; 'I' for Inactive)
REMARK    1  A    between atoms: C_6  and  C_20
REMARK    2  A    between atoms: C_20  and  N_22
REMARK    3  A    between atoms: C_23  and  O_25
REMARK    4  A    between atoms: O_25  and  C_26
REMARK    5  A    between atoms: C_26  and  C_27
REMARK                            x       y       z     vdW  Elec       q    Type
REMARK                         _______ _______ _______ _____ _____    ______ ____
ROOT
ATOM      1  N   UNL     1      33.439 -12.555 -25.404  0.00  0.00    +0.387 N 
ATOM      2  N   UNL     1      35.091 -17.715 -22.775  0.00  0.00    -0.284 N 
ATOM      3  C   UNL     1      33.595 -13.308 -23.008  0.00  0.00    +0.004 C 
ATOM      4  C   UNL     1      34.068 -13.556 -24.506  0.00  0.00    -0.050 C 
ATOM      5  C   UNL     1      33.925 -11.871 -22.580  0.00  0.00    +0.002 C 
ATOM      6  C   UNL     1      33.342 -10.866 -23.576  0.00  0.00    -0.001 C 
ATOM      7  C   UNL     1      33.799 -15.037 -24.979  0.00  0.00    +0.007 C 
ATOM      8  C   UNL     1      33.802 -11.184 -25.002  0.00  0.00    -0.076 C 
ATOM      9  C   UNL     1      34.168 -14.358 -22.070  0.00  0.00    -0.024 C 
ATOM     10  C   UNL     1      34.450 -15.612 -22.627  0.00  0.00    +0.007 C 
ATOM     11  C   UNL     1      34.308 -16.010 -23.971  0.00  0.00    -0.008 C 
ATOM     12  C   UNL     1      34.937 -16.673 -21.887  0.00  0.00    +0.051 C 
ATOM     13  C   UNL     1      33.798 -12.748 -26.812  0.00  0.00    -0.101 C 
ATOM     14  C   UNL     1      34.376 -14.237 -20.691  0.00  0.00    -0.004 C 
ATOM     15  C   UNL     1      34.709 -17.324 -24.043  0.00  0.00    +0.061 C 
ATOM     16  C   UNL     1      35.170 -16.555 -20.516  0.00  0.00    +0.015 C 
ATOM     17  C   UNL     1      34.874 -15.312 -19.936  0.00  0.00    +0.001 C 
ATOM     18  C   UNL     1      35.579 -19.036 -22.442  0.00  0.00    +0.117 C 
ATOM     19  H   UNL     1      32.433 -12.692 -25.313  0.00  0.00    -0.080 HD
ENDROOT
BRANCH   6  20
ATOM     20  C   UNL     1      33.733  -9.439 -23.188  0.00  0.00    +0.091 C 
BRANCH  20  22
ATOM     21  O   UNL     1      31.716  -9.184 -21.113  0.00  0.00    -0.226 OA
ATOM     22  N   UNL     1      32.590  -8.579 -23.177  0.00  0.00    -0.271 N 
ATOM     23  C   UNL     1      31.670  -8.518 -22.142  0.00  0.00    +0.402 C 
ATOM     24  H   UNL     1      32.447  -7.993 -23.955  0.00  0.00    +0.153 HD
BRANCH  23  25
ATOM     25  O   UNL     1      30.697  -7.603 -22.430  0.00  0.00    -0.430 OA
BRANCH  25  26
ATOM     26  C   UNL     1      30.917  -6.804 -23.598  0.00  0.00    +0.237 C 
BRANCH  26  27
ATOM     27  C   UNL     1      31.093  -5.372 -23.186  0.00  0.00    +0.021 C 
ATOM     28  C   UNL     1      30.661  -4.959 -21.930  0.00  0.00    -0.001 C 
ATOM     29  C   UNL     1      31.686  -4.471 -24.062  0.00  0.00    -0.001 C 
ATOM     30  C   UNL     1      30.825  -3.628 -21.546  0.00  0.00    -0.000 C 
ATOM     31  C   UNL     1      31.850  -3.140 -23.679  0.00  0.00    -0.000 C 
ATOM     32  C   UNL     1      31.419  -2.718 -22.421  0.00  0.00    -0.000 C 
ENDBRANCH  26  27
ENDBRANCH  25  26
ENDBRANCH  23  25
ENDBRANCH  20  22
ENDBRANCH   6  20
TORSDOF 5
ENDMDL
MODEL 7
REMARK VINA RESULT:     -10.3      3.587      8.663
REMARK  Name = 28693
REMARK  5 active torsions:
REMARK  status: ('A' for Active; 'I' for Inactive)
REMARK    1  A    between atoms: C_6  and  C_20
REMARK    2  A    between atoms: C_20  and  N_22
REMARK    3  A    between atoms: C_23  and  O_25
REMARK    4  A    between atoms: O_25  and  C_26
REMARK    5  A    between atoms: C_26  and  C_27
REMARK                            x       y       z     vdW  Elec       q    Type
REMARK                         _______ _______ _______ _____ _____    ______ ____
ROOT
ATOM      1  N   UNL     1      33.555 -12.585 -25.488  0.00  0.00    +0.387 N 
ATOM      2  N   UNL     1      34.928 -17.722 -22.660  0.00  0.00    -0.284 N 
ATOM      3  C   UNL     1      33.713 -13.241 -23.064  0.00  0.00    +0.004 C 
ATOM      4  C   UNL     1      34.137 -13.585 -24.559  0.00  0.00    -0.050 C 
ATOM      5  C   UNL     1      34.144 -11.812 -22.708  0.00  0.00    +0.002 C 
ATOM      6  C   UNL     1      33.605 -10.815 -23.737  0.00  0.00    -0.001 C 
ATOM      7  C   UNL     1      33.763 -15.064 -24.959  0.00  0.00    +0.007 C 
ATOM      8  C   UNL     1      34.013 -11.225 -25.156  0.00  0.00    -0.076 C 
ATOM      9  C   UNL     1      34.238 -14.285 -22.091  0.00  0.00    -0.024 C 
ATOM     10  C   UNL     1      34.427 -15.577 -22.595  0.00  0.00    +0.007 C 
ATOM     11  C   UNL     1      34.230 -16.023 -23.918  0.00  0.00    -0.008 C 
ATOM     12  C   UNL     1      34.861 -16.634 -21.818  0.00  0.00    +0.051 C 
ATOM     13  C   UNL     1      33.869 -12.863 -26.893  0.00  0.00    -0.101 C 
ATOM     14  C   UNL     1      34.484 -14.117 -20.723  0.00  0.00    -0.004 C 
ATOM     15  C   UNL     1      34.544 -17.363 -23.937  0.00  0.00    +0.061 C 
ATOM     16  C   UNL     1      35.130 -16.472 -20.459  0.00  0.00    +0.015 C 
ATOM     17  C   UNL     1      34.928 -15.188 -19.929  0.00  0.00    +0.001 C 
ATOM     18  C   UNL     1      35.338 -19.055 -22.278  0.00  0.00    +0.117 C 
ATOM     19  H   UNL     1      32.544 -12.653 -25.372  0.00  0.00    -0.080 HD
ENDROOT
BRANCH   6  20
ATOM     20  C   UNL     1      34.095  -9.401 -23.421  0.00  0.00    +0.091 C 
BRANCH  20  22
ATOM     21  O   UNL     1      34.379  -7.084 -21.692  0.00  0.00    -0.226 OA
ATOM     22  N   UNL     1      33.056  -8.620 -22.825  0.00  0.00    -0.271 N 
ATOM     23  C   UNL     1      33.278  -7.522 -22.007  0.00  0.00    +0.402 C 
ATOM     24  H   UNL     1      32.124  -8.878 -23.007  0.00  0.00    +0.153 HD
BRANCH  23  25
ATOM     25  O   UNL     1      32.086  -6.992 -21.597  0.00  0.00    -0.430 OA
BRANCH  25  26
ATOM     26  C   UNL     1      31.660  -7.358 -20.280  0.00  0.00    +0.237 C 
BRANCH  26  27
ATOM     27  C   UNL     1      31.610  -8.855 -20.180  0.00  0.00    +0.021 C 
ATOM     28  C   UNL     1      30.927  -9.587 -21.145  0.00  0.00    -0.001 C 
ATOM     29  C   UNL     1      32.247  -9.496 -19.124  0.00  0.00    -0.001 C 
ATOM     30  C   UNL     1      30.881 -10.978 -21.053  0.00  0.00    -0.000 C 
ATOM     31  C   UNL     1      32.201 -10.887 -19.031  0.00  0.00    -0.000 C 
ATOM     32  C   UNL     1      31.517 -11.628 -19.996  0.00  0.00    -0.000 C 
ENDBRANCH  26  27
ENDBRANCH  25  26
ENDBRANCH  23  25
ENDBRANCH  20  22
ENDBRANCH   6  20
TORSDOF 5
ENDMDL
MODEL 8
REMARK VINA RESULT:     -10.3      1.586      3.384
REMARK  Name = 28693
REMARK  5 active torsions:
REMARK  status: ('A' for Active; 'I' for Inactive)
REMARK    1  A    between atoms: C_6  and  C_20
REMARK    2  A    between atoms: C_20  and  N_22
REMARK    3  A    between atoms: C_23  and  O_25
REMARK    4  A    between atoms: O_25  and  C_26
REMARK    5  A    between atoms: C_26  and  C_27
REMARK                            x       y       z     vdW  Elec       q    Type
REMARK                         _______ _______ _______ _____ _____    ______ ____
ROOT
ATOM      1  N   UNL     1      34.868 -10.762 -24.445  0.00  0.00    +0.387 N 
ATOM      2  N   UNL     1      32.742  -6.029 -21.388  0.00  0.00    -0.284 N 
ATOM      3  C   UNL     1      33.602 -10.520 -22.284  0.00  0.00    +0.004 C 
ATOM      4  C   UNL     1      33.996  -9.845 -23.669  0.00  0.00    -0.050 C 
ATOM      5  C   UNL     1      32.929 -11.877 -22.529  0.00  0.00    +0.002 C 
ATOM      6  C   UNL     1      33.812 -12.766 -23.408  0.00  0.00    -0.001 C 
ATOM      7  C   UNL     1      34.645  -8.420 -23.476  0.00  0.00    +0.007 C 
ATOM      8  C   UNL     1      34.188 -12.043 -24.706  0.00  0.00    -0.076 C 
ATOM      9  C   UNL     1      32.762  -9.580 -21.434  0.00  0.00    -0.024 C 
ATOM     10  C   UNL     1      32.958  -8.208 -21.632  0.00  0.00    +0.007 C 
ATOM     11  C   UNL     1      33.814  -7.585 -22.562  0.00  0.00    -0.008 C 
ATOM     12  C   UNL     1      32.294  -7.239 -20.905  0.00  0.00    +0.051 C 
ATOM     13  C   UNL     1      35.306 -10.188 -25.721  0.00  0.00    -0.101 C 
ATOM     14  C   UNL     1      31.865  -9.933 -20.419  0.00  0.00    -0.004 C 
ATOM     15  C   UNL     1      33.668  -6.228 -22.392  0.00  0.00    +0.061 C 
ATOM     16  C   UNL     1      31.381  -7.579 -19.907  0.00  0.00    +0.015 C 
ATOM     17  C   UNL     1      31.185  -8.951 -19.679  0.00  0.00    +0.001 C 
ATOM     18  C   UNL     1      32.316  -4.728 -20.918  0.00  0.00    +0.117 C 
ATOM     19  H   UNL     1      35.694 -10.915 -23.867  0.00  0.00    -0.080 HD
ENDROOT
BRANCH   6  20
ATOM     20  C   UNL     1      33.109 -14.089 -23.712  0.00  0.00    +0.091 C 
BRANCH  20  22
ATOM     21  O   UNL     1      34.442 -15.908 -25.544  0.00  0.00    -0.226 OA
ATOM     22  N   UNL     1      33.948 -15.201 -23.388  0.00  0.00    -0.271 N 
ATOM     23  C   UNL     1      34.549 -16.025 -24.327  0.00  0.00    +0.402 C 
ATOM     24  H   UNL     1      34.109 -15.394 -22.436  0.00  0.00    +0.153 HD
BRANCH  23  25
ATOM     25  O   UNL     1      35.286 -16.992 -23.703  0.00  0.00    -0.430 OA
BRANCH  25  26
ATOM     26  C   UNL     1      34.570 -18.174 -23.325  0.00  0.00    +0.237 C 
BRANCH  26  27
ATOM     27  C   UNL     1      35.220 -18.772 -22.111  0.00  0.00    +0.021 C 
ATOM     28  C   UNL     1      36.531 -18.434 -21.795  0.00  0.00    -0.001 C 
ATOM     29  C   UNL     1      34.505 -19.657 -21.314  0.00  0.00    -0.001 C 
ATOM     30  C   UNL     1      37.135 -18.989 -20.667  0.00  0.00    -0.000 C 
ATOM     31  C   UNL     1      35.108 -20.213 -20.186  0.00  0.00    -0.000 C 
ATOM     32  C   UNL     1      36.424 -19.879 -19.863  0.00  0.00    -0.000 C 
ENDBRANCH  26  27
ENDBRANCH  25  26
ENDBRANCH  23  25
ENDBRANCH  20  22
ENDBRANCH   6  20
TORSDOF 5
ENDMDL
MODEL 9
REMARK VINA RESULT:     -10.2      5.761     12.604
REMARK  Name = 28693
REMARK  5 active torsions:
REMARK  status: ('A' for Active; 'I' for Inactive)
REMARK    1  A    between atoms: C_6  and  C_20
REMARK    2  A    between atoms: C_20  and  N_22
REMARK    3  A    between atoms: C_23  and  O_25
REMARK    4  A    between atoms: O_25  and  C_26
REMARK    5  A    between atoms: C_26  and  C_27
REMARK                            x       y       z     vdW  Elec       q    Type
REMARK                         _______ _______ _______ _____ _____    ______ ____
ROOT
ATOM      1  N   UNL     1      32.223 -22.955 -15.593  0.00  0.00    +0.387 N 
ATOM      2  N   UNL     1      36.571 -25.038 -11.984  0.00  0.00    -0.284 N 
ATOM      3  C   UNL     1      34.728 -22.711 -15.577  0.00  0.00    +0.004 C 
ATOM      4  C   UNL     1      33.477 -23.561 -15.081  0.00  0.00    -0.050 C 
ATOM      5  C   UNL     1      34.726 -22.612 -17.108  0.00  0.00    +0.002 C 
ATOM      6  C   UNL     1      33.386 -22.070 -17.611  0.00  0.00    -0.001 C 
ATOM      7  C   UNL     1      33.460 -23.739 -13.514  0.00  0.00    +0.007 C 
ATOM      8  C   UNL     1      32.223 -22.907 -17.066  0.00  0.00    -0.076 C 
ATOM      9  C   UNL     1      36.026 -23.267 -15.014  0.00  0.00    -0.024 C 
ATOM     10  C   UNL     1      35.946 -23.937 -13.787  0.00  0.00    +0.007 C 
ATOM     11  C   UNL     1      34.791 -24.200 -13.024  0.00  0.00    -0.008 C 
ATOM     12  C   UNL     1      37.049 -24.458 -13.139  0.00  0.00    +0.051 C 
ATOM     13  C   UNL     1      31.022 -23.663 -15.141  0.00  0.00    -0.101 C 
ATOM     14  C   UNL     1      37.311 -23.118 -15.550  0.00  0.00    -0.004 C 
ATOM     15  C   UNL     1      35.201 -24.884 -11.903  0.00  0.00    +0.061 C 
ATOM     16  C   UNL     1      38.331 -24.336 -13.676  0.00  0.00    +0.015 C 
ATOM     17  C   UNL     1      38.436 -23.650 -14.896  0.00  0.00    +0.001 C 
ATOM     18  C   UNL     1      37.375 -25.712 -10.988  0.00  0.00    +0.117 C 
ATOM     19  H   UNL     1      32.195 -22.010 -15.212  0.00  0.00    -0.080 HD
ENDROOT
BRANCH   6  20
ATOM     20  C   UNL     1      33.359 -22.040 -19.140  0.00  0.00    +0.091 C 
BRANCH  20  22
ATOM     21  O   UNL     1      35.958 -20.952 -19.850  0.00  0.00    -0.226 OA
ATOM     22  N   UNL     1      33.657 -20.730 -19.631  0.00  0.00    -0.271 N 
ATOM     23  C   UNL     1      34.932 -20.286 -19.948  0.00  0.00    +0.402 C 
ATOM     24  H   UNL     1      32.908 -20.103 -19.752  0.00  0.00    +0.153 HD
BRANCH  23  25
ATOM     25  O   UNL     1      34.885 -18.994 -20.390  0.00  0.00    -0.430 OA
BRANCH  25  26
ATOM     26  C   UNL     1      35.892 -18.622 -21.337  0.00  0.00    +0.237 C 
BRANCH  26  27
ATOM     27  C   UNL     1      35.232 -18.017 -22.542  0.00  0.00    +0.021 C 
ATOM     28  C   UNL     1      34.480 -18.821 -23.391  0.00  0.00    -0.001 C 
ATOM     29  C   UNL     1      35.378 -16.658 -22.797  0.00  0.00    -0.001 C 
ATOM     30  C   UNL     1      33.866 -18.260 -24.511  0.00  0.00    -0.000 C 
ATOM     31  C   UNL     1      34.764 -16.096 -23.917  0.00  0.00    -0.000 C 
ATOM     32  C   UNL     1      34.009 -16.897 -24.774  0.00  0.00    -0.000 C 
ENDBRANCH  26  27
ENDBRANCH  25  26
ENDBRANCH  23  25
ENDBRANCH  20  22
ENDBRANCH   6  20
TORSDOF 5
ENDMDL
