MODEL 1
REMARK VINA RESULT:     -12.3      0.000      0.000
REMARK  Name = 11538992
REMARK  4 active torsions:
REMARK  status: ('A' for Active; 'I' for Inactive)
REMARK    1  A    between atoms: C_1  and  N_7
REMARK    2  A    between atoms: C_3  and  C_24
REMARK    3  A    between atoms: C_4  and  N_30
REMARK    4  A    between atoms: C_15  and  C_20
REMARK                            x       y       z     vdW  Elec       q    Type
REMARK                         _______ _______ _______ _____ _____    ______ ____
ROOT
ATOM      1  C   UNL     1      34.846 -21.913 -18.904  0.00  0.00    -0.059 C 
ATOM      2  C   UNL     1      36.092 -21.024 -18.969  0.00  0.00    -0.042 C 
ATOM      3  C   UNL     1      34.810 -19.329 -20.371  0.00  0.00    +0.005 C 
ATOM      4  C   UNL     1      36.107 -20.170 -20.248  0.00  0.00    -0.064 C 
ATOM      5  C   UNL     1      33.568 -21.076 -19.007  0.00  0.00    -0.021 C 
ATOM      6  C   UNL     1      33.562 -20.229 -20.278  0.00  0.00    +0.000 C 
ENDROOT
BRANCH   1   7
ATOM      7  N   UNL     1      34.841 -22.671 -17.653  0.00  0.00    +0.394 N 
ATOM      8  N   UNL     1      34.623 -23.410 -14.978  0.00  0.00    -0.299 N 
ATOM      9  N   UNL     1      32.477 -23.800 -15.018  0.00  0.00    -0.136 NA
ATOM     10  N   UNL     1      32.987 -24.229 -13.803  0.00  0.00    -0.125 NA
ATOM     11  C   UNL     1      35.819 -22.115 -16.700  0.00  0.00    -0.052 C 
ATOM     12  C   UNL     1      33.484 -22.690 -17.068  0.00  0.00    -0.009 C 
ATOM     13  C   UNL     1      35.925 -23.009 -15.456  0.00  0.00    +0.086 C 
ATOM     14  C   UNL     1      33.479 -23.312 -15.717  0.00  0.00    +0.122 A 
ATOM     15  C   UNL     1      34.281 -23.986 -13.802  0.00  0.00    +0.238 A 
ATOM     16  H   UNL     1      35.115 -23.632 -17.857  0.00  0.00    -0.079 HD
BRANCH  15  20
ATOM     17  F   UNL     1      36.212 -25.192 -13.068  0.00  0.00    -0.163 F 
ATOM     18  F   UNL     1      35.942 -23.191 -12.276  0.00  0.00    -0.163 F 
ATOM     19  F   UNL     1      34.653 -24.808 -11.602  0.00  0.00    -0.163 F 
ATOM     20  C   UNL     1      35.241 -24.283 -12.726  0.00  0.00    +0.452 C 
ENDBRANCH  15  20
ENDBRANCH   1   7
BRANCH   3  24
ATOM     21  F   UNL     1      35.557 -16.592 -20.450  0.00  0.00    -0.204 F 
ATOM     22  F   UNL     1      33.869 -18.841 -25.142  0.00  0.00    -0.202 F 
ATOM     23  F   UNL     1      34.618 -16.214 -25.073  0.00  0.00    -0.202 F 
ATOM     24  C   UNL     1      34.759 -18.486 -21.638  0.00  0.00    +0.005 C 
ATOM     25  C   UNL     1      35.141 -17.149 -21.597  0.00  0.00    +0.138 C 
ATOM     26  C   UNL     1      34.329 -19.062 -22.829  0.00  0.00    +0.030 C 
ATOM     27  C   UNL     1      34.281 -18.293 -23.992  0.00  0.00    +0.167 C 
ATOM     28  C   UNL     1      35.093 -16.381 -22.759  0.00  0.00    +0.061 C 
ATOM     29  C   UNL     1      34.663 -16.952 -23.956  0.00  0.00    +0.170 C 
ENDBRANCH   3  24
BRANCH   4  30
ATOM     30  N   UNL     1      37.290 -19.303 -20.240  0.00  0.00    +0.382 N 
ATOM     31  H   UNL     1      37.722 -19.327 -19.317  0.00  0.00    -0.089 HD
ATOM     32  H   UNL     1      37.011 -18.347 -20.460  0.00  0.00    -0.089 HD
ATOM     33  H   UNL     1      37.957 -19.632 -20.938  0.00  0.00    -0.089 HD
ENDBRANCH   4  30
TORSDOF 4
ENDMDL
MODEL 2
REMARK VINA RESULT:     -12.0      1.055      1.721
REMARK  Name = 11538992
REMARK  4 active torsions:
REMARK  status: ('A' for Active; 'I' for Inactive)
REMARK    1  A    between atoms: C_1  and  N_7
REMARK    2  A    between atoms: C_3  and  C_24
REMARK    3  A    between atoms: C_4  and  N_30
REMARK    4  A    between atoms: C_15  and  C_20
REMARK                            x       y       z     vdW  Elec       q    Type
REMARK                         _______ _______ _______ _____ _____    ______ ____
ROOT
ATOM      1  C   UNL     1      35.232 -21.468 -19.407  0.00  0.00    -0.059 C 
ATOM      2  C   UNL     1      36.456 -20.551 -19.498  0.00  0.00    -0.042 C 
ATOM      3  C   UNL     1      35.079 -18.842 -20.788  0.00  0.00    +0.005 C 
ATOM      4  C   UNL     1      36.397 -19.658 -20.749  0.00  0.00    -0.064 C 
ATOM      5  C   UNL     1      33.934 -20.657 -19.427  0.00  0.00    -0.021 C 
ATOM      6  C   UNL     1      33.855 -19.770 -20.669  0.00  0.00    +0.000 C 
ENDROOT
BRANCH   1   7
ATOM      7  N   UNL     1      35.298 -22.264 -18.182  0.00  0.00    +0.394 N 
ATOM      8  N   UNL     1      35.159 -23.106 -15.531  0.00  0.00    -0.299 N 
ATOM      9  N   UNL     1      33.052 -23.669 -15.576  0.00  0.00    -0.136 NA
ATOM     10  N   UNL     1      33.604 -24.095 -14.378  0.00  0.00    -0.125 NA
ATOM     11  C   UNL     1      36.234 -21.661 -17.215  0.00  0.00    -0.052 C 
ATOM     12  C   UNL     1      33.951 -22.414 -17.591  0.00  0.00    -0.009 C 
ATOM     13  C   UNL     1      36.421 -22.584 -16.001  0.00  0.00    +0.086 C 
ATOM     14  C   UNL     1      34.007 -23.078 -16.263  0.00  0.00    +0.122 A 
ATOM     15  C   UNL     1      34.873 -23.746 -14.374  0.00  0.00    +0.238 A 
ATOM     16  H   UNL     1      35.648 -23.193 -18.419  0.00  0.00    -0.079 HD
BRANCH  15  20
ATOM     17  F   UNL     1      36.925 -24.778 -13.701  0.00  0.00    -0.163 F 
ATOM     18  F   UNL     1      36.443 -22.864 -12.799  0.00  0.00    -0.163 F 
ATOM     19  F   UNL     1      35.336 -24.645 -12.222  0.00  0.00    -0.163 F 
ATOM     20  C   UNL     1      35.862 -23.999 -13.312  0.00  0.00    +0.452 C 
ENDBRANCH  15  20
ENDBRANCH   1   7
BRANCH   3  24
ATOM     21  F   UNL     1      34.546 -19.866 -23.381  0.00  0.00    -0.204 F 
ATOM     22  F   UNL     1      35.134 -14.447 -22.926  0.00  0.00    -0.202 F 
ATOM     23  F   UNL     1      34.618 -15.570 -25.363  0.00  0.00    -0.202 F 
ATOM     24  C   UNL     1      34.955 -17.961 -22.024  0.00  0.00    +0.005 C 
ATOM     25  C   UNL     1      34.692 -18.539 -23.262  0.00  0.00    +0.138 C 
ATOM     26  C   UNL     1      35.104 -16.584 -21.904  0.00  0.00    +0.030 C 
ATOM     27  C   UNL     1      34.991 -15.774 -23.034  0.00  0.00    +0.167 C 
ATOM     28  C   UNL     1      34.579 -17.729 -24.392  0.00  0.00    +0.061 C 
ATOM     29  C   UNL     1      34.728 -16.348 -24.278  0.00  0.00    +0.170 C 
ENDBRANCH   3  24
BRANCH   4  30
ATOM     30  N   UNL     1      37.561 -18.766 -20.765  0.00  0.00    +0.382 N 
ATOM     31  H   UNL     1      37.283 -17.851 -21.118  0.00  0.00    -0.089 HD
ATOM     32  H   UNL     1      38.282 -19.159 -21.370  0.00  0.00    -0.089 HD
ATOM     33  H   UNL     1      37.928 -18.668 -19.818  0.00  0.00    -0.089 HD
ENDBRANCH   4  30
TORSDOF 4
ENDMDL
MODEL 3
REMARK VINA RESULT:     -11.6      7.366     11.278
REMARK  Name = 11538992
REMARK  4 active torsions:
REMARK  status: ('A' for Active; 'I' for Inactive)
REMARK    1  A    between atoms: C_1  and  N_7
REMARK    2  A    between atoms: C_3  and  C_24
REMARK    3  A    between atoms: C_4  and  N_30
REMARK    4  A    between atoms: C_15  and  C_20
REMARK                            x       y       z     vdW  Elec       q    Type
REMARK                         _______ _______ _______ _____ _____    ______ ____
ROOT
ATOM      1  C   UNL     1      34.092 -12.197 -22.467  0.00  0.00    -0.059 C 
ATOM      2  C   UNL     1      32.657 -12.153 -21.933  0.00  0.00    -0.042 C 
ATOM      3  C   UNL     1      32.429  -9.750 -22.742  0.00  0.00    +0.005 C 
ATOM      4  C   UNL     1      32.244 -10.722 -21.548  0.00  0.00    -0.064 C 
ATOM      5  C   UNL     1      34.265 -11.249 -23.657  0.00  0.00    -0.021 C 
ATOM      6  C   UNL     1      33.868  -9.821 -23.289  0.00  0.00    +0.000 C 
ENDROOT
BRANCH   1   7
ATOM      7  N   UNL     1      34.430 -13.562 -22.869  0.00  0.00    +0.394 N 
ATOM      8  N   UNL     1      34.346 -16.301 -23.360  0.00  0.00    -0.299 N 
ATOM      9  N   UNL     1      33.364 -16.159 -25.303  0.00  0.00    -0.136 NA
ATOM     10  N   UNL     1      33.765 -17.470 -25.099  0.00  0.00    -0.125 NA
ATOM     11  C   UNL     1      34.403 -14.472 -21.709  0.00  0.00    -0.052 C 
ATOM     12  C   UNL     1      33.513 -14.029 -23.930  0.00  0.00    -0.009 C 
ATOM     13  C   UNL     1      34.914 -15.865 -22.106  0.00  0.00    +0.086 C 
ATOM     14  C   UNL     1      33.726 -15.466 -24.245  0.00  0.00    +0.122 A 
ATOM     15  C   UNL     1      34.355 -17.531 -23.924  0.00  0.00    +0.238 A 
ATOM     16  H   UNL     1      35.379 -13.562 -23.244  0.00  0.00    -0.079 HD
BRANCH  15  20
ATOM     17  F   UNL     1      36.268 -18.564 -22.923  0.00  0.00    -0.163 F 
ATOM     18  F   UNL     1      34.324 -19.119 -22.136  0.00  0.00    -0.163 F 
ATOM     19  F   UNL     1      34.944 -19.828 -24.096  0.00  0.00    -0.163 F 
ATOM     20  C   UNL     1      34.953 -18.718 -23.290  0.00  0.00    +0.452 C 
ENDBRANCH  15  20
ENDBRANCH   1   7
BRANCH   3  24
ATOM     21  F   UNL     1      33.139  -8.494 -20.297  0.00  0.00    -0.204 F 
ATOM     22  F   UNL     1      30.323  -5.495 -23.901  0.00  0.00    -0.202 F 
ATOM     23  F   UNL     1      31.072  -4.412 -21.507  0.00  0.00    -0.202 F 
ATOM     24  C   UNL     1      32.064  -8.310 -22.406  0.00  0.00    +0.005 C 
ATOM     25  C   UNL     1      32.448  -7.764 -21.185  0.00  0.00    +0.138 C 
ATOM     26  C   UNL     1      31.348  -7.550 -23.325  0.00  0.00    +0.030 C 
ATOM     27  C   UNL     1      31.012  -6.231 -23.021  0.00  0.00    +0.167 C 
ATOM     28  C   UNL     1      32.112  -6.446 -20.881  0.00  0.00    +0.061 C 
ATOM     29  C   UNL     1      31.394  -5.679 -21.798  0.00  0.00    +0.170 C 
ENDBRANCH   3  24
BRANCH   4  30
ATOM     30  N   UNL     1      30.851 -10.723 -21.090  0.00  0.00    +0.382 N 
ATOM     31  H   UNL     1      30.294 -10.119 -21.694  0.00  0.00    -0.089 HD
ATOM     32  H   UNL     1      30.807 -10.379 -20.132  0.00  0.00    -0.089 HD
ATOM     33  H   UNL     1      30.481 -11.674 -21.128  0.00  0.00    -0.089 HD
ENDBRANCH   4  30
TORSDOF 4
ENDMDL
MODEL 4
REMARK VINA RESULT:     -11.5      7.646     11.817
REMARK  Name = 11538992
REMARK  4 active torsions:
REMARK  status: ('A' for Active; 'I' for Inactive)
REMARK    1  A    between atoms: C_1  and  N_7
REMARK    2  A    between atoms: C_3  and  C_24
REMARK    3  A    between atoms: C_4  and  N_30
REMARK    4  A    between atoms: C_15  and  C_20
REMARK                            x       y       z     vdW  Elec       q    Type
REMARK                         _______ _______ _______ _____ _____    ______ ____
ROOT
ATOM      1  C   UNL     1      34.116 -11.717 -22.670  0.00  0.00    -0.059 C 
ATOM      2  C   UNL     1      32.681 -11.622 -22.141  0.00  0.00    -0.042 C 
ATOM      3  C   UNL     1      32.534  -9.219 -22.970  0.00  0.00    +0.005 C 
ATOM      4  C   UNL     1      32.314 -10.175 -21.769  0.00  0.00    -0.064 C 
ATOM      5  C   UNL     1      34.322 -10.785 -23.867  0.00  0.00    -0.021 C 
ATOM      6  C   UNL     1      33.972  -9.342 -23.512  0.00  0.00    +0.000 C 
ENDROOT
BRANCH   1   7
ATOM      7  N   UNL     1      34.410 -13.096 -23.061  0.00  0.00    +0.394 N 
ATOM      8  N   UNL     1      34.241 -15.836 -23.525  0.00  0.00    -0.299 N 
ATOM      9  N   UNL     1      33.254 -15.683 -25.464  0.00  0.00    -0.136 NA
ATOM     10  N   UNL     1      33.616 -17.003 -25.249  0.00  0.00    -0.125 NA
ATOM     11  C   UNL     1      34.361 -13.993 -21.892  0.00  0.00    -0.052 C 
ATOM     12  C   UNL     1      33.474 -13.544 -24.113  0.00  0.00    -0.009 C 
ATOM     13  C   UNL     1      34.828 -15.405 -22.278  0.00  0.00    +0.086 C 
ATOM     14  C   UNL     1      33.643 -14.990 -24.414  0.00  0.00    +0.122 A 
ATOM     15  C   UNL     1      34.210 -17.071 -24.077  0.00  0.00    +0.238 A 
ATOM     16  H   UNL     1      35.357 -13.128 -23.440  0.00  0.00    -0.079 HD
BRANCH  15  20
ATOM     17  F   UNL     1      34.155 -18.628 -22.261  0.00  0.00    -0.163 F 
ATOM     18  F   UNL     1      34.720 -19.404 -24.206  0.00  0.00    -0.163 F 
ATOM     19  F   UNL     1      36.099 -18.136 -23.101  0.00  0.00    -0.163 F 
ATOM     20  C   UNL     1      34.774 -18.269 -23.433  0.00  0.00    +0.452 C 
ENDBRANCH  15  20
ENDBRANCH   1   7
BRANCH   3  24
ATOM     21  F   UNL     1      30.673  -7.669 -24.449  0.00  0.00    -0.204 F 
ATOM     22  F   UNL     1      33.171  -5.208 -20.251  0.00  0.00    -0.202 F 
ATOM     23  F   UNL     1      31.355  -3.834 -21.761  0.00  0.00    -0.202 F 
ATOM     24  C   UNL     1      32.215  -7.766 -22.646  0.00  0.00    +0.005 C 
ATOM     25  C   UNL     1      31.289  -7.071 -23.419  0.00  0.00    +0.138 C 
ATOM     26  C   UNL     1      32.852  -7.144 -21.578  0.00  0.00    +0.030 C 
ATOM     27  C   UNL     1      32.562  -5.813 -21.278  0.00  0.00    +0.167 C 
ATOM     28  C   UNL     1      30.999  -5.741 -23.119  0.00  0.00    +0.061 C 
ATOM     29  C   UNL     1      31.635  -5.111 -22.050  0.00  0.00    +0.170 C 
ENDBRANCH   3  24
BRANCH   4  30
ATOM     30  N   UNL     1      30.920 -10.128 -21.316  0.00  0.00    +0.382 N 
ATOM     31  H   UNL     1      30.893  -9.897 -20.323  0.00  0.00    -0.089 HD
ATOM     32  H   UNL     1      30.483 -11.037 -21.466  0.00  0.00    -0.089 HD
ATOM     33  H   UNL     1      30.415  -9.416 -21.844  0.00  0.00    -0.089 HD
ENDBRANCH   4  30
TORSDOF 4
ENDMDL
MODEL 5
REMARK VINA RESULT:     -11.1      1.679      2.642
REMARK  Name = 11538992
REMARK  4 active torsions:
REMARK  status: ('A' for Active; 'I' for Inactive)
REMARK    1  A    between atoms: C_1  and  N_7
REMARK    2  A    between atoms: C_3  and  C_24
REMARK    3  A    between atoms: C_4  and  N_30
REMARK    4  A    between atoms: C_15  and  C_20
REMARK                            x       y       z     vdW  Elec       q    Type
REMARK                         _______ _______ _______ _____ _____    ______ ____
ROOT
ATOM      1  C   UNL     1      35.931 -20.700 -18.451  0.00  0.00    -0.059 C 
ATOM      2  C   UNL     1      34.601 -20.972 -19.162  0.00  0.00    -0.042 C 
ATOM      3  C   UNL     1      35.398 -19.621 -21.168  0.00  0.00    +0.005 C 
ATOM      4  C   UNL     1      34.251 -19.844 -20.148  0.00  0.00    -0.064 C 
ATOM      5  C   UNL     1      37.063 -20.500 -19.462  0.00  0.00    -0.021 C 
ATOM      6  C   UNL     1      36.736 -19.376 -20.443  0.00  0.00    +0.000 C 
ENDROOT
BRANCH   1   7
ATOM      7  N   UNL     1      36.254 -21.816 -17.562  0.00  0.00    +0.394 N 
ATOM      8  N   UNL     1      36.568 -23.448 -15.328  0.00  0.00    -0.299 N 
ATOM      9  N   UNL     1      34.560 -24.298 -15.377  0.00  0.00    -0.136 NA
ATOM     10  N   UNL     1      35.312 -24.980 -14.433  0.00  0.00    -0.125 NA
ATOM     11  C   UNL     1      37.226 -21.401 -16.533  0.00  0.00    -0.052 C 
ATOM     12  C   UNL     1      35.025 -22.353 -16.942  0.00  0.00    -0.009 C 
ATOM     13  C   UNL     1      37.683 -22.612 -15.706  0.00  0.00    +0.086 C 
ATOM     14  C   UNL     1      35.335 -23.378 -15.911  0.00  0.00    +0.122 A 
ATOM     15  C   UNL     1      36.517 -24.452 -14.422  0.00  0.00    +0.238 A 
ATOM     16  H   UNL     1      36.683 -22.557 -18.117  0.00  0.00    -0.079 HD
BRANCH  15  20
ATOM     17  F   UNL     1      37.428 -25.972 -12.815  0.00  0.00    -0.163 F 
ATOM     18  F   UNL     1      38.795 -25.171 -14.296  0.00  0.00    -0.163 F 
ATOM     19  F   UNL     1      38.055 -23.894 -12.698  0.00  0.00    -0.163 F 
ATOM     20  C   UNL     1      37.659 -24.860 -13.587  0.00  0.00    +0.452 C 
ENDBRANCH  15  20
ENDBRANCH   1   7
BRANCH   3  24
ATOM     21  F   UNL     1      34.548 -20.060 -23.840  0.00  0.00    -0.204 F 
ATOM     22  F   UNL     1      35.168 -14.862 -22.256  0.00  0.00    -0.202 F 
ATOM     23  F   UNL     1      34.354 -15.431 -24.802  0.00  0.00    -0.202 F 
ATOM     24  C   UNL     1      35.116 -18.492 -22.151  0.00  0.00    +0.005 C 
ATOM     25  C   UNL     1      34.703 -18.789 -23.446  0.00  0.00    +0.138 C 
ATOM     26  C   UNL     1      35.274 -17.172 -21.744  0.00  0.00    +0.030 C 
ATOM     27  C   UNL     1      35.017 -16.135 -22.641  0.00  0.00    +0.167 C 
ATOM     28  C   UNL     1      34.445 -17.752 -24.343  0.00  0.00    +0.061 C 
ATOM     29  C   UNL     1      34.603 -16.427 -23.941  0.00  0.00    +0.170 C 
ENDBRANCH   3  24
BRANCH   4  30
ATOM     30  N   UNL     1      32.999 -20.172 -20.838  0.00  0.00    +0.382 N 
ATOM     31  H   UNL     1      32.209 -19.854 -20.277  0.00  0.00    -0.089 HD
ATOM     32  H   UNL     1      32.938 -21.181 -20.971  0.00  0.00    -0.089 HD
ATOM     33  H   UNL     1      32.979 -19.708 -21.746  0.00  0.00    -0.089 HD
ENDBRANCH   4  30
TORSDOF 4
ENDMDL
MODEL 6
REMARK VINA RESULT:     -10.9      7.104     10.785
REMARK  Name = 11538992
REMARK  4 active torsions:
REMARK  status: ('A' for Active; 'I' for Inactive)
REMARK    1  A    between atoms: C_1  and  N_7
REMARK    2  A    between atoms: C_3  and  C_24
REMARK    3  A    between atoms: C_4  and  N_30
REMARK    4  A    between atoms: C_15  and  C_20
REMARK                            x       y       z     vdW  Elec       q    Type
REMARK                         _______ _______ _______ _____ _____    ______ ____
ROOT
ATOM      1  C   UNL     1      32.759 -12.511 -22.475  0.00  0.00    -0.059 C 
ATOM      2  C   UNL     1      33.881 -11.636 -23.043  0.00  0.00    -0.042 C 
ATOM      3  C   UNL     1      32.874  -9.600 -21.895  0.00  0.00    +0.005 C 
ATOM      4  C   UNL     1      33.420 -10.180 -23.225  0.00  0.00    -0.064 C 
ATOM      5  C   UNL     1      32.236 -11.945 -21.153  0.00  0.00    -0.021 C 
ATOM      6  C   UNL     1      31.765 -10.501 -21.317  0.00  0.00    +0.000 C 
ENDROOT
BRANCH   1   7
ATOM      7  N   UNL     1      33.248 -13.874 -22.270  0.00  0.00    +0.394 N 
ATOM      8  N   UNL     1      34.877 -16.096 -21.866  0.00  0.00    -0.299 N 
ATOM      9  N   UNL     1      34.978 -15.919 -19.694  0.00  0.00    -0.136 NA
ATOM     10  N   UNL     1      35.553 -17.122 -20.072  0.00  0.00    -0.125 NA
ATOM     11  C   UNL     1      34.152 -14.277 -23.363  0.00  0.00    -0.052 C 
ATOM     12  C   UNL     1      33.921 -13.987 -20.959  0.00  0.00    -0.009 C 
ATOM     13  C   UNL     1      34.533 -15.759 -23.227  0.00  0.00    +0.086 C 
ATOM     14  C   UNL     1      34.570 -15.314 -20.790  0.00  0.00    +0.122 A 
ATOM     15  C   UNL     1      35.480 -17.207 -21.383  0.00  0.00    +0.238 A 
ATOM     16  H   UNL     1      32.448 -14.508 -22.275  0.00  0.00    -0.079 HD
BRANCH  15  20
ATOM     17  F   UNL     1      35.520 -19.557 -21.833  0.00  0.00    -0.163 F 
ATOM     18  F   UNL     1      35.566 -18.227 -23.546  0.00  0.00    -0.163 F 
ATOM     19  F   UNL     1      37.320 -18.421 -22.275  0.00  0.00    -0.163 F 
ATOM     20  C   UNL     1      35.953 -18.315 -22.230  0.00  0.00    +0.452 C 
ENDBRANCH  15  20
ENDBRANCH   1   7
BRANCH   3  24
ATOM     21  F   UNL     1      33.489  -7.560 -20.019  0.00  0.00    -0.204 F 
ATOM     22  F   UNL     1      30.349  -6.155 -24.271  0.00  0.00    -0.202 F 
ATOM     23  F   UNL     1      31.019  -4.292 -22.388  0.00  0.00    -0.202 F 
ATOM     24  C   UNL     1      32.374  -8.167 -22.025  0.00  0.00    +0.005 C 
ATOM     25  C   UNL     1      32.719  -7.223 -21.063  0.00  0.00    +0.138 C 
ATOM     26  C   UNL     1      31.576  -7.813 -23.108  0.00  0.00    +0.030 C 
ATOM     27  C   UNL     1      31.117  -6.502 -23.231  0.00  0.00    +0.167 C 
ATOM     28  C   UNL     1      32.260  -5.912 -21.186  0.00  0.00    +0.061 C 
ATOM     29  C   UNL     1      31.459  -5.551 -22.269  0.00  0.00    +0.170 C 
ENDBRANCH   3  24
BRANCH   4  30
ATOM     30  N   UNL     1      34.540  -9.374 -23.722  0.00  0.00    +0.382 N 
ATOM     31  H   UNL     1      34.181  -8.621 -24.309  0.00  0.00    -0.089 HD
ATOM     32  H   UNL     1      35.166  -9.963 -24.270  0.00  0.00    -0.089 HD
ATOM     33  H   UNL     1      35.050  -8.977 -22.933  0.00  0.00    -0.089 HD
ENDBRANCH   4  30
TORSDOF 4
ENDMDL
MODEL 7
REMARK VINA RESULT:     -10.4      7.421     11.177
REMARK  Name = 11538992
REMARK  4 active torsions:
REMARK  status: ('A' for Active; 'I' for Inactive)
REMARK    1  A    between atoms: C_1  and  N_7
REMARK    2  A    between atoms: C_3  and  C_24
REMARK    3  A    between atoms: C_4  and  N_30
REMARK    4  A    between atoms: C_15  and  C_20
REMARK                            x       y       z     vdW  Elec       q    Type
REMARK                         _______ _______ _______ _____ _____    ______ ____
ROOT
ATOM      1  C   UNL     1      32.529 -12.215 -22.186  0.00  0.00    -0.059 C 
ATOM      2  C   UNL     1      33.577 -11.316 -22.850  0.00  0.00    -0.042 C 
ATOM      3  C   UNL     1      32.699  -9.321 -21.535  0.00  0.00    +0.005 C 
ATOM      4  C   UNL     1      33.093  -9.858 -22.935  0.00  0.00    -0.064 C 
ATOM      5  C   UNL     1      32.157 -11.692 -20.797  0.00  0.00    -0.021 C 
ATOM      6  C   UNL     1      31.665 -10.247 -20.863  0.00  0.00    +0.000 C 
ENDROOT
BRANCH   1   7
ATOM      7  N   UNL     1      33.044 -13.580 -22.078  0.00  0.00    +0.394 N 
ATOM      8  N   UNL     1      34.715 -15.796 -21.854  0.00  0.00    -0.299 N 
ATOM      9  N   UNL     1      34.869 -15.752 -19.679  0.00  0.00    -0.136 NA
ATOM     10  N   UNL     1      35.453 -16.920 -20.145  0.00  0.00    -0.125 NA
ATOM     11  C   UNL     1      33.925 -13.900 -23.217  0.00  0.00    -0.052 C 
ATOM     12  C   UNL     1      33.752 -13.764 -20.794  0.00  0.00    -0.009 C 
ATOM     13  C   UNL     1      34.331 -15.381 -23.183  0.00  0.00    +0.086 C 
ATOM     14  C   UNL     1      34.425 -15.087 -20.724  0.00  0.00    +0.122 A 
ATOM     15  C   UNL     1      35.347 -16.925 -21.457  0.00  0.00    +0.238 A 
ATOM     16  H   UNL     1      32.254 -14.226 -22.103  0.00  0.00    -0.079 HD
BRANCH  15  20
ATOM     17  F   UNL     1      35.157 -19.171 -22.260  0.00  0.00    -0.163 F 
ATOM     18  F   UNL     1      35.684 -17.648 -23.712  0.00  0.00    -0.163 F 
ATOM     19  F   UNL     1      37.141 -18.282 -22.227  0.00  0.00    -0.163 F 
ATOM     20  C   UNL     1      35.814 -17.971 -22.383  0.00  0.00    +0.452 C 
ENDBRANCH  15  20
ENDBRANCH   1   7
BRANCH   3  24
ATOM     21  F   UNL     1      30.366  -8.537 -22.949  0.00  0.00    -0.204 F 
ATOM     22  F   UNL     1      33.054  -4.624 -20.233  0.00  0.00    -0.202 F 
ATOM     23  F   UNL     1      30.792  -4.010 -21.637  0.00  0.00    -0.202 F 
ATOM     24  C   UNL     1      32.182  -7.889 -21.565  0.00  0.00    +0.005 C 
ATOM     25  C   UNL     1      31.030  -7.583 -22.282  0.00  0.00    +0.138 C 
ATOM     26  C   UNL     1      32.868  -6.897 -20.872  0.00  0.00    +0.030 C 
ATOM     27  C   UNL     1      32.399  -5.584 -20.897  0.00  0.00    +0.167 C 
ATOM     28  C   UNL     1      30.560  -6.270 -22.306  0.00  0.00    +0.061 C 
ATOM     29  C   UNL     1      31.244  -5.271 -21.615  0.00  0.00    +0.170 C 
ENDBRANCH   3  24
BRANCH   4  30
ATOM     30  N   UNL     1      34.147  -9.030 -23.531  0.00  0.00    +0.382 N 
ATOM     31  H   UNL     1      34.982  -9.596 -23.678  0.00  0.00    -0.089 HD
ATOM     32  H   UNL     1      34.366  -8.256 -22.904  0.00  0.00    -0.089 HD
ATOM     33  H   UNL     1      33.824  -8.662 -24.426  0.00  0.00    -0.089 HD
ENDBRANCH   4  30
TORSDOF 4
ENDMDL
MODEL 8
REMARK VINA RESULT:     -10.3      8.349     13.740
REMARK  Name = 11538992
REMARK  4 active torsions:
REMARK  status: ('A' for Active; 'I' for Inactive)
REMARK    1  A    between atoms: C_1  and  N_7
REMARK    2  A    between atoms: C_3  and  C_24
REMARK    3  A    between atoms: C_4  and  N_30
REMARK    4  A    between atoms: C_15  and  C_20
REMARK                            x       y       z     vdW  Elec       q    Type
REMARK                         _______ _______ _______ _____ _____    ______ ____
ROOT
ATOM      1  C   UNL     1      32.648 -10.968 -22.914  0.00  0.00    -0.059 C 
ATOM      2  C   UNL     1      32.380 -11.628 -21.557  0.00  0.00    -0.042 C 
ATOM      3  C   UNL     1      34.150 -13.387 -22.065  0.00  0.00    +0.005 C 
ATOM      4  C   UNL     1      32.694 -13.134 -21.594  0.00  0.00    -0.064 C 
ATOM      5  C   UNL     1      34.091 -11.205 -23.365  0.00  0.00    -0.021 C 
ATOM      6  C   UNL     1      34.417 -12.697 -23.417  0.00  0.00    +0.000 C 
ENDROOT
BRANCH   1   7
ATOM      7  N   UNL     1      32.387  -9.531 -22.826  0.00  0.00    +0.394 N 
ATOM      8  N   UNL     1      32.580  -6.810 -22.272  0.00  0.00    -0.299 N 
ATOM      9  N   UNL     1      33.802  -6.305 -24.007  0.00  0.00    -0.136 NA
ATOM     10  N   UNL     1      33.400  -5.133 -23.386  0.00  0.00    -0.125 NA
ATOM     11  C   UNL     1      32.281  -9.103 -21.419  0.00  0.00    -0.052 C 
ATOM     12  C   UNL     1      33.441  -8.773 -23.532  0.00  0.00    -0.009 C 
ATOM     13  C   UNL     1      31.848  -7.631 -21.336  0.00  0.00    +0.086 C 
ATOM     14  C   UNL     1      33.294  -7.308 -23.323  0.00  0.00    +0.122 A 
ATOM     15  C   UNL     1      32.664  -5.461 -22.345  0.00  0.00    +0.238 A 
ATOM     16  H   UNL     1      31.494  -9.337 -23.280  0.00  0.00    -0.079 HD
BRANCH  15  20
ATOM     17  F   UNL     1      31.894  -3.253 -21.841  0.00  0.00    -0.163 F 
ATOM     18  F   UNL     1      30.728  -4.905 -21.055  0.00  0.00    -0.163 F 
ATOM     19  F   UNL     1      32.673  -4.443 -20.197  0.00  0.00    -0.163 F 
ATOM     20  C   UNL     1      32.011  -4.547 -21.394  0.00  0.00    +0.452 C 
ENDBRANCH  15  20
ENDBRANCH   1   7
BRANCH   3  24
ATOM     21  F   UNL     1      35.125 -14.882 -19.858  0.00  0.00    -0.204 F 
ATOM     22  F   UNL     1      34.529 -17.552 -24.594  0.00  0.00    -0.202 F 
ATOM     23  F   UNL     1      35.460 -18.868 -22.387  0.00  0.00    -0.202 F 
ATOM     24  C   UNL     1      34.504 -14.866 -22.149  0.00  0.00    +0.005 C 
ATOM     25  C   UNL     1      34.978 -15.530 -21.022  0.00  0.00    +0.138 C 
ATOM     26  C   UNL     1      34.351 -15.542 -23.355  0.00  0.00    +0.030 C 
ATOM     27  C   UNL     1      34.675 -16.896 -23.436  0.00  0.00    +0.167 C 
ATOM     28  C   UNL     1      35.301 -16.884 -21.103  0.00  0.00    +0.061 C 
ATOM     29  C   UNL     1      35.150 -17.567 -22.309  0.00  0.00    +0.170 C 
ENDBRANCH   3  24
BRANCH   4  30
ATOM     30  N   UNL     1      32.471 -13.710 -20.264  0.00  0.00    +0.382 N 
ATOM     31  H   UNL     1      32.360 -12.959 -19.583  0.00  0.00    -0.089 HD
ATOM     32  H   UNL     1      33.270 -14.289 -20.005  0.00  0.00    -0.089 HD
ATOM     33  H   UNL     1      31.627 -14.283 -20.279  0.00  0.00    -0.089 HD
ENDBRANCH   4  30
TORSDOF 4
ENDMDL
MODEL 9
REMARK VINA RESULT:     -10.0      9.549     14.875
REMARK  Name = 11538992
REMARK  4 active torsions:
REMARK  status: ('A' for Active; 'I' for Inactive)
REMARK    1  A    between atoms: C_1  and  N_7
REMARK    2  A    between atoms: C_3  and  C_24
REMARK    3  A    between atoms: C_4  and  N_30
REMARK    4  A    between atoms: C_15  and  C_20
REMARK                            x       y       z     vdW  Elec       q    Type
REMARK                         _______ _______ _______ _____ _____    ______ ____
ROOT
ATOM      1  C   UNL     1      33.101  -9.469 -22.219  0.00  0.00    -0.059 C 
ATOM      2  C   UNL     1      33.612  -9.747 -23.637  0.00  0.00    -0.042 C 
ATOM      3  C   UNL     1      33.144 -12.229 -23.318  0.00  0.00    +0.005 C 
ATOM      4  C   UNL     1      34.186 -11.169 -23.758  0.00  0.00    -0.064 C 
ATOM      5  C   UNL     1      32.059 -10.508 -21.797  0.00  0.00    -0.021 C 
ATOM      6  C   UNL     1      32.617 -11.926 -21.902  0.00  0.00    +0.000 C 
ENDROOT
BRANCH   1   7
ATOM      7  N   UNL     1      32.518  -8.129 -22.156  0.00  0.00    +0.394 N 
ATOM      8  N   UNL     1      32.153  -5.369 -22.188  0.00  0.00    -0.299 N 
ATOM      9  N   UNL     1      31.879  -5.196 -24.346  0.00  0.00    -0.136 NA
ATOM     10  N   UNL     1      31.587  -3.976 -23.758  0.00  0.00    -0.125 NA
ATOM     11  C   UNL     1      33.140  -7.337 -21.079  0.00  0.00    -0.052 C 
ATOM     12  C   UNL     1      32.651  -7.447 -23.460  0.00  0.00    -0.009 C 
ATOM     13  C   UNL     1      32.414  -5.993 -20.912  0.00  0.00    +0.086 C 
ATOM     14  C   UNL     1      32.215  -6.028 -23.383  0.00  0.00    +0.122 A 
ATOM     15  C   UNL     1      31.757  -4.104 -22.459  0.00  0.00    +0.238 A 
ATOM     16  H   UNL     1      31.524  -8.221 -21.942  0.00  0.00    -0.079 HD
BRANCH  15  20
ATOM     17  F   UNL     1      32.380  -3.188 -20.339  0.00  0.00    -0.163 F 
ATOM     18  F   UNL     1      31.751  -1.786 -21.870  0.00  0.00    -0.163 F 
ATOM     19  F   UNL     1      30.284  -3.070 -20.906  0.00  0.00    -0.163 F 
ATOM     20  C   UNL     1      31.552  -3.072 -21.429  0.00  0.00    +0.452 C 
ENDBRANCH  15  20
ENDBRANCH   1   7
BRANCH   3  24
ATOM     21  F   UNL     1      32.737 -13.930 -25.553  0.00  0.00    -0.204 F 
ATOM     22  F   UNL     1      35.577 -15.987 -21.356  0.00  0.00    -0.202 F 
ATOM     23  F   UNL     1      35.109 -17.514 -23.573  0.00  0.00    -0.202 F 
ATOM     24  C   UNL     1      33.673 -13.656 -23.389  0.00  0.00    +0.005 C 
ATOM     25  C   UNL     1      33.432 -14.428 -24.521  0.00  0.00    +0.138 C 
ATOM     26  C   UNL     1      34.395 -14.175 -22.320  0.00  0.00    +0.030 C 
ATOM     27  C   UNL     1      34.881 -15.481 -22.382  0.00  0.00    +0.167 C 
ATOM     28  C   UNL     1      33.917 -15.734 -24.583  0.00  0.00    +0.061 C 
ATOM     29  C   UNL     1      34.641 -16.261 -23.514  0.00  0.00    +0.170 C 
ENDBRANCH   3  24
BRANCH   4  30
ATOM     30  N   UNL     1      34.615 -11.404 -25.141  0.00  0.00    +0.382 N 
ATOM     31  H   UNL     1      34.034 -10.856 -25.774  0.00  0.00    -0.089 HD
ATOM     32  H   UNL     1      34.519 -12.395 -25.363  0.00  0.00    -0.089 HD
ATOM     33  H   UNL     1      35.590 -11.125 -25.247  0.00  0.00    -0.089 HD
ENDBRANCH   4  30
TORSDOF 4
ENDMDL
