MODEL 1
REMARK VINA RESULT:     -12.1      0.000      0.000
REMARK  Name = 115368
REMARK  5 active torsions:
REMARK  status: ('A' for Active; 'I' for Inactive)
REMARK    1  A    between atoms: N_2  and  C_17
REMARK    2  A    between atoms: C_17  and  C_18
REMARK    3  A    between atoms: C_18  and  C_19
REMARK    4  A    between atoms: C_19  and  C_20
REMARK    5  A    between atoms: C_20  and  N_23
REMARK                            x       y       z     vdW  Elec       q    Type
REMARK                         _______ _______ _______ _____ _____    ______ ____
ROOT
ATOM      1  S   UNL     1      33.795 -15.674 -25.297  0.00  0.00    +0.014 S 
ATOM      2  N   UNL     1      35.974 -19.976 -20.762  0.00  0.00    +0.389 N 
ATOM      3  N   UNL     1      35.165 -17.970 -22.630  0.00  0.00    -0.297 N 
ATOM      4  N   UNL     1      34.318 -17.126 -24.695  0.00  0.00    -0.194 NA
ATOM      5  C   UNL     1      36.497 -18.608 -20.664  0.00  0.00    -0.055 C 
ATOM      6  C   UNL     1      34.605 -19.958 -21.297  0.00  0.00    -0.055 C 
ATOM      7  C   UNL     1      36.502 -17.916 -22.030  0.00  0.00    +0.069 C 
ATOM      8  C   UNL     1      34.577 -19.314 -22.684  0.00  0.00    +0.069 C 
ATOM      9  C   UNL     1      34.682 -16.952 -23.423  0.00  0.00    +0.140 A 
ATOM     10  C   UNL     1      34.553 -15.626 -22.881  0.00  0.00    +0.040 A 
ATOM     11  C   UNL     1      34.045 -14.766 -23.857  0.00  0.00    +0.050 A 
ATOM     12  C   UNL     1      34.838 -15.099 -21.602  0.00  0.00    +0.003 C 
ATOM     13  C   UNL     1      33.814 -13.405 -23.607  0.00  0.00    +0.008 C 
ATOM     14  C   UNL     1      34.611 -13.744 -21.343  0.00  0.00    +0.000 C 
ATOM     15  C   UNL     1      34.107 -12.910 -22.334  0.00  0.00    +0.001 C 
ATOM     16  H   UNL     1      36.566 -20.507 -21.401  0.00  0.00    -0.080 HD
ENDROOT
BRANCH   2  17
ATOM     17  C   UNL     1      36.006 -20.634 -19.456  0.00  0.00    -0.077 C 
BRANCH  17  18
ATOM     18  C   UNL     1      34.662 -21.297 -19.162  0.00  0.00    -0.021 C 
BRANCH  18  19
ATOM     19  C   UNL     1      34.786 -22.319 -18.026  0.00  0.00    +0.020 C 
BRANCH  19  20
ATOM     20  C   UNL     1      33.546 -23.196 -17.889  0.00  0.00    +0.101 C 
BRANCH  20  23
ATOM     21  O   UNL     1      34.689 -24.123 -15.321  0.00  0.00    -0.274 OA
ATOM     22  O   UNL     1      30.920 -22.139 -17.123  0.00  0.00    -0.274 OA
ATOM     23  N   UNL     1      32.967 -23.129 -16.562  0.00  0.00    -0.230 N 
ATOM     24  C   UNL     1      32.755 -23.102 -14.252  0.00  0.00    +0.086 C 
ATOM     25  C   UNL     1      31.365 -22.945 -14.879  0.00  0.00    +0.086 C 
ATOM     26  C   UNL     1      32.839 -23.988 -13.016  0.00  0.00    +0.010 C 
ATOM     27  C   UNL     1      30.494 -24.204 -14.827  0.00  0.00    +0.010 C 
ATOM     28  C   UNL     1      31.993 -25.250 -13.116  0.00  0.00    +0.001 C 
ATOM     29  C   UNL     1      30.554 -24.911 -13.481  0.00  0.00    +0.001 C 
ATOM     30  C   UNL     1      33.612 -23.555 -15.416  0.00  0.00    +0.231 C 
ATOM     31  C   UNL     1      31.694 -22.647 -16.324  0.00  0.00    +0.231 C 
ENDBRANCH  20  23
ENDBRANCH  19  20
ENDBRANCH  18  19
ENDBRANCH  17  18
ENDBRANCH   2  17
TORSDOF 5
ENDMDL
MODEL 2
REMARK VINA RESULT:     -11.7      1.891      2.550
REMARK  Name = 115368
REMARK  5 active torsions:
REMARK  status: ('A' for Active; 'I' for Inactive)
REMARK    1  A    between atoms: N_2  and  C_17
REMARK    2  A    between atoms: C_17  and  C_18
REMARK    3  A    between atoms: C_18  and  C_19
REMARK    4  A    between atoms: C_19  and  C_20
REMARK    5  A    between atoms: C_20  and  N_23
REMARK                            x       y       z     vdW  Elec       q    Type
REMARK                         _______ _______ _______ _____ _____    ______ ____
ROOT
ATOM      1  S   UNL     1      34.048 -14.651 -25.737  0.00  0.00    +0.014 S 
ATOM      2  N   UNL     1      35.293 -19.416 -21.314  0.00  0.00    +0.389 N 
ATOM      3  N   UNL     1      34.844 -17.217 -23.083  0.00  0.00    -0.297 N 
ATOM      4  N   UNL     1      34.519 -16.141 -25.188  0.00  0.00    -0.194 NA
ATOM      5  C   UNL     1      35.641 -18.048 -20.910  0.00  0.00    -0.055 C 
ATOM      6  C   UNL     1      34.127 -19.399 -22.208  0.00  0.00    -0.055 C 
ATOM      7  C   UNL     1      35.955 -17.173 -22.127  0.00  0.00    +0.069 C 
ATOM      8  C   UNL     1      34.420 -18.570 -23.459  0.00  0.00    +0.069 C 
ATOM      9  C   UNL     1      34.504 -16.127 -23.853  0.00  0.00    +0.140 A 
ATOM     10  C   UNL     1      34.110 -14.899 -23.217  0.00  0.00    +0.040 A 
ATOM     11  C   UNL     1      33.811 -13.940 -24.188  0.00  0.00    +0.050 A 
ATOM     12  C   UNL     1      33.986 -14.540 -21.857  0.00  0.00    +0.003 C 
ATOM     13  C   UNL     1      33.396 -12.642 -23.854  0.00  0.00    +0.008 C 
ATOM     14  C   UNL     1      33.573 -13.249 -21.514  0.00  0.00    +0.000 C 
ATOM     15  C   UNL     1      33.283 -12.314 -22.501  0.00  0.00    +0.001 C 
ATOM     16  H   UNL     1      36.084 -19.819 -21.817  0.00  0.00    -0.080 HD
ENDROOT
BRANCH   2  17
ATOM     17  C   UNL     1      35.029 -20.247 -20.139  0.00  0.00    -0.077 C 
BRANCH  17  18
ATOM     18  C   UNL     1      33.532 -20.528 -20.014  0.00  0.00    -0.021 C 
BRANCH  18  19
ATOM     19  C   UNL     1      33.226 -21.339 -18.750  0.00  0.00    +0.020 C 
BRANCH  19  20
ATOM     20  C   UNL     1      34.202 -22.493 -18.543  0.00  0.00    +0.101 C 
BRANCH  20  23
ATOM     21  O   UNL     1      36.840 -21.869 -17.358  0.00  0.00    -0.274 OA
ATOM     22  O   UNL     1      32.644 -23.472 -16.260  0.00  0.00    -0.274 OA
ATOM     23  N   UNL     1      34.627 -22.616 -17.163  0.00  0.00    -0.230 N 
ATOM     24  C   UNL     1      35.823 -22.332 -15.196  0.00  0.00    +0.086 C 
ATOM     25  C   UNL     1      34.672 -23.312 -14.939  0.00  0.00    +0.086 C 
ATOM     26  C   UNL     1      37.150 -22.661 -14.524  0.00  0.00    +0.010 C 
ATOM     27  C   UNL     1      35.093 -24.783 -14.846  0.00  0.00    +0.010 C 
ATOM     28  C   UNL     1      37.498 -24.143 -14.566  0.00  0.00    +0.001 C 
ATOM     29  C   UNL     1      36.354 -24.985 -14.018  0.00  0.00    +0.001 C 
ATOM     30  C   UNL     1      35.880 -22.250 -16.707  0.00  0.00    +0.231 C 
ATOM     31  C   UNL     1      33.816 -23.135 -16.173  0.00  0.00    +0.231 C 
ENDBRANCH  20  23
ENDBRANCH  19  20
ENDBRANCH  18  19
ENDBRANCH  17  18
ENDBRANCH   2  17
TORSDOF 5
ENDMDL
MODEL 3
REMARK VINA RESULT:     -11.6      4.438     10.588
REMARK  Name = 115368
REMARK  5 active torsions:
REMARK  status: ('A' for Active; 'I' for Inactive)
REMARK    1  A    between atoms: N_2  and  C_17
REMARK    2  A    between atoms: C_17  and  C_18
REMARK    3  A    between atoms: C_18  and  C_19
REMARK    4  A    between atoms: C_19  and  C_20
REMARK    5  A    between atoms: C_20  and  N_23
REMARK                            x       y       z     vdW  Elec       q    Type
REMARK                         _______ _______ _______ _____ _____    ______ ____
ROOT
ATOM      1  S   UNL     1      36.929 -20.544 -19.175  0.00  0.00    +0.014 S 
ATOM      2  N   UNL     1      34.486 -16.824 -24.075  0.00  0.00    +0.389 N 
ATOM      3  N   UNL     1      35.396 -18.584 -22.015  0.00  0.00    -0.297 N 
ATOM      4  N   UNL     1      36.957 -19.503 -20.463  0.00  0.00    -0.194 NA
ATOM      5  C   UNL     1      33.829 -18.117 -23.852  0.00  0.00    -0.055 C 
ATOM      6  C   UNL     1      34.998 -16.290 -22.805  0.00  0.00    -0.055 C 
ATOM      7  C   UNL     1      34.795 -19.133 -23.235  0.00  0.00    +0.069 C 
ATOM      8  C   UNL     1      36.004 -17.258 -22.180  0.00  0.00    +0.069 C 
ATOM      9  C   UNL     1      35.716 -19.382 -20.939  0.00  0.00    +0.140 A 
ATOM     10  C   UNL     1      34.686 -20.135 -20.277  0.00  0.00    +0.040 A 
ATOM     11  C   UNL     1      35.239 -20.865 -19.223  0.00  0.00    +0.050 A 
ATOM     12  C   UNL     1      33.297 -20.240 -20.512  0.00  0.00    +0.003 C 
ATOM     13  C   UNL     1      34.463 -21.694 -18.398  0.00  0.00    +0.008 C 
ATOM     14  C   UNL     1      32.515 -21.063 -19.696  0.00  0.00    +0.000 C 
ATOM     15  C   UNL     1      33.092 -21.780 -18.654  0.00  0.00    +0.001 C 
ATOM     16  H   UNL     1      35.272 -16.963 -24.711  0.00  0.00    -0.080 HD
ENDROOT
BRANCH   2  17
ATOM     17  C   UNL     1      33.560 -15.876 -24.695  0.00  0.00    -0.077 C 
BRANCH  17  18
ATOM     18  C   UNL     1      34.064 -14.446 -24.515  0.00  0.00    -0.021 C 
BRANCH  18  19
ATOM     19  C   UNL     1      33.041 -13.589 -23.763  0.00  0.00    +0.020 C 
BRANCH  19  20
ATOM     20  C   UNL     1      33.655 -12.843 -22.583  0.00  0.00    +0.101 C 
BRANCH  20  23
ATOM     21  O   UNL     1      33.307  -9.993 -23.298  0.00  0.00    -0.274 OA
ATOM     22  O   UNL     1      31.743 -13.234 -20.394  0.00  0.00    -0.274 OA
ATOM     23  N   UNL     1      32.746 -11.870 -22.011  0.00  0.00    -0.230 N 
ATOM     24  C   UNL     1      31.432  -9.976 -21.746  0.00  0.00    +0.086 C 
ATOM     25  C   UNL     1      31.298 -10.851 -20.494  0.00  0.00    +0.086 C 
ATOM     26  C   UNL     1      31.504  -8.473 -21.510  0.00  0.00    +0.010 C 
ATOM     27  C   UNL     1      32.072 -10.344 -19.273  0.00  0.00    +0.010 C 
ATOM     28  C   UNL     1      32.367  -8.087 -20.317  0.00  0.00    +0.001 C 
ATOM     29  C   UNL     1      31.934  -8.843 -19.068  0.00  0.00    +0.001 C 
ATOM     30  C   UNL     1      32.633 -10.565 -22.455  0.00  0.00    +0.231 C 
ATOM     31  C   UNL     1      31.915 -12.156 -20.945  0.00  0.00    +0.231 C 
ENDBRANCH  20  23
ENDBRANCH  19  20
ENDBRANCH  18  19
ENDBRANCH  17  18
ENDBRANCH   2  17
TORSDOF 5
ENDMDL
MODEL 4
REMARK VINA RESULT:     -11.0      2.139      3.165
REMARK  Name = 115368
REMARK  5 active torsions:
REMARK  status: ('A' for Active; 'I' for Inactive)
REMARK    1  A    between atoms: N_2  and  C_17
REMARK    2  A    between atoms: C_17  and  C_18
REMARK    3  A    between atoms: C_18  and  C_19
REMARK    4  A    between atoms: C_19  and  C_20
REMARK    5  A    between atoms: C_20  and  N_23
REMARK                            x       y       z     vdW  Elec       q    Type
REMARK                         _______ _______ _______ _____ _____    ______ ____
ROOT
ATOM      1  S   UNL     1      34.042 -15.119 -25.507  0.00  0.00    +0.014 S 
ATOM      2  N   UNL     1      35.340 -19.781 -20.989  0.00  0.00    +0.389 N 
ATOM      3  N   UNL     1      34.898 -17.630 -22.819  0.00  0.00    -0.297 N 
ATOM      4  N   UNL     1      34.428 -16.623 -24.931  0.00  0.00    -0.194 NA
ATOM      5  C   UNL     1      35.865 -18.439 -20.708  0.00  0.00    -0.055 C 
ATOM      6  C   UNL     1      34.083 -19.685 -21.744  0.00  0.00    -0.055 C 
ATOM      7  C   UNL     1      36.115 -17.657 -22.001  0.00  0.00    +0.069 C 
ATOM      8  C   UNL     1      34.302 -18.948 -23.066  0.00  0.00    +0.069 C 
ATOM      9  C   UNL     1      34.575 -16.547 -23.606  0.00  0.00    +0.140 A 
ATOM     10  C   UNL     1      34.381 -15.257 -23.001  0.00  0.00    +0.040 A 
ATOM     11  C   UNL     1      34.062 -14.318 -23.984  0.00  0.00    +0.050 A 
ATOM     12  C   UNL     1      34.456 -14.825 -21.658  0.00  0.00    +0.003 C 
ATOM     13  C   UNL     1      33.819 -12.970 -23.680  0.00  0.00    +0.008 C 
ATOM     14  C   UNL     1      34.214 -13.485 -21.345  0.00  0.00    +0.000 C 
ATOM     15  C   UNL     1      33.900 -12.571 -22.344  0.00  0.00    +0.001 C 
ATOM     16  H   UNL     1      36.022 -20.286 -21.556  0.00  0.00    -0.080 HD
ENDROOT
BRANCH   2  17
ATOM     17  C   UNL     1      35.139 -20.526 -19.747  0.00  0.00    -0.077 C 
BRANCH  17  18
ATOM     18  C   UNL     1      36.483 -20.841 -19.093  0.00  0.00    -0.021 C 
BRANCH  18  19
ATOM     19  C   UNL     1      36.350 -21.984 -18.080  0.00  0.00    +0.020 C 
BRANCH  19  20
ATOM     20  C   UNL     1      36.777 -21.573 -16.675  0.00  0.00    +0.101 C 
BRANCH  20  23
ATOM     21  O   UNL     1      34.274 -22.660 -15.532  0.00  0.00    -0.274 OA
ATOM     22  O   UNL     1      38.868 -23.154 -15.359  0.00  0.00    -0.274 OA
ATOM     23  N   UNL     1      36.610 -22.644 -15.712  0.00  0.00    -0.230 N 
ATOM     24  C   UNL     1      35.659 -24.354 -14.466  0.00  0.00    +0.086 C 
ATOM     25  C   UNL     1      37.116 -24.171 -14.025  0.00  0.00    +0.086 C 
ATOM     26  C   UNL     1      34.651 -24.631 -13.358  0.00  0.00    +0.010 C 
ATOM     27  C   UNL     1      37.294 -23.450 -12.685  0.00  0.00    +0.010 C 
ATOM     28  C   UNL     1      34.882 -23.796 -12.106  0.00  0.00    +0.001 C 
ATOM     29  C   UNL     1      36.319 -23.932 -11.621  0.00  0.00    +0.001 C 
ATOM     30  C   UNL     1      35.382 -23.105 -15.277  0.00  0.00    +0.231 C 
ATOM     31  C   UNL     1      37.677 -23.293 -15.121  0.00  0.00    +0.231 C 
ENDBRANCH  20  23
ENDBRANCH  19  20
ENDBRANCH  18  19
ENDBRANCH  17  18
ENDBRANCH   2  17
TORSDOF 5
ENDMDL
MODEL 5
REMARK VINA RESULT:     -10.9      3.670      6.452
REMARK  Name = 115368
REMARK  5 active torsions:
REMARK  status: ('A' for Active; 'I' for Inactive)
REMARK    1  A    between atoms: N_2  and  C_17
REMARK    2  A    between atoms: C_17  and  C_18
REMARK    3  A    between atoms: C_18  and  C_19
REMARK    4  A    between atoms: C_19  and  C_20
REMARK    5  A    between atoms: C_20  and  N_23
REMARK                            x       y       z     vdW  Elec       q    Type
REMARK                         _______ _______ _______ _____ _____    ______ ____
ROOT
ATOM      1  S   UNL     1      31.223  -9.842 -19.508  0.00  0.00    +0.014 S 
ATOM      2  N   UNL     1      34.049 -14.937 -22.650  0.00  0.00    +0.389 N 
ATOM      3  N   UNL     1      32.781 -12.653 -21.489  0.00  0.00    -0.297 N 
ATOM      4  N   UNL     1      31.623 -11.421 -19.806  0.00  0.00    -0.194 NA
ATOM      5  C   UNL     1      33.515 -13.865 -23.499  0.00  0.00    -0.055 C 
ATOM      6  C   UNL     1      34.524 -14.383 -21.374  0.00  0.00    -0.055 C 
ATOM      7  C   UNL     1      32.361 -13.133 -22.810  0.00  0.00    +0.069 C 
ATOM      8  C   UNL     1      33.384 -13.682 -20.633  0.00  0.00    +0.069 C 
ATOM      9  C   UNL     1      32.300 -11.479 -20.955  0.00  0.00    +0.140 A 
ATOM     10  C   UNL     1      32.522 -10.237 -21.646  0.00  0.00    +0.040 A 
ATOM     11  C   UNL     1      31.951  -9.187 -20.923  0.00  0.00    +0.050 A 
ATOM     12  C   UNL     1      33.183  -9.938 -22.857  0.00  0.00    +0.003 C 
ATOM     13  C   UNL     1      32.014  -7.856 -21.362  0.00  0.00    +0.008 C 
ATOM     14  C   UNL     1      33.251  -8.615 -23.303  0.00  0.00    +0.000 C 
ATOM     15  C   UNL     1      32.673  -7.589 -22.564  0.00  0.00    +0.001 C 
ATOM     16  H   UNL     1      33.301 -15.603 -22.457  0.00  0.00    -0.080 HD
ENDROOT
BRANCH   2  17
ATOM     17  C   UNL     1      35.128 -15.647 -23.335  0.00  0.00    -0.077 C 
BRANCH  17  18
ATOM     18  C   UNL     1      34.945 -17.157 -23.192  0.00  0.00    -0.021 C 
BRANCH  18  19
ATOM     19  C   UNL     1      35.908 -17.734 -22.149  0.00  0.00    +0.020 C 
BRANCH  19  20
ATOM     20  C   UNL     1      35.228 -18.002 -20.809  0.00  0.00    +0.101 C 
BRANCH  20  23
ATOM     21  O   UNL     1      33.200 -20.075 -20.228  0.00  0.00    -0.274 OA
ATOM     22  O   UNL     1      37.765 -19.339 -20.192  0.00  0.00    -0.274 OA
ATOM     23  N   UNL     1      35.428 -19.362 -20.351  0.00  0.00    -0.230 N 
ATOM     24  C   UNL     1      35.062 -21.607 -19.897  0.00  0.00    +0.086 C 
ATOM     25  C   UNL     1      36.459 -21.222 -19.397  0.00  0.00    +0.086 C 
ATOM     26  C   UNL     1      34.265 -22.550 -19.004  0.00  0.00    +0.010 C 
ATOM     27  C   UNL     1      36.572 -21.053 -17.878  0.00  0.00    +0.010 C 
ATOM     28  C   UNL     1      34.392 -22.232 -17.521  0.00  0.00    +0.001 C 
ATOM     29  C   UNL     1      35.855 -22.151 -17.106  0.00  0.00    +0.001 C 
ATOM     30  C   UNL     1      34.403 -20.268 -20.153  0.00  0.00    +0.231 C 
ATOM     31  C   UNL     1      36.675 -19.874 -20.048  0.00  0.00    +0.231 C 
ENDBRANCH  20  23
ENDBRANCH  19  20
ENDBRANCH  18  19
ENDBRANCH  17  18
ENDBRANCH   2  17
TORSDOF 5
ENDMDL
MODEL 6
REMARK VINA RESULT:     -10.8      2.525      3.177
REMARK  Name = 115368
REMARK  5 active torsions:
REMARK  status: ('A' for Active; 'I' for Inactive)
REMARK    1  A    between atoms: N_2  and  C_17
REMARK    2  A    between atoms: C_17  and  C_18
REMARK    3  A    between atoms: C_18  and  C_19
REMARK    4  A    between atoms: C_19  and  C_20
REMARK    5  A    between atoms: C_20  and  N_23
REMARK                            x       y       z     vdW  Elec       q    Type
REMARK                         _______ _______ _______ _____ _____    ______ ____
ROOT
ATOM      1  S   UNL     1      34.518 -15.790 -24.571  0.00  0.00    +0.014 S 
ATOM      2  N   UNL     1      35.865 -20.549 -20.172  0.00  0.00    +0.389 N 
ATOM      3  N   UNL     1      35.405 -18.360 -21.951  0.00  0.00    -0.297 N 
ATOM      4  N   UNL     1      34.901 -17.308 -24.032  0.00  0.00    -0.194 NA
ATOM      5  C   UNL     1      36.410 -19.219 -19.877  0.00  0.00    -0.055 C 
ATOM      6  C   UNL     1      34.593 -20.427 -20.897  0.00  0.00    -0.055 C 
ATOM      7  C   UNL     1      36.639 -18.415 -21.160  0.00  0.00    +0.069 C 
ATOM      8  C   UNL     1      34.791 -19.667 -22.210  0.00  0.00    +0.069 C 
ATOM      9  C   UNL     1      35.077 -17.259 -22.710  0.00  0.00    +0.140 A 
ATOM     10  C   UNL     1      34.909 -15.979 -22.076  0.00  0.00    +0.040 A 
ATOM     11  C   UNL     1      34.579 -15.018 -23.035  0.00  0.00    +0.050 A 
ATOM     12  C   UNL     1      35.017 -15.574 -20.727  0.00  0.00    +0.003 C 
ATOM     13  C   UNL     1      34.356 -13.674 -22.700  0.00  0.00    +0.008 C 
ATOM     14  C   UNL     1      34.796 -14.237 -20.384  0.00  0.00    +0.000 C 
ATOM     15  C   UNL     1      34.470 -13.301 -21.359  0.00  0.00    +0.001 C 
ATOM     16  H   UNL     1      36.529 -21.050 -20.763  0.00  0.00    -0.080 HD
ENDROOT
BRANCH   2  17
ATOM     17  C   UNL     1      35.683 -21.316 -18.940  0.00  0.00    -0.077 C 
BRANCH  17  18
ATOM     18  C   UNL     1      36.769 -20.960 -17.927  0.00  0.00    -0.021 C 
BRANCH  18  19
ATOM     19  C   UNL     1      36.961 -22.084 -16.904  0.00  0.00    +0.020 C 
BRANCH  19  20
ATOM     20  C   UNL     1      36.379 -21.738 -15.537  0.00  0.00    +0.101 C 
BRANCH  20  23
ATOM     21  O   UNL     1      37.760 -22.496 -13.032  0.00  0.00    -0.274 OA
ATOM     22  O   UNL     1      34.517 -23.958 -15.986  0.00  0.00    -0.274 OA
ATOM     23  N   UNL     1      36.177 -22.911 -14.710  0.00  0.00    -0.230 N 
ATOM     24  C   UNL     1      36.184 -24.345 -12.887  0.00  0.00    +0.086 C 
ATOM     25  C   UNL     1      35.528 -25.058 -14.075  0.00  0.00    +0.086 C 
ATOM     26  C   UNL     1      37.100 -25.195 -12.015  0.00  0.00    +0.010 C 
ATOM     27  C   UNL     1      36.410 -26.108 -14.758  0.00  0.00    +0.010 C 
ATOM     28  C   UNL     1      37.986 -26.143 -12.812  0.00  0.00    +0.001 C 
ATOM     29  C   UNL     1      37.154 -26.990 -13.766  0.00  0.00    +0.001 C 
ATOM     30  C   UNL     1      36.851 -23.145 -13.526  0.00  0.00    +0.231 C 
ATOM     31  C   UNL     1      35.296 -23.921 -15.045  0.00  0.00    +0.231 C 
ENDBRANCH  20  23
ENDBRANCH  19  20
ENDBRANCH  18  19
ENDBRANCH  17  18
ENDBRANCH   2  17
TORSDOF 5
ENDMDL
MODEL 7
REMARK VINA RESULT:     -10.7      4.564     10.962
REMARK  Name = 115368
REMARK  5 active torsions:
REMARK  status: ('A' for Active; 'I' for Inactive)
REMARK    1  A    between atoms: N_2  and  C_17
REMARK    2  A    between atoms: C_17  and  C_18
REMARK    3  A    between atoms: C_18  and  C_19
REMARK    4  A    between atoms: C_19  and  C_20
REMARK    5  A    between atoms: C_20  and  N_23
REMARK                            x       y       z     vdW  Elec       q    Type
REMARK                         _______ _______ _______ _____ _____    ______ ____
ROOT
ATOM      1  S   UNL     1      35.724 -24.597 -11.469  0.00  0.00    +0.014 S 
ATOM      2  N   UNL     1      34.620 -22.052 -17.479  0.00  0.00    +0.389 N 
ATOM      3  N   UNL     1      35.307 -23.096 -14.909  0.00  0.00    -0.297 N 
ATOM      4  N   UNL     1      34.925 -23.750 -12.646  0.00  0.00    -0.194 NA
ATOM      5  C   UNL     1      36.013 -22.046 -17.017  0.00  0.00    -0.055 C 
ATOM      6  C   UNL     1      33.908 -23.213 -16.927  0.00  0.00    -0.055 C 
ATOM      7  C   UNL     1      36.091 -22.001 -15.488  0.00  0.00    +0.069 C 
ATOM      8  C   UNL     1      33.925 -23.179 -15.398  0.00  0.00    +0.069 C 
ATOM      9  C   UNL     1      35.685 -23.724 -13.743  0.00  0.00    +0.140 A 
ATOM     10  C   UNL     1      36.956 -24.393 -13.672  0.00  0.00    +0.040 A 
ATOM     11  C   UNL     1      37.123 -24.954 -12.405  0.00  0.00    +0.050 A 
ATOM     12  C   UNL     1      37.987 -24.559 -14.623  0.00  0.00    +0.003 C 
ATOM     13  C   UNL     1      38.277 -25.671 -12.050  0.00  0.00    +0.008 C 
ATOM     14  C   UNL     1      39.140 -25.271 -14.280  0.00  0.00    +0.000 C 
ATOM     15  C   UNL     1      39.281 -25.819 -13.010  0.00  0.00    +0.001 C 
ATOM     16  H   UNL     1      34.162 -21.203 -17.148  0.00  0.00    -0.080 HD
ENDROOT
BRANCH   2  17
ATOM     17  C   UNL     1      34.563 -22.061 -18.941  0.00  0.00    -0.077 C 
BRANCH  17  18
ATOM     18  C   UNL     1      35.896 -21.602 -19.528  0.00  0.00    -0.021 C 
BRANCH  18  19
ATOM     19  C   UNL     1      35.864 -20.109 -19.871  0.00  0.00    +0.020 C 
BRANCH  19  20
ATOM     20  C   UNL     1      34.648 -19.726 -20.709  0.00  0.00    +0.101 C 
BRANCH  20  23
ATOM     21  O   UNL     1      35.045 -16.825 -20.282  0.00  0.00    -0.274 OA
ATOM     22  O   UNL     1      34.972 -20.038 -23.607  0.00  0.00    -0.274 OA
ATOM     23  N   UNL     1      34.952 -18.700 -21.686  0.00  0.00    -0.230 N 
ATOM     24  C   UNL     1      35.664 -16.705 -22.633  0.00  0.00    +0.086 C 
ATOM     25  C   UNL     1      35.141 -17.622 -23.745  0.00  0.00    +0.086 C 
ATOM     26  C   UNL     1      35.313 -15.228 -22.759  0.00  0.00    +0.010 C 
ATOM     27  C   UNL     1      33.756 -17.249 -24.283  0.00  0.00    +0.010 C 
ATOM     28  C   UNL     1      33.884 -14.983 -23.225  0.00  0.00    +0.001 C 
ATOM     29  C   UNL     1      33.592 -15.753 -24.506  0.00  0.00    +0.001 C 
ATOM     30  C   UNL     1      35.164 -17.371 -21.368  0.00  0.00    +0.231 C 
ATOM     31  C   UNL     1      35.039 -18.957 -23.041  0.00  0.00    +0.231 C 
ENDBRANCH  20  23
ENDBRANCH  19  20
ENDBRANCH  18  19
ENDBRANCH  17  18
ENDBRANCH   2  17
TORSDOF 5
ENDMDL
MODEL 8
REMARK VINA RESULT:     -10.6      7.945     14.609
REMARK  Name = 115368
REMARK  5 active torsions:
REMARK  status: ('A' for Active; 'I' for Inactive)
REMARK    1  A    between atoms: N_2  and  C_17
REMARK    2  A    between atoms: C_17  and  C_18
REMARK    3  A    between atoms: C_18  and  C_19
REMARK    4  A    between atoms: C_19  and  C_20
REMARK    5  A    between atoms: C_20  and  N_23
REMARK                            x       y       z     vdW  Elec       q    Type
REMARK                         _______ _______ _______ _____ _____    ______ ____
ROOT
ATOM      1  S   UNL     1      34.562 -16.378 -24.606  0.00  0.00    +0.014 S 
ATOM      2  N   UNL     1      32.853 -10.221 -22.878  0.00  0.00    +0.389 N 
ATOM      3  N   UNL     1      33.507 -12.947 -23.435  0.00  0.00    -0.297 N 
ATOM      4  N   UNL     1      33.976 -14.842 -24.806  0.00  0.00    -0.194 NA
ATOM      5  C   UNL     1      32.582 -11.271 -21.890  0.00  0.00    -0.055 C 
ATOM      6  C   UNL     1      34.048 -10.560 -23.663  0.00  0.00    -0.055 C 
ATOM      7  C   UNL     1      32.368 -12.629 -22.566  0.00  0.00    +0.069 C 
ATOM      8  C   UNL     1      33.854 -11.890 -24.392  0.00  0.00    +0.069 C 
ATOM      9  C   UNL     1      33.945 -14.240 -23.615  0.00  0.00    +0.140 A 
ATOM     10  C   UNL     1      34.396 -15.005 -22.485  0.00  0.00    +0.040 A 
ATOM     11  C   UNL     1      34.791 -16.277 -22.904  0.00  0.00    +0.050 A 
ATOM     12  C   UNL     1      34.496 -14.688 -21.112  0.00  0.00    +0.003 C 
ATOM     13  C   UNL     1      35.278 -17.242 -22.009  0.00  0.00    +0.008 C 
ATOM     14  C   UNL     1      34.981 -15.642 -20.212  0.00  0.00    +0.000 C 
ATOM     15  C   UNL     1      35.366 -16.902 -20.657  0.00  0.00    +0.001 C 
ATOM     16  H   UNL     1      32.056 -10.154 -23.511  0.00  0.00    -0.080 HD
ENDROOT
BRANCH   2  17
ATOM     17  C   UNL     1      33.021  -8.925 -22.219  0.00  0.00    -0.077 C 
BRANCH  17  18
ATOM     18  C   UNL     1      31.662  -8.347 -21.830  0.00  0.00    -0.021 C 
BRANCH  18  19
ATOM     19  C   UNL     1      31.785  -7.412 -20.622  0.00  0.00    +0.020 C 
BRANCH  19  20
ATOM     20  C   UNL     1      32.538  -6.127 -20.948  0.00  0.00    +0.101 C 
BRANCH  20  23
ATOM     21  O   UNL     1      33.999  -5.809 -23.502  0.00  0.00    -0.274 OA
ATOM     22  O   UNL     1      29.944  -4.872 -21.488  0.00  0.00    -0.274 OA
ATOM     23  N   UNL     1      32.084  -5.519 -22.183  0.00  0.00    -0.230 N 
ATOM     24  C   UNL     1      31.916  -4.958 -24.428  0.00  0.00    +0.086 C 
ATOM     25  C   UNL     1      30.829  -4.209 -23.647  0.00  0.00    +0.086 C 
ATOM     26  C   UNL     1      32.606  -4.176 -25.538  0.00  0.00    +0.010 C 
ATOM     27  C   UNL     1      31.117  -2.722 -23.417  0.00  0.00    +0.010 C 
ATOM     28  C   UNL     1      32.913  -2.733 -25.161  0.00  0.00    +0.001 C 
ATOM     29  C   UNL     1      31.663  -2.026 -24.655  0.00  0.00    +0.001 C 
ATOM     30  C   UNL     1      32.839  -5.464 -23.340  0.00  0.00    +0.231 C 
ATOM     31  C   UNL     1      30.848  -4.915 -22.310  0.00  0.00    +0.231 C 
ENDBRANCH  20  23
ENDBRANCH  19  20
ENDBRANCH  18  19
ENDBRANCH  17  18
ENDBRANCH   2  17
TORSDOF 5
ENDMDL
MODEL 9
REMARK VINA RESULT:     -10.5      3.759     10.222
REMARK  Name = 115368
REMARK  5 active torsions:
REMARK  status: ('A' for Active; 'I' for Inactive)
REMARK    1  A    between atoms: N_2  and  C_17
REMARK    2  A    between atoms: C_17  and  C_18
REMARK    3  A    between atoms: C_18  and  C_19
REMARK    4  A    between atoms: C_19  and  C_20
REMARK    5  A    between atoms: C_20  and  N_23
REMARK                            x       y       z     vdW  Elec       q    Type
REMARK                         _______ _______ _______ _____ _____    ______ ____
ROOT
ATOM      1  S   UNL     1      34.927 -24.505 -14.009  0.00  0.00    +0.014 S 
ATOM      2  N   UNL     1      35.532 -21.151 -19.683  0.00  0.00    +0.389 N 
ATOM      3  N   UNL     1      35.073 -22.663 -17.301  0.00  0.00    -0.297 N 
ATOM      4  N   UNL     1      35.676 -23.917 -15.363  0.00  0.00    -0.194 NA
ATOM      5  C   UNL     1      34.254 -21.841 -19.470  0.00  0.00    -0.055 C 
ATOM      6  C   UNL     1      36.092 -20.713 -18.397  0.00  0.00    -0.055 C 
ATOM      7  C   UNL     1      34.425 -23.058 -18.556  0.00  0.00    +0.069 C 
ATOM      8  C   UNL     1      36.321 -21.909 -17.473  0.00  0.00    +0.069 C 
ATOM      9  C   UNL     1      34.772 -23.273 -16.104  0.00  0.00    +0.140 A 
ATOM     10  C   UNL     1      33.425 -23.231 -15.601  0.00  0.00    +0.040 A 
ATOM     11  C   UNL     1      33.357 -23.908 -14.382  0.00  0.00    +0.050 A 
ATOM     12  C   UNL     1      32.245 -22.649 -16.114  0.00  0.00    +0.003 C 
ATOM     13  C   UNL     1      32.160 -24.028 -13.659  0.00  0.00    +0.008 C 
ATOM     14  C   UNL     1      31.048 -22.762 -15.402  0.00  0.00    +0.000 C 
ATOM     15  C   UNL     1      31.008 -23.443 -14.190  0.00  0.00    +0.001 C 
ATOM     16  H   UNL     1      36.186 -21.802 -20.118  0.00  0.00    -0.080 HD
ENDROOT
BRANCH   2  17
ATOM     17  C   UNL     1      35.357 -20.011 -20.583  0.00  0.00    -0.077 C 
BRANCH  17  18
ATOM     18  C   UNL     1      36.614 -19.143 -20.591  0.00  0.00    -0.021 C 
BRANCH  18  19
ATOM     19  C   UNL     1      36.675 -18.270 -21.849  0.00  0.00    +0.020 C 
BRANCH  19  20
ATOM     20  C   UNL     1      35.294 -17.836 -22.329  0.00  0.00    +0.101 C 
BRANCH  20  23
ATOM     21  O   UNL     1      34.800 -16.232 -19.892  0.00  0.00    -0.274 OA
ATOM     22  O   UNL     1      35.236 -15.842 -24.479  0.00  0.00    -0.274 OA
ATOM     23  N   UNL     1      35.093 -16.405 -22.210  0.00  0.00    -0.230 N 
ATOM     24  C   UNL     1      34.967 -14.268 -21.319  0.00  0.00    +0.086 C 
ATOM     25  C   UNL     1      34.596 -14.207 -22.806  0.00  0.00    +0.086 C 
ATOM     26  C   UNL     1      34.144 -13.389 -20.385  0.00  0.00    +0.010 C 
ATOM     27  C   UNL     1      33.098 -14.053 -23.086  0.00  0.00    +0.010 C 
ATOM     28  C   UNL     1      32.658 -13.380 -20.714  0.00  0.00    +0.001 C 
ATOM     29  C   UNL     1      32.429 -13.031 -22.179  0.00  0.00    +0.001 C 
ATOM     30  C   UNL     1      34.913 -15.748 -21.007  0.00  0.00    +0.231 C 
ATOM     31  C   UNL     1      35.041 -15.563 -23.305  0.00  0.00    +0.231 C 
ENDBRANCH  20  23
ENDBRANCH  19  20
ENDBRANCH  18  19
ENDBRANCH  17  18
ENDBRANCH   2  17
TORSDOF 5
ENDMDL
