MODEL 1
REMARK VINA RESULT:     -12.1      0.000      0.000
REMARK  Name = 5496659
REMARK  9 active torsions:
REMARK  status: ('A' for Active; 'I' for Inactive)
REMARK    1  A    between atoms: C_1  and  N_4
REMARK    2  A    between atoms: C_1  and  C_20
REMARK    3  A    between atoms: C_5  and  C_7
REMARK    4  A    between atoms: C_10  and  C_15
REMARK    5  A    between atoms: C_20  and  C_22
REMARK    6  A    between atoms: C_20  and  C_25
REMARK    7  A    between atoms: C_22  and  O_23
REMARK    8  A    between atoms: C_25  and  C_26
REMARK    9  A    between atoms: C_29  and  C_34
REMARK                            x       y       z     vdW  Elec       q    Type
REMARK                         _______ _______ _______ _____ _____    ______ ____
ROOT
ATOM      1  C   UNL     1      33.376 -23.761 -15.607  0.00  0.00    +0.083 C 
ATOM      2  C   UNL     1      32.057 -23.494 -14.884  0.00  0.00    +0.022 C 
ENDROOT
BRANCH   1   4
ATOM      3  O   UNL     1      33.657 -24.222 -18.427  0.00  0.00    -0.270 OA
ATOM      4  N   UNL     1      33.596 -22.762 -16.627  0.00  0.00    -0.302 N 
ATOM      5  C   UNL     1      33.719 -23.084 -17.970  0.00  0.00    +0.246 C 
ATOM      6  H   UNL     1      33.661 -21.817 -16.358  0.00  0.00    +0.150 HD
BRANCH   5   7
ATOM      7  C   UNL     1      33.968 -21.945 -18.889  0.00  0.00    +0.053 C 
ATOM      8  C   UNL     1      32.900 -21.180 -19.357  0.00  0.00    +0.005 C 
ATOM      9  C   UNL     1      35.270 -21.640 -19.286  0.00  0.00    +0.005 C 
ATOM     10  C   UNL     1      34.436 -19.805 -20.618  0.00  0.00    +0.000 C 
ATOM     11  C   UNL     1      33.133 -20.110 -20.222  0.00  0.00    +0.000 C 
ATOM     12  C   UNL     1      35.504 -20.571 -20.150  0.00  0.00    +0.000 C 
BRANCH  10  15
ATOM     13  O   UNL     1      35.361 -15.586 -24.036  0.00  0.00    -0.163 OA
ATOM     14  N   UNL     1      35.148 -16.561 -23.246  0.00  0.00    -0.127 N 
ATOM     15  C   UNL     1      34.680 -18.697 -21.516  0.00  0.00    +0.003 C 
ATOM     16  C   UNL     1      34.300 -18.787 -22.851  0.00  0.00    +0.022 C 
ATOM     17  C   UNL     1      35.293 -17.541 -21.045  0.00  0.00    +0.022 C 
ATOM     18  C   UNL     1      34.539 -17.715 -23.703  0.00  0.00    +0.121 C 
ATOM     19  C   UNL     1      35.521 -16.483 -21.919  0.00  0.00    +0.121 C 
ENDBRANCH  10  15
ENDBRANCH   5   7
ENDBRANCH   1   4
BRANCH   1  20
ATOM     20  C   UNL     1      34.567 -23.883 -14.629  0.00  0.00    +0.121 C 
BRANCH  20  22
ATOM     21  O   UNL     1      35.691 -21.785 -14.102  0.00  0.00    -0.250 OA
ATOM     22  C   UNL     1      35.574 -22.757 -14.838  0.00  0.00    +0.319 C 
BRANCH  22  23
ATOM     23  O   UNL     1      36.312 -23.002 -15.960  0.00  0.00    -0.444 OA
ATOM     24  C   UNL     1      37.290 -22.008 -16.283  0.00  0.00    +0.256 C 
ENDBRANCH  22  23
ENDBRANCH  20  22
BRANCH  20  25
ATOM     25  C   UNL     1      35.275 -25.250 -14.747  0.00  0.00    +0.039 C 
BRANCH  25  26
ATOM     26  C   UNL     1      36.503 -25.350 -13.873  0.00  0.00    -0.021 C 
ATOM     27  C   UNL     1      37.739 -25.662 -14.439  0.00  0.00    -0.002 C 
ATOM     28  C   UNL     1      36.400 -25.133 -12.498  0.00  0.00    -0.004 C 
ATOM     29  C   UNL     1      38.872 -25.757 -13.631  0.00  0.00    +0.030 C 
ATOM     30  C   UNL     1      37.533 -25.227 -11.691  0.00  0.00    -0.000 C 
ATOM     31  C   UNL     1      38.769 -25.540 -12.257  0.00  0.00    +0.003 C 
BRANCH  29  34
ATOM     32  N   UNL     1      41.120 -26.807 -13.512  0.00  0.00    -0.343 N 
ATOM     33  N   UNL     1      40.440 -25.692 -15.451  0.00  0.00    -0.285 NA
ATOM     34  C   UNL     1      40.161 -26.085 -14.221  0.00  0.00    +0.117 C 
ATOM     35  H   UNL     1      41.985 -27.017 -13.931  0.00  0.00    +0.144 HD
ATOM     36  H   UNL     1      40.931 -27.106 -12.594  0.00  0.00    +0.144 HD
ATOM     37  H   UNL     1      41.312 -25.913 -15.852  0.00  0.00    +0.188 HD
ENDBRANCH  29  34
ENDBRANCH  25  26
ENDBRANCH  20  25
ENDBRANCH   1  20
TORSDOF 9
ENDMDL
MODEL 2
REMARK VINA RESULT:     -11.7      1.736      2.841
REMARK  Name = 5496659
REMARK  9 active torsions:
REMARK  status: ('A' for Active; 'I' for Inactive)
REMARK    1  A    between atoms: C_1  and  N_4
REMARK    2  A    between atoms: C_1  and  C_20
REMARK    3  A    between atoms: C_5  and  C_7
REMARK    4  A    between atoms: C_10  and  C_15
REMARK    5  A    between atoms: C_20  and  C_22
REMARK    6  A    between atoms: C_20  and  C_25
REMARK    7  A    between atoms: C_22  and  O_23
REMARK    8  A    between atoms: C_25  and  C_26
REMARK    9  A    between atoms: C_29  and  C_34
REMARK                            x       y       z     vdW  Elec       q    Type
REMARK                         _______ _______ _______ _____ _____    ______ ____
ROOT
ATOM      1  C   UNL     1      31.969 -23.583 -15.739  0.00  0.00    +0.083 C 
ATOM      2  C   UNL     1      30.627 -23.159 -15.145  0.00  0.00    +0.022 C 
ENDROOT
BRANCH   1   4
ATOM      3  O   UNL     1      33.710 -24.102 -17.963  0.00  0.00    -0.270 OA
ATOM      4  N   UNL     1      32.390 -22.635 -16.745  0.00  0.00    -0.302 N 
ATOM      5  C   UNL     1      33.237 -22.982 -17.786  0.00  0.00    +0.246 C 
ATOM      6  H   UNL     1      32.064 -21.708 -16.688  0.00  0.00    +0.150 HD
BRANCH   5   7
ATOM      7  C   UNL     1      33.596 -21.887 -18.722  0.00  0.00    +0.053 C 
ATOM      8  C   UNL     1      34.937 -21.614 -18.996  0.00  0.00    +0.005 C 
ATOM      9  C   UNL     1      32.594 -21.130 -19.327  0.00  0.00    +0.005 C 
ATOM     10  C   UNL     1      34.271 -19.828 -20.481  0.00  0.00    +0.000 C 
ATOM     11  C   UNL     1      35.274 -20.585 -19.875  0.00  0.00    +0.000 C 
ATOM     12  C   UNL     1      32.930 -20.101 -20.206  0.00  0.00    +0.000 C 
BRANCH  10  15
ATOM     13  O   UNL     1      35.592 -15.757 -23.947  0.00  0.00    -0.163 OA
ATOM     14  N   UNL     1      35.288 -16.698 -23.146  0.00  0.00    -0.127 N 
ATOM     15  C   UNL     1      34.619 -18.759 -21.391  0.00  0.00    +0.003 C 
ATOM     16  C   UNL     1      34.347 -18.886 -22.749  0.00  0.00    +0.022 C 
ATOM     17  C   UNL     1      35.224 -17.604 -20.910  0.00  0.00    +0.022 C 
ATOM     18  C   UNL     1      34.685 -17.851 -23.614  0.00  0.00    +0.121 C 
ATOM     19  C   UNL     1      35.553 -16.583 -21.796  0.00  0.00    +0.121 C 
ENDBRANCH  10  15
ENDBRANCH   5   7
ENDBRANCH   1   4
BRANCH   1  20
ATOM     20  C   UNL     1      33.045 -23.814 -14.653  0.00  0.00    +0.121 C 
BRANCH  20  22
ATOM     21  O   UNL     1      32.501 -23.182 -12.362  0.00  0.00    -0.250 OA
ATOM     22  C   UNL     1      32.413 -23.993 -13.276  0.00  0.00    +0.319 C 
BRANCH  22  23
ATOM     23  O   UNL     1      31.747 -25.184 -13.227  0.00  0.00    -0.444 OA
ATOM     24  C   UNL     1      30.461 -25.144 -12.601  0.00  0.00    +0.256 C 
ENDBRANCH  22  23
ENDBRANCH  20  22
BRANCH  20  25
ATOM     25  C   UNL     1      34.080 -22.670 -14.611  0.00  0.00    +0.039 C 
BRANCH  25  26
ATOM     26  C   UNL     1      35.504 -23.165 -14.707  0.00  0.00    -0.021 C 
ATOM     27  C   UNL     1      35.855 -24.393 -14.146  0.00  0.00    -0.002 C 
ATOM     28  C   UNL     1      36.469 -22.393 -15.355  0.00  0.00    -0.004 C 
ATOM     29  C   UNL     1      37.170 -24.849 -14.233  0.00  0.00    +0.030 C 
ATOM     30  C   UNL     1      37.784 -22.850 -15.442  0.00  0.00    -0.000 C 
ATOM     31  C   UNL     1      38.135 -24.077 -14.881  0.00  0.00    +0.003 C 
BRANCH  29  34
ATOM     32  N   UNL     1      36.982 -26.559 -12.442  0.00  0.00    -0.343 N 
ATOM     33  N   UNL     1      38.414 -26.905 -14.256  0.00  0.00    -0.285 NA
ATOM     34  C   UNL     1      37.536 -26.129 -13.646  0.00  0.00    +0.117 C 
ATOM     35  H   UNL     1      37.244 -27.429 -12.063  0.00  0.00    +0.144 HD
ATOM     36  H   UNL     1      36.328 -25.994 -11.971  0.00  0.00    +0.144 HD
ATOM     37  H   UNL     1      38.663 -27.772 -13.860  0.00  0.00    +0.188 HD
ENDBRANCH  29  34
ENDBRANCH  25  26
ENDBRANCH  20  25
ENDBRANCH   1  20
TORSDOF 9
ENDMDL
MODEL 3
REMARK VINA RESULT:     -11.0      6.058     10.587
REMARK  Name = 5496659
REMARK  9 active torsions:
REMARK  status: ('A' for Active; 'I' for Inactive)
REMARK    1  A    between atoms: C_1  and  N_4
REMARK    2  A    between atoms: C_1  and  C_20
REMARK    3  A    between atoms: C_5  and  C_7
REMARK    4  A    between atoms: C_10  and  C_15
REMARK    5  A    between atoms: C_20  and  C_22
REMARK    6  A    between atoms: C_20  and  C_25
REMARK    7  A    between atoms: C_22  and  O_23
REMARK    8  A    between atoms: C_25  and  C_26
REMARK    9  A    between atoms: C_29  and  C_34
REMARK                            x       y       z     vdW  Elec       q    Type
REMARK                         _______ _______ _______ _____ _____    ______ ____
ROOT
ATOM      1  C   UNL     1      34.261 -15.524 -20.907  0.00  0.00    +0.083 C 
ATOM      2  C   UNL     1      35.016 -15.650 -19.585  0.00  0.00    +0.022 C 
ENDROOT
BRANCH   1   4
ATOM      3  O   UNL     1      31.932 -14.230 -19.838  0.00  0.00    -0.270 OA
ATOM      4  N   UNL     1      33.860 -14.153 -21.123  0.00  0.00    -0.302 N 
ATOM      5  C   UNL     1      32.712 -13.616 -20.561  0.00  0.00    +0.246 C 
ATOM      6  H   UNL     1      34.423 -13.579 -21.692  0.00  0.00    +0.150 HD
BRANCH   5   7
ATOM      7  C   UNL     1      32.426 -12.199 -20.900  0.00  0.00    +0.053 C 
ATOM      8  C   UNL     1      31.787 -11.375 -19.974  0.00  0.00    +0.005 C 
ATOM      9  C   UNL     1      32.794 -11.692 -22.146  0.00  0.00    +0.005 C 
ATOM     10  C   UNL     1      31.887  -9.537 -21.539  0.00  0.00    +0.000 C 
ATOM     11  C   UNL     1      31.517 -10.044 -20.293  0.00  0.00    +0.000 C 
ATOM     12  C   UNL     1      32.525 -10.362 -22.466  0.00  0.00    +0.000 C 
BRANCH  10  15
ATOM     13  O   UNL     1      30.815  -4.285 -22.808  0.00  0.00    -0.163 OA
ATOM     14  N   UNL     1      31.063  -5.499 -22.515  0.00  0.00    -0.127 N 
ATOM     15  C   UNL     1      31.606  -8.158 -21.872  0.00  0.00    +0.003 C 
ATOM     16  C   UNL     1      31.354  -7.798 -23.192  0.00  0.00    +0.022 C 
ATOM     17  C   UNL     1      31.587  -7.190 -20.874  0.00  0.00    +0.022 C 
ATOM     18  C   UNL     1      31.085  -6.469 -23.499  0.00  0.00    +0.121 C 
ATOM     19  C   UNL     1      31.315  -5.867 -21.207  0.00  0.00    +0.121 C 
ENDBRANCH  10  15
ENDBRANCH   5   7
ENDBRANCH   1   4
BRANCH   1  20
ATOM     20  C   UNL     1      35.060 -16.103 -22.097  0.00  0.00    +0.121 C 
BRANCH  20  22
ATOM     21  O   UNL     1      35.198 -14.059 -23.418  0.00  0.00    -0.250 OA
ATOM     22  C   UNL     1      34.896 -15.244 -23.347  0.00  0.00    +0.319 C 
BRANCH  22  23
ATOM     23  O   UNL     1      34.366 -15.996 -24.355  0.00  0.00    -0.444 OA
ATOM     24  C   UNL     1      33.495 -15.297 -25.251  0.00  0.00    +0.256 C 
ENDBRANCH  22  23
ENDBRANCH  20  22
BRANCH  20  25
ATOM     25  C   UNL     1      34.662 -17.562 -22.407  0.00  0.00    +0.039 C 
BRANCH  25  26
ATOM     26  C   UNL     1      35.258 -18.551 -21.432  0.00  0.00    -0.021 C 
ATOM     27  C   UNL     1      34.447 -19.515 -20.833  0.00  0.00    -0.002 C 
ATOM     28  C   UNL     1      36.619 -18.498 -21.129  0.00  0.00    -0.004 C 
ATOM     29  C   UNL     1      34.998 -20.426 -19.932  0.00  0.00    +0.030 C 
ATOM     30  C   UNL     1      37.169 -19.410 -20.229  0.00  0.00    -0.000 C 
ATOM     31  C   UNL     1      36.358 -20.373 -19.629  0.00  0.00    +0.003 C 
BRANCH  29  34
ATOM     32  N   UNL     1      32.766 -21.407 -19.456  0.00  0.00    -0.343 N 
ATOM     33  N   UNL     1      34.697 -22.387 -18.576  0.00  0.00    -0.285 NA
ATOM     34  C   UNL     1      34.152 -21.431 -19.306  0.00  0.00    +0.117 C 
ATOM     35  H   UNL     1      32.213 -22.097 -19.023  0.00  0.00    +0.144 HD
ATOM     36  H   UNL     1      32.341 -20.700 -19.994  0.00  0.00    +0.144 HD
ATOM     37  H   UNL     1      34.125 -23.068 -18.151  0.00  0.00    +0.188 HD
ENDBRANCH  29  34
ENDBRANCH  25  26
ENDBRANCH  20  25
ENDBRANCH   1  20
TORSDOF 9
ENDMDL
MODEL 4
REMARK VINA RESULT:     -10.9      1.777      2.316
REMARK  Name = 5496659
REMARK  9 active torsions:
REMARK  status: ('A' for Active; 'I' for Inactive)
REMARK    1  A    between atoms: C_1  and  N_4
REMARK    2  A    between atoms: C_1  and  C_20
REMARK    3  A    between atoms: C_5  and  C_7
REMARK    4  A    between atoms: C_10  and  C_15
REMARK    5  A    between atoms: C_20  and  C_22
REMARK    6  A    between atoms: C_20  and  C_25
REMARK    7  A    between atoms: C_22  and  O_23
REMARK    8  A    between atoms: C_25  and  C_26
REMARK    9  A    between atoms: C_29  and  C_34
REMARK                            x       y       z     vdW  Elec       q    Type
REMARK                         _______ _______ _______ _____ _____    ______ ____
ROOT
ATOM      1  C   UNL     1      33.196 -23.734 -16.101  0.00  0.00    +0.083 C 
ATOM      2  C   UNL     1      31.783 -23.620 -15.531  0.00  0.00    +0.022 C 
ENDROOT
BRANCH   1   4
ATOM      3  O   UNL     1      33.903 -23.998 -18.871  0.00  0.00    -0.270 OA
ATOM      4  N   UNL     1      33.445 -22.660 -17.034  0.00  0.00    -0.302 N 
ATOM      5  C   UNL     1      33.782 -22.888 -18.359  0.00  0.00    +0.246 C 
ATOM      6  H   UNL     1      33.373 -21.730 -16.716  0.00  0.00    +0.150 HD
BRANCH   5   7
ATOM      7  C   UNL     1      34.031 -21.677 -19.183  0.00  0.00    +0.053 C 
ATOM      8  C   UNL     1      32.957 -20.935 -19.673  0.00  0.00    +0.005 C 
ATOM      9  C   UNL     1      35.338 -21.283 -19.466  0.00  0.00    +0.005 C 
ATOM     10  C   UNL     1      34.498 -19.404 -20.730  0.00  0.00    +0.000 C 
ATOM     11  C   UNL     1      33.190 -19.798 -20.447  0.00  0.00    +0.000 C 
ATOM     12  C   UNL     1      35.572 -20.147 -20.240  0.00  0.00    +0.000 C 
BRANCH  10  15
ATOM     13  O   UNL     1      35.432 -14.921 -23.792  0.00  0.00    -0.163 OA
ATOM     14  N   UNL     1      35.215 -15.957 -23.084  0.00  0.00    -0.127 N 
ATOM     15  C   UNL     1      34.743 -18.226 -21.535  0.00  0.00    +0.003 C 
ATOM     16  C   UNL     1      35.089 -17.026 -20.924  0.00  0.00    +0.022 C 
ATOM     17  C   UNL     1      34.632 -18.293 -22.919  0.00  0.00    +0.022 C 
ATOM     18  C   UNL     1      35.323 -15.902 -21.708  0.00  0.00    +0.121 C 
ATOM     19  C   UNL     1      34.870 -17.154 -23.681  0.00  0.00    +0.121 C 
ENDBRANCH  10  15
ENDBRANCH   5   7
ENDBRANCH   1   4
BRANCH   1  20
ATOM     20  C   UNL     1      34.271 -23.819 -14.993  0.00  0.00    +0.121 C 
BRANCH  20  22
ATOM     21  O   UNL     1      35.372 -21.718 -14.429  0.00  0.00    -0.250 OA
ATOM     22  C   UNL     1      35.310 -22.712 -15.142  0.00  0.00    +0.319 C 
BRANCH  22  23
ATOM     23  O   UNL     1      36.145 -23.003 -16.182  0.00  0.00    -0.444 OA
ATOM     24  C   UNL     1      37.262 -22.121 -16.339  0.00  0.00    +0.256 C 
ENDBRANCH  22  23
ENDBRANCH  20  22
BRANCH  20  25
ATOM     25  C   UNL     1      34.969 -25.195 -14.968  0.00  0.00    +0.039 C 
BRANCH  25  26
ATOM     26  C   UNL     1      36.017 -25.300 -13.884  0.00  0.00    -0.021 C 
ATOM     27  C   UNL     1      35.899 -24.534 -12.724  0.00  0.00    -0.002 C 
ATOM     28  C   UNL     1      37.103 -26.160 -14.045  0.00  0.00    -0.004 C 
ATOM     29  C   UNL     1      36.868 -24.629 -11.725  0.00  0.00    +0.030 C 
ATOM     30  C   UNL     1      38.071 -26.255 -13.045  0.00  0.00    -0.000 C 
ATOM     31  C   UNL     1      37.954 -25.489 -11.886  0.00  0.00    +0.003 C 
BRANCH  29  34
ATOM     32  N   UNL     1      35.923 -24.227  -9.463  0.00  0.00    -0.343 N 
ATOM     33  N   UNL     1      37.422 -22.700 -10.404  0.00  0.00    -0.285 NA
ATOM     34  C   UNL     1      36.746 -23.829 -10.516  0.00  0.00    +0.117 C 
ATOM     35  H   UNL     1      35.855 -23.670  -8.655  0.00  0.00    +0.144 HD
ATOM     36  H   UNL     1      35.409 -25.064  -9.530  0.00  0.00    +0.144 HD
ATOM     37  H   UNL     1      37.340 -22.157  -9.585  0.00  0.00    +0.188 HD
ENDBRANCH  29  34
ENDBRANCH  25  26
ENDBRANCH  20  25
ENDBRANCH   1  20
TORSDOF 9
ENDMDL
MODEL 5
REMARK VINA RESULT:     -10.9      3.054     10.976
REMARK  Name = 5496659
REMARK  9 active torsions:
REMARK  status: ('A' for Active; 'I' for Inactive)
REMARK    1  A    between atoms: C_1  and  N_4
REMARK    2  A    between atoms: C_1  and  C_20
REMARK    3  A    between atoms: C_5  and  C_7
REMARK    4  A    between atoms: C_10  and  C_15
REMARK    5  A    between atoms: C_20  and  C_22
REMARK    6  A    between atoms: C_20  and  C_25
REMARK    7  A    between atoms: C_22  and  O_23
REMARK    8  A    between atoms: C_25  and  C_26
REMARK    9  A    between atoms: C_29  and  C_34
REMARK                            x       y       z     vdW  Elec       q    Type
REMARK                         _______ _______ _______ _____ _____    ______ ____
ROOT
ATOM      1  C   UNL     1      36.486 -19.575 -20.509  0.00  0.00    +0.083 C 
ATOM      2  C   UNL     1      37.869 -19.000 -20.811  0.00  0.00    +0.022 C 
ENDROOT
BRANCH   1   4
ATOM      3  O   UNL     1      35.720 -22.249 -19.799  0.00  0.00    -0.270 OA
ATOM      4  N   UNL     1      36.460 -20.140 -19.181  0.00  0.00    -0.302 N 
ATOM      5  C   UNL     1      36.073 -21.449 -18.936  0.00  0.00    +0.246 C 
ATOM      6  H   UNL     1      36.727 -19.575 -18.420  0.00  0.00    +0.150 HD
BRANCH   5   7
ATOM      7  C   UNL     1      36.077 -21.871 -17.512  0.00  0.00    +0.053 C 
ATOM      8  C   UNL     1      34.964 -22.517 -16.974  0.00  0.00    +0.005 C 
ATOM      9  C   UNL     1      37.192 -21.621 -16.714  0.00  0.00    +0.005 C 
ATOM     10  C   UNL     1      36.083 -22.663 -14.837  0.00  0.00    +0.000 C 
ATOM     11  C   UNL     1      34.967 -22.913 -15.636  0.00  0.00    +0.000 C 
ATOM     12  C   UNL     1      37.196 -22.016 -15.377  0.00  0.00    +0.000 C 
BRANCH  10  15
ATOM     13  O   UNL     1      36.098 -24.214  -9.552  0.00  0.00    -0.163 OA
ATOM     14  N   UNL     1      36.095 -23.856 -10.774  0.00  0.00    -0.127 N 
ATOM     15  C   UNL     1      36.087 -23.071 -13.449  0.00  0.00    +0.003 C 
ATOM     16  C   UNL     1      37.163 -22.743 -12.631  0.00  0.00    +0.022 C 
ATOM     17  C   UNL     1      35.016 -23.791 -12.932  0.00  0.00    +0.022 C 
ATOM     18  C   UNL     1      37.154 -23.140 -11.298  0.00  0.00    +0.121 C 
ATOM     19  C   UNL     1      35.032 -24.177 -11.595  0.00  0.00    +0.121 C 
ENDBRANCH  10  15
ENDBRANCH   5   7
ENDBRANCH   1   4
BRANCH   1  20
ATOM     20  C   UNL     1      35.359 -18.541 -20.737  0.00  0.00    +0.121 C 
BRANCH  20  22
ATOM     21  O   UNL     1      33.633 -19.474 -22.185  0.00  0.00    -0.250 OA
ATOM     22  C   UNL     1      34.033 -19.227 -21.054  0.00  0.00    +0.319 C 
BRANCH  22  23
ATOM     23  O   UNL     1      33.375 -19.515 -19.893  0.00  0.00    -0.444 OA
ATOM     24  C   UNL     1      32.639 -20.742 -19.891  0.00  0.00    +0.256 C 
ENDBRANCH  22  23
ENDBRANCH  20  22
BRANCH  20  25
ATOM     25  C   UNL     1      35.711 -17.538 -21.855  0.00  0.00    +0.039 C 
BRANCH  25  26
ATOM     26  C   UNL     1      35.054 -16.191 -21.661  0.00  0.00    -0.021 C 
ATOM     27  C   UNL     1      34.610 -15.465 -22.766  0.00  0.00    -0.002 C 
ATOM     28  C   UNL     1      34.894 -15.672 -20.376  0.00  0.00    -0.004 C 
ATOM     29  C   UNL     1      34.006 -14.221 -22.587  0.00  0.00    +0.030 C 
ATOM     30  C   UNL     1      34.289 -14.428 -20.197  0.00  0.00    -0.000 C 
ATOM     31  C   UNL     1      33.846 -13.702 -21.302  0.00  0.00    +0.003 C 
BRANCH  29  34
ATOM     32  N   UNL     1      32.757 -14.053 -24.727  0.00  0.00    -0.343 N 
ATOM     33  N   UNL     1      33.876 -12.191 -23.866  0.00  0.00    -0.285 NA
ATOM     34  C   UNL     1      33.545 -13.463 -23.740  0.00  0.00    +0.117 C 
ATOM     35  H   UNL     1      32.457 -13.522 -25.499  0.00  0.00    +0.144 HD
ATOM     36  H   UNL     1      32.502 -15.001 -24.652  0.00  0.00    +0.144 HD
ATOM     37  H   UNL     1      33.565 -11.676 -24.646  0.00  0.00    +0.188 HD
ENDBRANCH  29  34
ENDBRANCH  25  26
ENDBRANCH  20  25
ENDBRANCH   1  20
TORSDOF 9
ENDMDL
MODEL 6
REMARK VINA RESULT:     -10.8      4.013     11.010
REMARK  Name = 5496659
REMARK  9 active torsions:
REMARK  status: ('A' for Active; 'I' for Inactive)
REMARK    1  A    between atoms: C_1  and  N_4
REMARK    2  A    between atoms: C_1  and  C_20
REMARK    3  A    between atoms: C_5  and  C_7
REMARK    4  A    between atoms: C_10  and  C_15
REMARK    5  A    between atoms: C_20  and  C_22
REMARK    6  A    between atoms: C_20  and  C_25
REMARK    7  A    between atoms: C_22  and  O_23
REMARK    8  A    between atoms: C_25  and  C_26
REMARK    9  A    between atoms: C_29  and  C_34
REMARK                            x       y       z     vdW  Elec       q    Type
REMARK                         _______ _______ _______ _____ _____    ______ ____
ROOT
ATOM      1  C   UNL     1      36.017 -19.505 -21.151  0.00  0.00    +0.083 C 
ATOM      2  C   UNL     1      37.281 -18.833 -20.618  0.00  0.00    +0.022 C 
ENDROOT
BRANCH   1   4
ATOM      3  O   UNL     1      36.936 -21.742 -19.605  0.00  0.00    -0.270 OA
ATOM      4  N   UNL     1      35.309 -20.159 -20.076  0.00  0.00    -0.302 N 
ATOM      5  C   UNL     1      35.838 -21.238 -19.385  0.00  0.00    +0.246 C 
ATOM      6  H   UNL     1      34.417 -19.826 -19.824  0.00  0.00    +0.150 HD
BRANCH   5   7
ATOM      7  C   UNL     1      34.974 -21.815 -18.323  0.00  0.00    +0.053 C 
ATOM      8  C   UNL     1      35.538 -22.244 -17.122  0.00  0.00    +0.005 C 
ATOM      9  C   UNL     1      33.600 -21.928 -18.527  0.00  0.00    +0.005 C 
ATOM     10  C   UNL     1      33.352 -22.899 -16.329  0.00  0.00    +0.000 C 
ATOM     11  C   UNL     1      34.727 -22.786 -16.125  0.00  0.00    +0.000 C 
ATOM     12  C   UNL     1      32.788 -22.470 -17.532  0.00  0.00    +0.000 C 
BRANCH  10  15
ATOM     13  O   UNL     1      30.144 -25.049 -12.401  0.00  0.00    -0.163 OA
ATOM     14  N   UNL     1      30.885 -24.551 -13.309  0.00  0.00    -0.127 N 
ATOM     15  C   UNL     1      32.509 -23.463 -15.297  0.00  0.00    +0.003 C 
ATOM     16  C   UNL     1      31.125 -23.420 -15.428  0.00  0.00    +0.022 C 
ATOM     17  C   UNL     1      33.082 -24.049 -14.174  0.00  0.00    +0.022 C 
ATOM     18  C   UNL     1      30.327 -23.966 -14.429  0.00  0.00    +0.121 C 
ATOM     19  C   UNL     1      32.261 -24.589 -13.189  0.00  0.00    +0.121 C 
ENDBRANCH  10  15
ENDBRANCH   5   7
ENDBRANCH   1   4
BRANCH   1  20
ATOM     20  C   UNL     1      35.120 -18.524 -21.942  0.00  0.00    +0.121 C 
BRANCH  20  22
ATOM     21  O   UNL     1      35.093 -20.101 -23.801  0.00  0.00    -0.250 OA
ATOM     22  C   UNL     1      34.556 -19.179 -23.199  0.00  0.00    +0.319 C 
BRANCH  22  23
ATOM     23  O   UNL     1      33.377 -18.581 -23.540  0.00  0.00    -0.444 OA
ATOM     24  C   UNL     1      33.353 -17.959 -24.829  0.00  0.00    +0.256 C 
ENDBRANCH  22  23
ENDBRANCH  20  22
BRANCH  20  25
ATOM     25  C   UNL     1      35.870 -17.228 -22.317  0.00  0.00    +0.039 C 
BRANCH  25  26
ATOM     26  C   UNL     1      35.110 -15.980 -21.931  0.00  0.00    -0.021 C 
ATOM     27  C   UNL     1      34.595 -15.143 -22.921  0.00  0.00    -0.002 C 
ATOM     28  C   UNL     1      34.927 -15.663 -20.585  0.00  0.00    -0.004 C 
ATOM     29  C   UNL     1      33.896 -13.990 -22.565  0.00  0.00    +0.030 C 
ATOM     30  C   UNL     1      34.227 -14.511 -20.229  0.00  0.00    -0.000 C 
ATOM     31  C   UNL     1      33.713 -13.673 -21.219  0.00  0.00    +0.003 C 
BRANCH  29  34
ATOM     32  N   UNL     1      33.475 -11.730 -23.504  0.00  0.00    -0.343 N 
ATOM     33  N   UNL     1      32.748 -13.636 -24.646  0.00  0.00    -0.285 NA
ATOM     34  C   UNL     1      33.361 -13.116 -23.597  0.00  0.00    +0.117 C 
ATOM     35  H   UNL     1      33.105 -11.158 -24.214  0.00  0.00    +0.144 HD
ATOM     36  H   UNL     1      33.926 -11.324 -22.729  0.00  0.00    +0.144 HD
ATOM     37  H   UNL     1      32.385 -13.045 -25.346  0.00  0.00    +0.188 HD
ENDBRANCH  29  34
ENDBRANCH  25  26
ENDBRANCH  20  25
ENDBRANCH   1  20
TORSDOF 9
ENDMDL
MODEL 7
REMARK VINA RESULT:     -10.8      7.134     14.954
REMARK  Name = 5496659
REMARK  9 active torsions:
REMARK  status: ('A' for Active; 'I' for Inactive)
REMARK    1  A    between atoms: C_1  and  N_4
REMARK    2  A    between atoms: C_1  and  C_20
REMARK    3  A    between atoms: C_5  and  C_7
REMARK    4  A    between atoms: C_10  and  C_15
REMARK    5  A    between atoms: C_20  and  C_22
REMARK    6  A    between atoms: C_20  and  C_25
REMARK    7  A    between atoms: C_22  and  O_23
REMARK    8  A    between atoms: C_25  and  C_26
REMARK    9  A    between atoms: C_29  and  C_34
REMARK                            x       y       z     vdW  Elec       q    Type
REMARK                         _______ _______ _______ _____ _____    ______ ____
ROOT
ATOM      1  C   UNL     1      33.673 -11.133 -23.481  0.00  0.00    +0.083 C 
ATOM      2  C   UNL     1      34.880 -10.467 -24.139  0.00  0.00    +0.022 C 
ENDROOT
BRANCH   1   4
ATOM      3  O   UNL     1      33.592 -13.656 -24.847  0.00  0.00    -0.270 OA
ATOM      4  N   UNL     1      34.047 -12.419 -22.940  0.00  0.00    -0.302 N 
ATOM      5  C   UNL     1      33.973 -13.588 -23.682  0.00  0.00    +0.246 C 
ATOM      6  H   UNL     1      34.366 -12.467 -22.010  0.00  0.00    +0.150 HD
BRANCH   5   7
ATOM      7  C   UNL     1      34.369 -14.832 -22.974  0.00  0.00    +0.053 C 
ATOM      8  C   UNL     1      34.529 -16.020 -23.686  0.00  0.00    +0.005 C 
ATOM      9  C   UNL     1      34.582 -14.812 -21.596  0.00  0.00    +0.005 C 
ATOM     10  C   UNL     1      35.113 -17.168 -21.642  0.00  0.00    +0.000 C 
ATOM     11  C   UNL     1      34.901 -17.188 -23.021  0.00  0.00    +0.000 C 
ATOM     12  C   UNL     1      34.953 -15.979 -20.930  0.00  0.00    +0.000 C 
BRANCH  10  15
ATOM     13  O   UNL     1      36.575 -21.777 -19.004  0.00  0.00    -0.163 OA
ATOM     14  N   UNL     1      36.238 -20.712 -19.615  0.00  0.00    -0.127 N 
ATOM     15  C   UNL     1      35.497 -18.379 -20.950  0.00  0.00    +0.003 C 
ATOM     16  C   UNL     1      36.834 -18.611 -20.643  0.00  0.00    +0.022 C 
ATOM     17  C   UNL     1      34.531 -19.312 -20.591  0.00  0.00    +0.022 C 
ATOM     18  C   UNL     1      37.190 -19.779 -19.977  0.00  0.00    +0.121 C 
ATOM     19  C   UNL     1      34.913 -20.472 -19.925  0.00  0.00    +0.121 C 
ENDBRANCH  10  15
ENDBRANCH   5   7
ENDBRANCH   1   4
BRANCH   1  20
ATOM     20  C   UNL     1      33.000 -10.220 -22.430  0.00  0.00    +0.121 C 
BRANCH  20  22
ATOM     21  O   UNL     1      31.508 -12.028 -21.761  0.00  0.00    -0.250 OA
ATOM     22  C   UNL     1      32.148 -11.029 -21.457  0.00  0.00    +0.319 C 
BRANCH  22  23
ATOM     23  O   UNL     1      32.211 -10.468 -20.214  0.00  0.00    -0.444 OA
ATOM     24  C   UNL     1      30.954 -10.087 -19.647  0.00  0.00    +0.256 C 
ENDBRANCH  22  23
ENDBRANCH  20  22
BRANCH  20  25
ATOM     25  C   UNL     1      32.144  -9.117 -23.086  0.00  0.00    +0.039 C 
BRANCH  25  26
ATOM     26  C   UNL     1      32.276  -7.782 -22.389  0.00  0.00    -0.021 C 
ATOM     27  C   UNL     1      31.363  -6.762 -22.657  0.00  0.00    -0.002 C 
ATOM     28  C   UNL     1      33.313  -7.569 -21.481  0.00  0.00    -0.004 C 
ATOM     29  C   UNL     1      31.487  -5.529 -22.017  0.00  0.00    +0.030 C 
ATOM     30  C   UNL     1      33.436  -6.337 -20.840  0.00  0.00    -0.000 C 
ATOM     31  C   UNL     1      32.524  -5.316 -21.108  0.00  0.00    +0.003 C 
BRANCH  29  34
ATOM     32  N   UNL     1      29.684  -3.975 -21.309  0.00  0.00    -0.343 N 
ATOM     33  N   UNL     1      30.468  -3.948 -23.511  0.00  0.00    -0.285 NA
ATOM     34  C   UNL     1      30.536  -4.465 -22.297  0.00  0.00    +0.117 C 
ATOM     35  H   UNL     1      29.049  -3.254 -21.521  0.00  0.00    +0.144 HD
ATOM     36  H   UNL     1      29.719  -4.349 -20.399  0.00  0.00    +0.144 HD
ATOM     37  H   UNL     1      29.824  -3.226 -23.703  0.00  0.00    +0.188 HD
ENDBRANCH  29  34
ENDBRANCH  25  26
ENDBRANCH  20  25
ENDBRANCH   1  20
TORSDOF 9
ENDMDL
MODEL 8
REMARK VINA RESULT:     -10.7      2.287      5.119
REMARK  Name = 5496659
REMARK  9 active torsions:
REMARK  status: ('A' for Active; 'I' for Inactive)
REMARK    1  A    between atoms: C_1  and  N_4
REMARK    2  A    between atoms: C_1  and  C_20
REMARK    3  A    between atoms: C_5  and  C_7
REMARK    4  A    between atoms: C_10  and  C_15
REMARK    5  A    between atoms: C_20  and  C_22
REMARK    6  A    between atoms: C_20  and  C_25
REMARK    7  A    between atoms: C_22  and  O_23
REMARK    8  A    between atoms: C_25  and  C_26
REMARK    9  A    between atoms: C_29  and  C_34
REMARK                            x       y       z     vdW  Elec       q    Type
REMARK                         _______ _______ _______ _____ _____    ______ ____
ROOT
ATOM      1  C   UNL     1      36.112 -23.584 -14.611  0.00  0.00    +0.083 C 
ATOM      2  C   UNL     1      36.472 -25.002 -15.051  0.00  0.00    +0.022 C 
ENDROOT
BRANCH   1   4
ATOM      3  O   UNL     1      34.266 -23.909 -16.785  0.00  0.00    -0.270 OA
ATOM      4  N   UNL     1      35.977 -22.724 -15.763  0.00  0.00    -0.302 N 
ATOM      5  C   UNL     1      35.051 -22.964 -16.766  0.00  0.00    +0.246 C 
ATOM      6  H   UNL     1      36.564 -21.937 -15.839  0.00  0.00    +0.150 HD
BRANCH   5   7
ATOM      7  C   UNL     1      35.054 -22.000 -17.896  0.00  0.00    +0.053 C 
ATOM      8  C   UNL     1      36.250 -21.414 -18.310  0.00  0.00    +0.005 C 
ATOM      9  C   UNL     1      33.861 -21.681 -18.543  0.00  0.00    +0.005 C 
ATOM     10  C   UNL     1      35.059 -20.189 -20.018  0.00  0.00    +0.000 C 
ATOM     11  C   UNL     1      36.253 -20.508 -19.371  0.00  0.00    +0.000 C 
ATOM     12  C   UNL     1      33.863 -20.775 -19.604  0.00  0.00    +0.000 C 
BRANCH  10  15
ATOM     13  O   UNL     1      35.066 -16.609 -24.205  0.00  0.00    -0.163 OA
ATOM     14  N   UNL     1      35.064 -17.436 -23.237  0.00  0.00    -0.127 N 
ATOM     15  C   UNL     1      35.060 -19.249 -21.118  0.00  0.00    +0.003 C 
ATOM     16  C   UNL     1      35.811 -18.081 -21.034  0.00  0.00    +0.022 C 
ATOM     17  C   UNL     1      34.311 -19.511 -22.259  0.00  0.00    +0.022 C 
ATOM     18  C   UNL     1      35.805 -17.186 -22.097  0.00  0.00    +0.121 C 
ATOM     19  C   UNL     1      34.321 -18.599 -23.310  0.00  0.00    +0.121 C 
ENDBRANCH  10  15
ENDBRANCH   5   7
ENDBRANCH   1   4
BRANCH   1  20
ATOM     20  C   UNL     1      34.867 -23.552 -13.696  0.00  0.00    +0.121 C 
BRANCH  20  22
ATOM     21  O   UNL     1      34.524 -23.583 -11.282  0.00  0.00    -0.250 OA
ATOM     22  C   UNL     1      35.257 -23.347 -12.235  0.00  0.00    +0.319 C 
BRANCH  22  23
ATOM     23  O   UNL     1      36.532 -22.865 -12.163  0.00  0.00    -0.444 OA
ATOM     24  C   UNL     1      37.149 -22.949 -10.874  0.00  0.00    +0.256 C 
ENDBRANCH  22  23
ENDBRANCH  20  22
BRANCH  20  25
ATOM     25  C   UNL     1      34.012 -24.829 -13.836  0.00  0.00    +0.039 C 
BRANCH  25  26
ATOM     26  C   UNL     1      32.528 -24.544 -13.831  0.00  0.00    -0.021 C 
ATOM     27  C   UNL     1      31.960 -23.788 -14.857  0.00  0.00    -0.002 C 
ATOM     28  C   UNL     1      31.727 -25.034 -12.800  0.00  0.00    -0.004 C 
ATOM     29  C   UNL     1      30.591 -23.523 -14.850  0.00  0.00    +0.030 C 
ATOM     30  C   UNL     1      30.358 -24.769 -12.794  0.00  0.00    -0.000 C 
ATOM     31  C   UNL     1      29.790 -24.013 -13.819  0.00  0.00    +0.003 C 
BRANCH  29  34
ATOM     32  N   UNL     1      28.625 -22.497 -15.970  0.00  0.00    -0.343 N 
ATOM     33  N   UNL     1      30.766 -22.227 -16.866  0.00  0.00    -0.285 NA
ATOM     34  C   UNL     1      29.998 -22.732 -15.919  0.00  0.00    +0.117 C 
ATOM     35  H   UNL     1      28.245 -21.959 -16.702  0.00  0.00    +0.144 HD
ATOM     36  H   UNL     1      28.036 -22.868 -15.273  0.00  0.00    +0.144 HD
ATOM     37  H   UNL     1      30.366 -21.692 -17.591  0.00  0.00    +0.188 HD
ENDBRANCH  29  34
ENDBRANCH  25  26
ENDBRANCH  20  25
ENDBRANCH   1  20
TORSDOF 9
ENDMDL
MODEL 9
REMARK VINA RESULT:     -10.6      7.220     15.032
REMARK  Name = 5496659
REMARK  9 active torsions:
REMARK  status: ('A' for Active; 'I' for Inactive)
REMARK    1  A    between atoms: C_1  and  N_4
REMARK    2  A    between atoms: C_1  and  C_20
REMARK    3  A    between atoms: C_5  and  C_7
REMARK    4  A    between atoms: C_10  and  C_15
REMARK    5  A    between atoms: C_20  and  C_22
REMARK    6  A    between atoms: C_20  and  C_25
REMARK    7  A    between atoms: C_22  and  O_23
REMARK    8  A    between atoms: C_25  and  C_26
REMARK    9  A    between atoms: C_29  and  C_34
REMARK                            x       y       z     vdW  Elec       q    Type
REMARK                         _______ _______ _______ _____ _____    ______ ____
ROOT
ATOM      1  C   UNL     1      33.586 -10.903 -23.630  0.00  0.00    +0.083 C 
ATOM      2  C   UNL     1      34.788 -10.239 -24.301  0.00  0.00    +0.022 C 
ENDROOT
BRANCH   1   4
ATOM      3  O   UNL     1      33.471 -13.428 -24.990  0.00  0.00    -0.270 OA
ATOM      4  N   UNL     1      33.963 -12.189 -23.093  0.00  0.00    -0.302 N 
ATOM      5  C   UNL     1      33.871 -13.359 -23.831  0.00  0.00    +0.246 C 
ATOM      6  H   UNL     1      34.297 -12.238 -22.168  0.00  0.00    +0.150 HD
BRANCH   5   7
ATOM      7  C   UNL     1      34.273 -14.604 -23.127  0.00  0.00    +0.053 C 
ATOM      8  C   UNL     1      34.533 -14.577 -21.757  0.00  0.00    +0.005 C 
ATOM      9  C   UNL     1      34.391 -15.799 -23.836  0.00  0.00    +0.005 C 
ATOM     10  C   UNL     1      35.029 -16.941 -21.805  0.00  0.00    +0.000 C 
ATOM     11  C   UNL     1      34.911 -15.746 -21.096  0.00  0.00    +0.000 C 
ATOM     12  C   UNL     1      34.769 -16.967 -23.176  0.00  0.00    +0.000 C 
BRANCH  10  15
ATOM     13  O   UNL     1      36.528 -21.560 -19.206  0.00  0.00    -0.163 OA
ATOM     14  N   UNL     1      36.181 -20.492 -19.806  0.00  0.00    -0.127 N 
ATOM     15  C   UNL     1      35.423 -18.154 -21.122  0.00  0.00    +0.003 C 
ATOM     16  C   UNL     1      34.463 -19.096 -20.767  0.00  0.00    +0.022 C 
ATOM     17  C   UNL     1      36.761 -18.380 -20.820  0.00  0.00    +0.022 C 
ATOM     18  C   UNL     1      34.854 -20.258 -20.111  0.00  0.00    +0.121 C 
ATOM     19  C   UNL     1      37.127 -19.550 -20.163  0.00  0.00    +0.121 C 
ENDBRANCH  10  15
ENDBRANCH   5   7
ENDBRANCH   1   4
BRANCH   1  20
ATOM     20  C   UNL     1      32.926  -9.988 -22.572  0.00  0.00    +0.121 C 
BRANCH  20  22
ATOM     21  O   UNL     1      30.778 -10.671 -21.643  0.00  0.00    -0.250 OA
ATOM     22  C   UNL     1      31.998 -10.780 -21.656  0.00  0.00    +0.319 C 
BRANCH  22  23
ATOM     23  O   UNL     1      32.734 -11.614 -20.865  0.00  0.00    -0.444 OA
ATOM     24  C   UNL     1      31.994 -12.641 -20.198  0.00  0.00    +0.256 C 
ENDBRANCH  22  23
ENDBRANCH  20  22
BRANCH  20  25
ATOM     25  C   UNL     1      32.154  -8.819 -23.218  0.00  0.00    +0.039 C 
BRANCH  25  26
ATOM     26  C   UNL     1      32.240  -7.544 -22.411  0.00  0.00    -0.021 C 
ATOM     27  C   UNL     1      31.422  -6.460 -22.731  0.00  0.00    -0.002 C 
ATOM     28  C   UNL     1      33.139  -7.450 -21.349  0.00  0.00    -0.004 C 
ATOM     29  C   UNL     1      31.503  -5.283 -21.988  0.00  0.00    +0.030 C 
ATOM     30  C   UNL     1      33.219  -6.273 -20.606  0.00  0.00    -0.000 C 
ATOM     31  C   UNL     1      32.402  -5.189 -20.926  0.00  0.00    +0.003 C 
BRANCH  29  34
ATOM     32  N   UNL     1      30.001  -3.416 -21.333  0.00  0.00    -0.343 N 
ATOM     33  N   UNL     1      30.481  -3.808 -23.586  0.00  0.00    -0.285 NA
ATOM     34  C   UNL     1      30.652  -4.151 -22.323  0.00  0.00    +0.117 C 
ATOM     35  H   UNL     1      29.430  -2.655 -21.582  0.00  0.00    +0.144 HD
ATOM     36  H   UNL     1      30.114  -3.659 -20.385  0.00  0.00    +0.144 HD
ATOM     37  H   UNL     1      29.905  -3.042 -23.815  0.00  0.00    +0.188 HD
ENDBRANCH  29  34
ENDBRANCH  25  26
ENDBRANCH  20  25
ENDBRANCH   1  20
TORSDOF 9
ENDMDL
