MODEL 1
REMARK VINA RESULT:     -12.1      0.000      0.000
REMARK  Name = 6102777
REMARK  2 active torsions:
REMARK  status: ('A' for Active; 'I' for Inactive)
REMARK    1  A    between atoms: C_4  and  S_16
REMARK    2  A    between atoms: S_16  and  N_19
REMARK                            x       y       z     vdW  Elec       q    Type
REMARK                         _______ _______ _______ _____ _____    ______ ____
ROOT
ATOM      1  O   UNL     1      36.782 -20.491 -18.811  0.00  0.00    -0.453 OA
ATOM      2  O   UNL     1      32.943 -21.908 -18.782  0.00  0.00    -0.286 OA
ATOM      3  C   UNL     1      35.058 -21.855 -17.747  0.00  0.00    +0.075 A 
ATOM      4  C   UNL     1      35.632 -23.045 -15.727  0.00  0.00    +0.126 C 
ATOM      5  C   UNL     1      36.351 -21.336 -17.818  0.00  0.00    +0.148 A 
ATOM      6  C   UNL     1      34.693 -22.710 -16.704  0.00  0.00    +0.026 C 
ATOM      7  C   UNL     1      34.571 -20.578 -19.844  0.00  0.00    +0.074 A 
ATOM      8  C   UNL     1      34.090 -21.484 -18.790  0.00  0.00    +0.201 A 
ATOM      9  C   UNL     1      35.892 -20.133 -19.794  0.00  0.00    +0.148 A 
ATOM     10  C   UNL     1      36.926 -22.529 -15.794  0.00  0.00    +0.023 C 
ATOM     11  C   UNL     1      37.286 -21.675 -16.838  0.00  0.00    +0.039 C 
ATOM     12  C   UNL     1      33.724 -20.170 -20.877  0.00  0.00    +0.006 C 
ATOM     13  C   UNL     1      36.370 -19.273 -20.784  0.00  0.00    +0.038 C 
ATOM     14  C   UNL     1      34.208 -19.310 -21.864  0.00  0.00    +0.000 C 
ATOM     15  C   UNL     1      35.527 -18.863 -21.818  0.00  0.00    +0.003 C 
ENDROOT
BRANCH   4  16
ATOM     16  S   UNL     1      35.186 -24.113 -14.419  0.00  0.00    +0.081 S 
ATOM     17  O   UNL     1      33.760 -23.952 -14.168  0.00  0.00    -0.149 OA
ATOM     18  O   UNL     1      35.718 -25.436 -14.715  0.00  0.00    -0.149 OA
BRANCH  16  19
ATOM     19  N   UNL     1      36.063 -23.434 -13.120  0.00  0.00    -0.156 N 
ATOM     20  N   UNL     1      36.673 -23.276 -10.798  0.00  0.00    -0.094 NA
ATOM     21  N   UNL     1      35.136 -24.839 -11.370  0.00  0.00    -0.071 NA
ATOM     22  N   UNL     1      36.221 -24.003  -9.765  0.00  0.00    -0.139 N 
ATOM     23  N   UNL     1      35.308 -24.940 -10.058  0.00  0.00    -0.020 NA
ATOM     24  C   UNL     1      35.964 -23.841 -11.769  0.00  0.00    +0.145 C 
ATOM     25  H   UNL     1      36.687 -22.701 -13.329  0.00  0.00    +0.186 HD
ATOM     26  H   UNL     1      36.540 -23.856  -8.846  0.00  0.00    +0.197 HD
ENDBRANCH  16  19
ENDBRANCH   4  16
TORSDOF 2
ENDMDL
MODEL 2
REMARK VINA RESULT:     -11.9      2.811      4.197
REMARK  Name = 6102777
REMARK  2 active torsions:
REMARK  status: ('A' for Active; 'I' for Inactive)
REMARK    1  A    between atoms: C_4  and  S_16
REMARK    2  A    between atoms: S_16  and  N_19
REMARK                            x       y       z     vdW  Elec       q    Type
REMARK                         _______ _______ _______ _____ _____    ______ ____
ROOT
ATOM      1  O   UNL     1      33.680 -23.042 -16.195  0.00  0.00    -0.453 OA
ATOM      2  O   UNL     1      37.632 -21.980 -16.198  0.00  0.00    -0.286 OA
ATOM      3  C   UNL     1      35.836 -22.983 -15.050  0.00  0.00    +0.075 A 
ATOM      4  C   UNL     1      35.981 -23.945 -12.842  0.00  0.00    +0.126 C 
ATOM      5  C   UNL     1      34.483 -23.316 -15.116  0.00  0.00    +0.148 A 
ATOM      6  C   UNL     1      36.589 -23.296 -13.916  0.00  0.00    +0.026 C 
ATOM      7  C   UNL     1      35.575 -22.015 -17.344  0.00  0.00    +0.074 A 
ATOM      8  C   UNL     1      36.452 -22.298 -16.197  0.00  0.00    +0.201 A 
ATOM      9  C   UNL     1      34.237 -22.403 -17.276  0.00  0.00    +0.148 A 
ATOM     10  C   UNL     1      34.628 -24.279 -12.902  0.00  0.00    +0.023 C 
ATOM     11  C   UNL     1      33.879 -23.965 -14.037  0.00  0.00    +0.039 C 
ATOM     12  C   UNL     1      36.069 -21.369 -18.479  0.00  0.00    +0.006 C 
ATOM     13  C   UNL     1      33.386 -22.145 -18.352  0.00  0.00    +0.038 C 
ATOM     14  C   UNL     1      35.214 -21.112 -19.551  0.00  0.00    +0.000 C 
ATOM     15  C   UNL     1      33.876 -21.499 -19.489  0.00  0.00    +0.003 C 
ENDROOT
BRANCH   4  16
ATOM     16  S   UNL     1      36.913 -24.341 -11.419  0.00  0.00    +0.081 S 
ATOM     17  O   UNL     1      36.716 -23.281 -10.438  0.00  0.00    -0.149 OA
ATOM     18  O   UNL     1      36.619 -25.720 -11.054  0.00  0.00    -0.149 OA
BRANCH  16  19
ATOM     19  N   UNL     1      38.506 -24.250 -12.027  0.00  0.00    -0.156 N 
ATOM     20  N   UNL     1      40.335 -25.049 -13.370  0.00  0.00    -0.094 NA
ATOM     21  N   UNL     1      38.411 -26.244 -13.408  0.00  0.00    -0.071 NA
ATOM     22  N   UNL     1      40.379 -26.131 -14.161  0.00  0.00    -0.139 N 
ATOM     23  N   UNL     1      39.262 -26.869 -14.213  0.00  0.00    -0.020 NA
ATOM     24  C   UNL     1      39.089 -25.171 -12.929  0.00  0.00    +0.145 C 
ATOM     25  H   UNL     1      39.064 -23.496 -11.725  0.00  0.00    +0.186 HD
ATOM     26  H   UNL     1      41.186 -26.370 -14.673  0.00  0.00    +0.197 HD
ENDBRANCH  16  19
ENDBRANCH   4  16
TORSDOF 2
ENDMDL
MODEL 3
REMARK VINA RESULT:     -11.7      4.544      5.420
REMARK  Name = 6102777
REMARK  2 active torsions:
REMARK  status: ('A' for Active; 'I' for Inactive)
REMARK    1  A    between atoms: C_4  and  S_16
REMARK    2  A    between atoms: S_16  and  N_19
REMARK                            x       y       z     vdW  Elec       q    Type
REMARK                         _______ _______ _______ _____ _____    ______ ____
ROOT
ATOM      1  O   UNL     1      35.545 -22.661 -16.541  0.00  0.00    -0.453 OA
ATOM      2  O   UNL     1      31.927 -21.916 -18.302  0.00  0.00    -0.286 OA
ATOM      3  C   UNL     1      33.112 -22.875 -16.507  0.00  0.00    +0.075 A 
ATOM      4  C   UNL     1      32.098 -24.042 -14.654  0.00  0.00    +0.126 C 
ATOM      5  C   UNL     1      34.378 -23.094 -15.962  0.00  0.00    +0.148 A 
ATOM      6  C   UNL     1      31.969 -23.347 -15.857  0.00  0.00    +0.026 C 
ATOM      7  C   UNL     1      34.269 -21.682 -18.379  0.00  0.00    +0.074 A 
ATOM      8  C   UNL     1      33.007 -22.138 -17.775  0.00  0.00    +0.201 A 
ATOM      9  C   UNL     1      35.467 -21.971 -17.726  0.00  0.00    +0.148 A 
ATOM     10  C   UNL     1      33.361 -24.265 -14.107  0.00  0.00    +0.023 C 
ATOM     11  C   UNL     1      34.500 -23.792 -14.759  0.00  0.00    +0.039 C 
ATOM     12  C   UNL     1      34.269 -20.974 -19.583  0.00  0.00    +0.006 C 
ATOM     13  C   UNL     1      36.676 -21.548 -18.281  0.00  0.00    +0.038 C 
ATOM     14  C   UNL     1      35.481 -20.554 -20.133  0.00  0.00    +0.000 C 
ATOM     15  C   UNL     1      36.682 -20.840 -19.484  0.00  0.00    +0.003 C 
ENDROOT
BRANCH   4  16
ATOM     16  S   UNL     1      30.675 -24.637 -13.834  0.00  0.00    +0.081 S 
ATOM     17  O   UNL     1      30.188 -25.804 -14.559  0.00  0.00    -0.149 OA
ATOM     18  O   UNL     1      30.985 -24.751 -12.415  0.00  0.00    -0.149 OA
BRANCH  16  19
ATOM     19  N   UNL     1      29.588 -23.341 -14.067  0.00  0.00    -0.156 N 
ATOM     20  N   UNL     1      27.856 -22.188 -15.276  0.00  0.00    -0.094 NA
ATOM     21  N   UNL     1      28.590 -24.155 -16.125  0.00  0.00    -0.071 NA
ATOM     22  N   UNL     1      27.246 -22.555 -16.412  0.00  0.00    -0.139 N 
ATOM     23  N   UNL     1      27.650 -23.713 -16.950  0.00  0.00    -0.020 NA
ATOM     24  C   UNL     1      28.681 -23.220 -15.146  0.00  0.00    +0.145 C 
ATOM     25  H   UNL     1      29.594 -22.619 -13.396  0.00  0.00    +0.186 HD
ATOM     26  H   UNL     1      26.542 -22.004 -16.826  0.00  0.00    +0.197 HD
ENDBRANCH  16  19
ENDBRANCH   4  16
TORSDOF 2
ENDMDL
MODEL 4
REMARK VINA RESULT:     -11.5      5.997      8.438
REMARK  Name = 6102777
REMARK  2 active torsions:
REMARK  status: ('A' for Active; 'I' for Inactive)
REMARK    1  A    between atoms: C_4  and  S_16
REMARK    2  A    between atoms: S_16  and  N_19
REMARK                            x       y       z     vdW  Elec       q    Type
REMARK                         _______ _______ _______ _____ _____    ______ ____
ROOT
ATOM      1  O   UNL     1      34.378 -13.446 -22.107  0.00  0.00    -0.453 OA
ATOM      2  O   UNL     1      34.087 -16.064 -25.239  0.00  0.00    -0.286 OA
ATOM      3  C   UNL     1      34.516 -15.735 -22.947  0.00  0.00    +0.075 A 
ATOM      4  C   UNL     1      35.078 -17.489 -21.387  0.00  0.00    +0.126 C 
ATOM      5  C   UNL     1      34.598 -14.789 -21.925  0.00  0.00    +0.148 A 
ATOM      6  C   UNL     1      34.754 -17.086 -22.683  0.00  0.00    +0.026 C 
ATOM      7  C   UNL     1      33.939 -13.841 -24.477  0.00  0.00    +0.074 A 
ATOM      8  C   UNL     1      34.173 -15.282 -24.303  0.00  0.00    +0.201 A 
ATOM      9  C   UNL     1      34.055 -13.004 -23.367  0.00  0.00    +0.148 A 
ATOM     10  C   UNL     1      35.163 -16.546 -20.362  0.00  0.00    +0.023 C 
ATOM     11  C   UNL     1      34.924 -15.198 -20.630  0.00  0.00    +0.039 C 
ATOM     12  C   UNL     1      33.607 -13.317 -25.729  0.00  0.00    +0.006 C 
ATOM     13  C   UNL     1      33.838 -11.632 -23.509  0.00  0.00    +0.038 C 
ATOM     14  C   UNL     1      33.392 -11.945 -25.865  0.00  0.00    +0.000 C 
ATOM     15  C   UNL     1      33.507 -11.104 -24.758  0.00  0.00    +0.003 C 
ENDROOT
BRANCH   4  16
ATOM     16  S   UNL     1      35.379 -19.175 -21.046  0.00  0.00    +0.081 S 
ATOM     17  O   UNL     1      35.462 -19.887 -22.316  0.00  0.00    -0.149 OA
ATOM     18  O   UNL     1      36.486 -19.256 -20.104  0.00  0.00    -0.149 OA
BRANCH  16  19
ATOM     19  N   UNL     1      33.934 -19.619 -20.252  0.00  0.00    -0.156 N 
ATOM     20  N   UNL     1      32.590 -21.108 -18.922  0.00  0.00    -0.094 NA
ATOM     21  N   UNL     1      34.713 -21.748 -19.384  0.00  0.00    -0.071 NA
ATOM     22  N   UNL     1      32.929 -22.296 -18.400  0.00  0.00    -0.139 N 
ATOM     23  N   UNL     1      34.177 -22.715 -18.649  0.00  0.00    -0.020 NA
ATOM     24  C   UNL     1      33.738 -20.815 -19.522  0.00  0.00    +0.145 C 
ATOM     25  H   UNL     1      33.176 -18.991 -20.305  0.00  0.00    +0.186 HD
ATOM     26  H   UNL     1      32.297 -22.829 -17.865  0.00  0.00    +0.197 HD
ENDBRANCH  16  19
ENDBRANCH   4  16
TORSDOF 2
ENDMDL
MODEL 5
REMARK VINA RESULT:     -11.5      1.126      2.325
REMARK  Name = 6102777
REMARK  2 active torsions:
REMARK  status: ('A' for Active; 'I' for Inactive)
REMARK    1  A    between atoms: C_4  and  S_16
REMARK    2  A    between atoms: S_16  and  N_19
REMARK                            x       y       z     vdW  Elec       q    Type
REMARK                         _______ _______ _______ _____ _____    ______ ____
ROOT
ATOM      1  O   UNL     1      32.832 -21.465 -18.682  0.00  0.00    -0.453 OA
ATOM      2  O   UNL     1      36.821 -21.682 -17.794  0.00  0.00    -0.286 OA
ATOM      3  C   UNL     1      34.614 -22.271 -17.219  0.00  0.00    +0.075 A 
ATOM      4  C   UNL     1      34.000 -23.604 -15.303  0.00  0.00    +0.126 C 
ATOM      5  C   UNL     1      33.272 -22.157 -17.580  0.00  0.00    +0.148 A 
ATOM      6  C   UNL     1      34.984 -22.994 -16.082  0.00  0.00    +0.026 C 
ATOM      7  C   UNL     1      35.139 -20.883 -19.235  0.00  0.00    +0.074 A 
ATOM      8  C   UNL     1      35.630 -21.618 -18.059  0.00  0.00    +0.201 A 
ATOM      9  C   UNL     1      33.766 -20.849 -19.479  0.00  0.00    +0.148 A 
ATOM     10  C   UNL     1      32.656 -23.491 -15.659  0.00  0.00    +0.023 C 
ATOM     11  C   UNL     1      32.292 -22.769 -16.796  0.00  0.00    +0.039 C 
ATOM     12  C   UNL     1      36.029 -20.231 -20.092  0.00  0.00    +0.006 C 
ATOM     13  C   UNL     1      33.278 -20.157 -20.589  0.00  0.00    +0.038 C 
ATOM     14  C   UNL     1      35.535 -19.541 -21.200  0.00  0.00    +0.000 C 
ATOM     15  C   UNL     1      34.163 -19.503 -21.448  0.00  0.00    +0.003 C 
ENDROOT
BRANCH   4  16
ATOM     16  S   UNL     1      34.451 -24.509 -13.880  0.00  0.00    +0.081 S 
ATOM     17  O   UNL     1      33.263 -24.677 -13.053  0.00  0.00    -0.149 OA
ATOM     18  O   UNL     1      35.200 -25.683 -14.308  0.00  0.00    -0.149 OA
BRANCH  16  19
ATOM     19  N   UNL     1      35.516 -23.416 -13.112  0.00  0.00    -0.156 N 
ATOM     20  N   UNL     1      36.765 -22.616 -11.217  0.00  0.00    -0.094 NA
ATOM     21  N   UNL     1      35.510 -24.479 -10.929  0.00  0.00    -0.071 NA
ATOM     22  N   UNL     1      36.827 -23.131  -9.981  0.00  0.00    -0.139 N 
ATOM     23  N   UNL     1      36.098 -24.234  -9.765  0.00  0.00    -0.020 NA
ATOM     24  C   UNL     1      35.933 -23.495 -11.762  0.00  0.00    +0.145 C 
ATOM     25  H   UNL     1      35.868 -22.671 -13.652  0.00  0.00    +0.186 HD
ATOM     26  H   UNL     1      37.375 -22.721  -9.273  0.00  0.00    +0.197 HD
ENDBRANCH  16  19
ENDBRANCH   4  16
TORSDOF 2
ENDMDL
MODEL 6
REMARK VINA RESULT:     -11.5      1.866      2.298
REMARK  Name = 6102777
REMARK  2 active torsions:
REMARK  status: ('A' for Active; 'I' for Inactive)
REMARK    1  A    between atoms: C_4  and  S_16
REMARK    2  A    between atoms: S_16  and  N_19
REMARK                            x       y       z     vdW  Elec       q    Type
REMARK                         _______ _______ _______ _____ _____    ______ ____
ROOT
ATOM      1  O   UNL     1      36.680 -20.750 -18.491  0.00  0.00    -0.453 OA
ATOM      2  O   UNL     1      32.818 -22.103 -18.442  0.00  0.00    -0.286 OA
ATOM      3  C   UNL     1      34.938 -22.083 -17.417  0.00  0.00    +0.075 A 
ATOM      4  C   UNL     1      35.501 -23.277 -15.397  0.00  0.00    +0.126 C 
ATOM      5  C   UNL     1      36.239 -21.585 -17.495  0.00  0.00    +0.148 A 
ATOM      6  C   UNL     1      34.564 -22.929 -16.370  0.00  0.00    +0.026 C 
ATOM      7  C   UNL     1      34.463 -20.803 -19.515  0.00  0.00    +0.074 A 
ATOM      8  C   UNL     1      33.972 -21.698 -18.456  0.00  0.00    +0.201 A 
ATOM      9  C   UNL     1      35.791 -20.380 -19.471  0.00  0.00    +0.148 A 
ATOM     10  C   UNL     1      36.803 -22.783 -15.471  0.00  0.00    +0.023 C 
ATOM     11  C   UNL     1      37.173 -21.938 -16.518  0.00  0.00    +0.039 C 
ATOM     12  C   UNL     1      33.618 -20.383 -20.545  0.00  0.00    +0.006 C 
ATOM     13  C   UNL     1      36.279 -19.530 -20.465  0.00  0.00    +0.038 C 
ATOM     14  C   UNL     1      34.111 -19.534 -21.536  0.00  0.00    +0.000 C 
ATOM     15  C   UNL     1      35.439 -19.108 -21.496  0.00  0.00    +0.003 C 
ENDROOT
BRANCH   4  16
ATOM     16  S   UNL     1      35.044 -24.334 -14.084  0.00  0.00    +0.081 S 
ATOM     17  O   UNL     1      35.469 -23.716 -12.834  0.00  0.00    -0.149 OA
ATOM     18  O   UNL     1      33.645 -24.701 -14.264  0.00  0.00    -0.149 OA
BRANCH  16  19
ATOM     19  N   UNL     1      36.024 -25.697 -14.395  0.00  0.00    -0.156 N 
ATOM     20  N   UNL     1      38.094 -26.919 -14.279  0.00  0.00    -0.094 NA
ATOM     21  N   UNL     1      38.042 -24.860 -13.337  0.00  0.00    -0.071 NA
ATOM     22  N   UNL     1      39.254 -26.544 -13.719  0.00  0.00    -0.139 N 
ATOM     23  N   UNL     1      39.269 -25.331 -13.150  0.00  0.00    -0.020 NA
ATOM     24  C   UNL     1      37.379 -25.833 -14.010  0.00  0.00    +0.145 C 
ATOM     25  H   UNL     1      35.614 -26.449 -14.882  0.00  0.00    +0.186 HD
ATOM     26  H   UNL     1      40.047 -27.127 -13.727  0.00  0.00    +0.197 HD
ENDBRANCH  16  19
ENDBRANCH   4  16
TORSDOF 2
ENDMDL
MODEL 7
REMARK VINA RESULT:     -11.3      4.486      5.985
REMARK  Name = 6102777
REMARK  2 active torsions:
REMARK  status: ('A' for Active; 'I' for Inactive)
REMARK    1  A    between atoms: C_4  and  S_16
REMARK    2  A    between atoms: S_16  and  N_19
REMARK                            x       y       z     vdW  Elec       q    Type
REMARK                         _______ _______ _______ _____ _____    ______ ____
ROOT
ATOM      1  O   UNL     1      32.876 -22.843 -15.295  0.00  0.00    -0.453 OA
ATOM      2  O   UNL     1      31.613 -25.316 -12.290  0.00  0.00    -0.286 OA
ATOM      3  C   UNL     1      33.392 -24.144 -13.293  0.00  0.00    +0.075 A 
ATOM      4  C   UNL     1      35.666 -24.140 -12.486  0.00  0.00    +0.126 C 
ATOM      5  C   UNL     1      33.754 -23.300 -14.343  0.00  0.00    +0.148 A 
ATOM      6  C   UNL     1      34.343 -24.567 -12.362  0.00  0.00    +0.026 C 
ATOM      7  C   UNL     1      31.065 -24.075 -14.215  0.00  0.00    +0.074 A 
ATOM      8  C   UNL     1      31.990 -24.577 -13.187  0.00  0.00    +0.201 A 
ATOM      9  C   UNL     1      31.563 -23.236 -15.212  0.00  0.00    +0.148 A 
ATOM     10  C   UNL     1      36.034 -23.298 -13.535  0.00  0.00    +0.023 C 
ATOM     11  C   UNL     1      35.080 -22.877 -14.463  0.00  0.00    +0.039 C 
ATOM     12  C   UNL     1      29.715 -24.432 -14.197  0.00  0.00    +0.006 C 
ATOM     13  C   UNL     1      30.704 -22.749 -16.198  0.00  0.00    +0.038 C 
ATOM     14  C   UNL     1      28.861 -23.942 -15.186  0.00  0.00    +0.000 C 
ATOM     15  C   UNL     1      29.354 -23.102 -16.184  0.00  0.00    +0.003 C 
ENDROOT
BRANCH   4  16
ATOM     16  S   UNL     1      36.864 -24.664 -11.328  0.00  0.00    +0.081 S 
ATOM     17  O   UNL     1      36.735 -23.835 -10.136  0.00  0.00    -0.149 OA
ATOM     18  O   UNL     1      36.774 -26.113 -11.208  0.00  0.00    -0.149 OA
BRANCH  16  19
ATOM     19  N   UNL     1      38.311 -24.258 -12.137  0.00  0.00    -0.156 N 
ATOM     20  N   UNL     1      40.126 -24.726 -13.648  0.00  0.00    -0.094 NA
ATOM     21  N   UNL     1      38.559 -26.338 -13.365  0.00  0.00    -0.071 NA
ATOM     22  N   UNL     1      40.347 -25.836 -14.367  0.00  0.00    -0.139 N 
ATOM     23  N   UNL     1      39.445 -26.818 -14.229  0.00  0.00    -0.020 NA
ATOM     24  C   UNL     1      39.001 -25.096 -13.046  0.00  0.00    +0.145 C 
ATOM     25  H   UNL     1      38.697 -23.369 -11.958  0.00  0.00    +0.186 HD
ATOM     26  H   UNL     1      41.128 -25.925 -14.960  0.00  0.00    +0.197 HD
ENDBRANCH  16  19
ENDBRANCH   4  16
TORSDOF 2
ENDMDL
MODEL 8
REMARK VINA RESULT:     -11.1      4.035      6.160
REMARK  Name = 6102777
REMARK  2 active torsions:
REMARK  status: ('A' for Active; 'I' for Inactive)
REMARK    1  A    between atoms: C_4  and  S_16
REMARK    2  A    between atoms: S_16  and  N_19
REMARK                            x       y       z     vdW  Elec       q    Type
REMARK                         _______ _______ _______ _____ _____    ______ ____
ROOT
ATOM      1  O   UNL     1      31.827 -23.099 -16.432  0.00  0.00    -0.453 OA
ATOM      2  O   UNL     1      32.672 -24.699 -12.762  0.00  0.00    -0.286 OA
ATOM      3  C   UNL     1      33.476 -23.676 -14.725  0.00  0.00    +0.075 A 
ATOM      4  C   UNL     1      35.794 -23.166 -15.161  0.00  0.00    +0.126 C 
ATOM      5  C   UNL     1      33.117 -23.146 -15.965  0.00  0.00    +0.148 A 
ATOM      6  C   UNL     1      34.812 -23.689 -14.319  0.00  0.00    +0.026 C 
ATOM      7  C   UNL     1      31.045 -24.159 -14.376  0.00  0.00    +0.074 A 
ATOM      8  C   UNL     1      32.420 -24.220 -13.858  0.00  0.00    +0.201 A 
ATOM      9  C   UNL     1      30.827 -23.602 -15.636  0.00  0.00    +0.148 A 
ATOM     10  C   UNL     1      35.440 -22.636 -16.402  0.00  0.00    +0.023 C 
ATOM     11  C   UNL     1      34.104 -22.625 -16.804  0.00  0.00    +0.039 C 
ATOM     12  C   UNL     1      29.975 -24.651 -13.623  0.00  0.00    +0.006 C 
ATOM     13  C   UNL     1      29.530 -23.534 -16.148  0.00  0.00    +0.038 C 
ATOM     14  C   UNL     1      28.681 -24.581 -14.140  0.00  0.00    +0.000 C 
ATOM     15  C   UNL     1      28.459 -24.024 -15.399  0.00  0.00    +0.003 C 
ENDROOT
BRANCH   4  16
ATOM     16  S   UNL     1      37.467 -23.177 -14.663  0.00  0.00    +0.081 S 
ATOM     17  O   UNL     1      38.260 -22.562 -15.720  0.00  0.00    -0.149 OA
ATOM     18  O   UNL     1      37.540 -22.644 -13.309  0.00  0.00    -0.149 OA
BRANCH  16  19
ATOM     19  N   UNL     1      37.794 -24.852 -14.624  0.00  0.00    -0.156 N 
ATOM     20  N   UNL     1      39.239 -26.746 -14.285  0.00  0.00    -0.094 NA
ATOM     21  N   UNL     1      40.130 -24.685 -13.983  0.00  0.00    -0.071 NA
ATOM     22  N   UNL     1      40.533 -26.756 -13.932  0.00  0.00    -0.139 N 
ATOM     23  N   UNL     1      41.102 -25.557 -13.743  0.00  0.00    -0.020 NA
ATOM     24  C   UNL     1      39.043 -25.433 -14.300  0.00  0.00    +0.145 C 
ATOM     25  H   UNL     1      37.053 -25.464 -14.843  0.00  0.00    +0.186 HD
ATOM     26  H   UNL     1      41.036 -27.595 -13.819  0.00  0.00    +0.197 HD
ENDBRANCH  16  19
ENDBRANCH   4  16
TORSDOF 2
ENDMDL
MODEL 9
REMARK VINA RESULT:     -11.0      2.179      3.295
REMARK  Name = 6102777
REMARK  2 active torsions:
REMARK  status: ('A' for Active; 'I' for Inactive)
REMARK    1  A    between atoms: C_4  and  S_16
REMARK    2  A    between atoms: S_16  and  N_19
REMARK                            x       y       z     vdW  Elec       q    Type
REMARK                         _______ _______ _______ _____ _____    ______ ____
ROOT
ATOM      1  O   UNL     1      32.735 -21.727 -18.373  0.00  0.00    -0.453 OA
ATOM      2  O   UNL     1      36.826 -21.615 -18.312  0.00  0.00    -0.286 OA
ATOM      3  C   UNL     1      34.837 -22.415 -17.335  0.00  0.00    +0.075 A 
ATOM      4  C   UNL     1      34.736 -23.851 -15.399  0.00  0.00    +0.126 C 
ATOM      5  C   UNL     1      33.445 -22.409 -17.415  0.00  0.00    +0.148 A 
ATOM      6  C   UNL     1      35.488 -23.134 -16.330  0.00  0.00    +0.026 C 
ATOM      7  C   UNL     1      34.826 -20.927 -19.349  0.00  0.00    +0.074 A 
ATOM      8  C   UNL     1      35.604 -21.650 -18.330  0.00  0.00    +0.201 A 
ATOM      9  C   UNL     1      33.435 -21.008 -19.311  0.00  0.00    +0.148 A 
ATOM     10  C   UNL     1      33.343 -23.848 -15.473  0.00  0.00    +0.023 C 
ATOM     11  C   UNL     1      32.697 -23.128 -16.479  0.00  0.00    +0.039 C 
ATOM     12  C   UNL     1      35.467 -20.174 -20.336  0.00  0.00    +0.006 C 
ATOM     13  C   UNL     1      32.676 -20.330 -20.267  0.00  0.00    +0.038 C 
ATOM     14  C   UNL     1      34.704 -19.499 -21.289  0.00  0.00    +0.000 C 
ATOM     15  C   UNL     1      33.312 -19.576 -21.255  0.00  0.00    +0.003 C 
ENDROOT
BRANCH   4  16
ATOM     16  S   UNL     1      35.539 -24.753 -14.138  0.00  0.00    +0.081 S 
ATOM     17  O   UNL     1      34.963 -24.357 -12.859  0.00  0.00    -0.149 OA
ATOM     18  O   UNL     1      35.542 -26.159 -14.519  0.00  0.00    -0.149 OA
BRANCH  16  19
ATOM     19  N   UNL     1      37.129 -24.140 -14.248  0.00  0.00    -0.156 N 
ATOM     20  N   UNL     1      39.518 -24.392 -14.378  0.00  0.00    -0.094 NA
ATOM     21  N   UNL     1      38.274 -26.281 -14.246  0.00  0.00    -0.071 NA
ATOM     22  N   UNL     1      40.238 -25.523 -14.385  0.00  0.00    -0.139 N 
ATOM     23  N   UNL     1      39.542 -26.666 -14.307  0.00  0.00    -0.020 NA
ATOM     24  C   UNL     1      38.305 -24.925 -14.291  0.00  0.00    +0.145 C 
ATOM     25  H   UNL     1      37.235 -23.161 -14.285  0.00  0.00    +0.186 HD
ATOM     26  H   UNL     1      41.221 -25.514 -14.443  0.00  0.00    +0.197 HD
ENDBRANCH  16  19
ENDBRANCH   4  16
TORSDOF 2
ENDMDL
