MODEL 1
REMARK VINA RESULT:     -12.2      0.000      0.000
REMARK  Name = 68488178
REMARK  9 active torsions:
REMARK  status: ('A' for Active; 'I' for Inactive)
REMARK    1  A    between atoms: N_1  and  C_10
REMARK    2  A    between atoms: N_2  and  C_29
REMARK    3  A    between atoms: C_10  and  C_11
REMARK    4  A    between atoms: C_16  and  O_17
REMARK    5  A    between atoms: O_17  and  C_18
REMARK    6  A    between atoms: C_23  and  C_26
REMARK    7  A    between atoms: C_29  and  C_30
REMARK    8  A    between atoms: C_35  and  C_37
REMARK    9  A    between atoms: C_37  and  O_38
REMARK                            x       y       z     vdW  Elec       q    Type
REMARK                         _______ _______ _______ _____ _____    ______ ____
ROOT
ATOM      1  N   UNL     1      34.847 -18.780 -21.150  0.00  0.00    +0.388 N 
ATOM      2  N   UNL     1      34.594 -16.158 -22.105  0.00  0.00    +0.388 N 
ATOM      3  C   UNL     1      35.911 -17.762 -20.976  0.00  0.00    -0.081 C 
ATOM      4  C   UNL     1      35.101 -17.270 -22.947  0.00  0.00    -0.081 C 
ATOM      5  C   UNL     1      36.473 -17.572 -22.373  0.00  0.00    -0.046 C 
ATOM      6  C   UNL     1      34.325 -18.528 -22.516  0.00  0.00    -0.098 C 
ATOM      7  C   UNL     1      35.192 -16.417 -20.771  0.00  0.00    -0.098 C 
ATOM      8  H   UNL     1      34.123 -18.701 -20.435  0.00  0.00    -0.079 HD
ATOM      9  H   UNL     1      33.574 -16.135 -22.077  0.00  0.00    -0.079 HD
ENDROOT
BRANCH   1  10
ATOM     10  C   UNL     1      35.343 -20.143 -20.995  0.00  0.00    -0.050 C 
BRANCH  10  11
ATOM     11  C   UNL     1      34.595 -20.894 -19.926  0.00  0.00    -0.043 C 
ATOM     12  C   UNL     1      33.251 -20.608 -19.684  0.00  0.00    -0.003 C 
ATOM     13  C   UNL     1      35.245 -21.876 -19.179  0.00  0.00    -0.003 C 
ATOM     14  C   UNL     1      32.557 -21.304 -18.694  0.00  0.00    +0.037 C 
ATOM     15  C   UNL     1      34.551 -22.572 -18.189  0.00  0.00    +0.037 C 
ATOM     16  C   UNL     1      33.207 -22.286 -17.947  0.00  0.00    +0.145 C 
BRANCH  16  17
ATOM     17  O   UNL     1      32.530 -22.965 -16.980  0.00  0.00    -0.453 OA
BRANCH  17  18
ATOM     18  C   UNL     1      33.179 -23.190 -15.777  0.00  0.00    +0.145 C 
ATOM     19  C   UNL     1      34.569 -23.103 -15.708  0.00  0.00    +0.038 C 
ATOM     20  C   UNL     1      32.442 -23.503 -14.635  0.00  0.00    +0.038 C 
ATOM     21  C   UNL     1      35.222 -23.332 -14.498  0.00  0.00    +0.008 C 
ATOM     22  C   UNL     1      33.095 -23.732 -13.425  0.00  0.00    +0.008 C 
ATOM     23  C   UNL     1      34.486 -23.647 -13.355  0.00  0.00    +0.054 C 
BRANCH  23  26
ATOM     24  O   UNL     1      36.256 -23.106 -11.879  0.00  0.00    -0.431 OA
ATOM     25  N   UNL     1      34.874 -24.741 -11.150  0.00  0.00    -0.206 NA
ATOM     26  C   UNL     1      35.162 -23.884 -12.103  0.00  0.00    +0.230 C 
ATOM     27  C   UNL     1      36.698 -23.522 -10.659  0.00  0.00    +0.202 C 
ATOM     28  C   UNL     1      35.856 -24.513 -10.221  0.00  0.00    +0.143 C 
ENDBRANCH  23  26
ENDBRANCH  17  18
ENDBRANCH  16  17
ENDBRANCH  10  11
ENDBRANCH   1  10
BRANCH   2  29
ATOM     29  C   UNL     1      34.960 -14.847 -22.626  0.00  0.00    -0.050 C 
BRANCH  29  30
ATOM     30  C   UNL     1      34.007 -13.776 -22.168  0.00  0.00    -0.043 C 
ATOM     31  C   UNL     1      33.249 -13.965 -21.012  0.00  0.00    -0.006 C 
ATOM     32  C   UNL     1      33.880 -12.594 -22.900  0.00  0.00    -0.006 C 
ATOM     33  C   UNL     1      32.365 -12.973 -20.589  0.00  0.00    +0.006 C 
ATOM     34  C   UNL     1      32.996 -11.603 -22.476  0.00  0.00    +0.006 C 
ATOM     35  C   UNL     1      32.238 -11.791 -21.319  0.00  0.00    +0.075 C 
BRANCH  35  37
ATOM     36  O   UNL     1      31.633  -9.610 -20.547  0.00  0.00    -0.245 OA
ATOM     37  C   UNL     1      31.317 -10.758 -20.877  0.00  0.00    +0.338 C 
BRANCH  37  38
ATOM     38  O   UNL     1      30.025 -11.184 -20.860  0.00  0.00    -0.477 OA
ATOM     39  H   UNL     1      29.332 -10.590 -21.071  0.00  0.00    +0.295 HD
ENDBRANCH  37  38
ENDBRANCH  35  37
ENDBRANCH  29  30
ENDBRANCH   2  29
TORSDOF 9
ENDMDL
MODEL 2
REMARK VINA RESULT:     -12.1      3.029     13.023
REMARK  Name = 68488178
REMARK  9 active torsions:
REMARK  status: ('A' for Active; 'I' for Inactive)
REMARK    1  A    between atoms: N_1  and  C_10
REMARK    2  A    between atoms: N_2  and  C_29
REMARK    3  A    between atoms: C_10  and  C_11
REMARK    4  A    between atoms: C_16  and  O_17
REMARK    5  A    between atoms: O_17  and  C_18
REMARK    6  A    between atoms: C_23  and  C_26
REMARK    7  A    between atoms: C_29  and  C_30
REMARK    8  A    between atoms: C_35  and  C_37
REMARK    9  A    between atoms: C_37  and  O_38
REMARK                            x       y       z     vdW  Elec       q    Type
REMARK                         _______ _______ _______ _____ _____    ______ ____
ROOT
ATOM      1  N   UNL     1      34.941 -17.008 -22.035  0.00  0.00    +0.388 N 
ATOM      2  N   UNL     1      35.158 -19.442 -20.664  0.00  0.00    +0.388 N 
ATOM      3  C   UNL     1      35.644 -18.184 -22.604  0.00  0.00    -0.081 C 
ATOM      4  C   UNL     1      36.121 -18.331 -20.474  0.00  0.00    -0.081 C 
ATOM      5  C   UNL     1      36.909 -18.298 -21.772  0.00  0.00    -0.046 C 
ATOM      6  C   UNL     1      35.309 -17.028 -20.597  0.00  0.00    -0.098 C 
ATOM      7  C   UNL     1      34.870 -19.424 -22.121  0.00  0.00    -0.098 C 
ATOM      8  H   UNL     1      33.932 -17.060 -22.180  0.00  0.00    -0.079 HD
ATOM      9  H   UNL     1      34.316 -19.319 -20.099  0.00  0.00    -0.079 HD
ENDROOT
BRANCH   1  10
ATOM     10  C   UNL     1      35.324 -15.759 -22.682  0.00  0.00    -0.050 C 
BRANCH  10  11
ATOM     11  C   UNL     1      34.376 -14.639 -22.346  0.00  0.00    -0.043 C 
ATOM     12  C   UNL     1      33.575 -14.080 -23.342  0.00  0.00    -0.003 C 
ATOM     13  C   UNL     1      34.298 -14.160 -21.038  0.00  0.00    -0.003 C 
ATOM     14  C   UNL     1      32.696 -13.043 -23.031  0.00  0.00    +0.037 C 
ATOM     15  C   UNL     1      33.419 -13.122 -20.726  0.00  0.00    +0.037 C 
ATOM     16  C   UNL     1      32.618 -12.564 -21.723  0.00  0.00    +0.145 C 
BRANCH  16  17
ATOM     17  O   UNL     1      31.762 -11.551 -21.419  0.00  0.00    -0.453 OA
BRANCH  17  18
ATOM     18  C   UNL     1      32.046 -10.293 -21.926  0.00  0.00    +0.145 C 
ATOM     19  C   UNL     1      33.148 -10.111 -22.760  0.00  0.00    +0.038 C 
ATOM     20  C   UNL     1      31.231  -9.209 -21.600  0.00  0.00    +0.038 C 
ATOM     21  C   UNL     1      33.437  -8.845 -23.268  0.00  0.00    +0.008 C 
ATOM     22  C   UNL     1      31.519  -7.943 -22.108  0.00  0.00    +0.008 C 
ATOM     23  C   UNL     1      32.623  -7.760 -22.943  0.00  0.00    +0.054 C 
BRANCH  23  26
ATOM     24  O   UNL     1      32.018  -5.481 -23.153  0.00  0.00    -0.431 OA
ATOM     25  N   UNL     1      33.936  -6.058 -24.203  0.00  0.00    -0.206 NA
ATOM     26  C   UNL     1      32.921  -6.450 -23.467  0.00  0.00    +0.230 C 
ATOM     27  C   UNL     1      32.522  -4.368 -23.756  0.00  0.00    +0.202 C 
ATOM     28  C   UNL     1      33.686  -4.723 -24.391  0.00  0.00    +0.143 C 
ENDBRANCH  23  26
ENDBRANCH  17  18
ENDBRANCH  16  17
ENDBRANCH  10  11
ENDBRANCH   1  10
BRANCH   2  29
ATOM     29  C   UNL     1      35.689 -20.728 -20.225  0.00  0.00    -0.050 C 
BRANCH  29  30
ATOM     30  C   UNL     1      34.828 -21.357 -19.163  0.00  0.00    -0.043 C 
ATOM     31  C   UNL     1      33.438 -21.272 -19.252  0.00  0.00    -0.006 C 
ATOM     32  C   UNL     1      35.419 -22.023 -18.089  0.00  0.00    -0.006 C 
ATOM     33  C   UNL     1      32.641 -21.855 -18.267  0.00  0.00    +0.006 C 
ATOM     34  C   UNL     1      34.622 -22.605 -17.105  0.00  0.00    +0.006 C 
ATOM     35  C   UNL     1      33.231 -22.522 -17.194  0.00  0.00    +0.075 C 
BRANCH  35  37
ATOM     36  O   UNL     1      32.804 -23.856 -15.255  0.00  0.00    -0.245 OA
ATOM     37  C   UNL     1      32.400 -23.129 -16.168  0.00  0.00    +0.338 C 
BRANCH  37  38
ATOM     38  O   UNL     1      31.084 -22.810 -16.308  0.00  0.00    -0.477 OA
ATOM     39  H   UNL     1      30.838 -21.956 -16.606  0.00  0.00    +0.295 HD
ENDBRANCH  37  38
ENDBRANCH  35  37
ENDBRANCH  29  30
ENDBRANCH   2  29
TORSDOF 9
ENDMDL
MODEL 3
REMARK VINA RESULT:     -12.1      3.984      7.613
REMARK  Name = 68488178
REMARK  9 active torsions:
REMARK  status: ('A' for Active; 'I' for Inactive)
REMARK    1  A    between atoms: N_1  and  C_10
REMARK    2  A    between atoms: N_2  and  C_29
REMARK    3  A    between atoms: C_10  and  C_11
REMARK    4  A    between atoms: C_16  and  O_17
REMARK    5  A    between atoms: O_17  and  C_18
REMARK    6  A    between atoms: C_23  and  C_26
REMARK    7  A    between atoms: C_29  and  C_30
REMARK    8  A    between atoms: C_35  and  C_37
REMARK    9  A    between atoms: C_37  and  O_38
REMARK                            x       y       z     vdW  Elec       q    Type
REMARK                         _______ _______ _______ _____ _____    ______ ____
ROOT
ATOM      1  N   UNL     1      33.421 -11.701 -22.783  0.00  0.00    +0.388 N 
ATOM      2  N   UNL     1      34.161  -9.012 -23.057  0.00  0.00    +0.388 N 
ATOM      3  C   UNL     1      33.902 -11.133 -24.066  0.00  0.00    -0.081 C 
ATOM      4  C   UNL     1      32.760  -9.474 -23.211  0.00  0.00    -0.081 C 
ATOM      5  C   UNL     1      32.764 -10.237 -24.524  0.00  0.00    -0.046 C 
ATOM      6  C   UNL     1      32.572 -10.628 -22.208  0.00  0.00    -0.098 C 
ATOM      7  C   UNL     1      34.965 -10.081 -23.701  0.00  0.00    -0.098 C 
ATOM      8  H   UNL     1      34.193 -11.959 -22.168  0.00  0.00    -0.079 HD
ATOM      9  H   UNL     1      34.412  -8.873 -22.077  0.00  0.00    -0.079 HD
ENDROOT
BRANCH   1  10
ATOM     10  C   UNL     1      32.685 -12.947 -22.962  0.00  0.00    -0.050 C 
BRANCH  10  11
ATOM     11  C   UNL     1      33.588 -14.149 -22.882  0.00  0.00    -0.043 C 
ATOM     12  C   UNL     1      33.808 -14.933 -24.015  0.00  0.00    -0.003 C 
ATOM     13  C   UNL     1      34.205 -14.479 -21.674  0.00  0.00    -0.003 C 
ATOM     14  C   UNL     1      34.644 -16.047 -23.941  0.00  0.00    +0.037 C 
ATOM     15  C   UNL     1      35.041 -15.593 -21.600  0.00  0.00    +0.037 C 
ATOM     16  C   UNL     1      35.261 -16.376 -22.734  0.00  0.00    +0.145 C 
BRANCH  16  17
ATOM     17  O   UNL     1      36.076 -17.464 -22.661  0.00  0.00    -0.453 OA
BRANCH  17  18
ATOM     18  C   UNL     1      35.767 -18.440 -21.728  0.00  0.00    +0.145 C 
ATOM     19  C   UNL     1      34.489 -18.999 -21.703  0.00  0.00    +0.038 C 
ATOM     20  C   UNL     1      36.732 -18.863 -20.814  0.00  0.00    +0.038 C 
ATOM     21  C   UNL     1      34.176 -19.979 -20.762  0.00  0.00    +0.008 C 
ATOM     22  C   UNL     1      36.419 -19.843 -19.873  0.00  0.00    +0.008 C 
ATOM     23  C   UNL     1      35.140 -20.403 -19.847  0.00  0.00    +0.054 C 
BRANCH  23  26
ATOM     24  O   UNL     1      33.511 -21.803 -18.853  0.00  0.00    -0.431 OA
ATOM     25  N   UNL     1      35.597 -22.018 -18.005  0.00  0.00    -0.206 NA
ATOM     26  C   UNL     1      34.816 -21.416 -18.873  0.00  0.00    +0.230 C 
ATOM     27  C   UNL     1      33.474 -22.745 -17.869  0.00  0.00    +0.202 C 
ATOM     28  C   UNL     1      34.742 -22.872 -17.358  0.00  0.00    +0.143 C 
ENDBRANCH  23  26
ENDBRANCH  17  18
ENDBRANCH  16  17
ENDBRANCH  10  11
ENDBRANCH   1  10
BRANCH   2  29
ATOM     29  C   UNL     1      34.393  -7.708 -23.667  0.00  0.00    -0.050 C 
BRANCH  29  30
ATOM     30  C   UNL     1      33.497  -6.649 -23.083  0.00  0.00    -0.043 C 
ATOM     31  C   UNL     1      33.458  -6.453 -21.702  0.00  0.00    -0.006 C 
ATOM     32  C   UNL     1      32.705  -5.864 -23.922  0.00  0.00    -0.006 C 
ATOM     33  C   UNL     1      32.627  -5.473 -21.161  0.00  0.00    +0.006 C 
ATOM     34  C   UNL     1      31.875  -4.884 -23.380  0.00  0.00    +0.006 C 
ATOM     35  C   UNL     1      31.836  -4.687 -21.999  0.00  0.00    +0.075 C 
BRANCH  35  37
ATOM     36  O   UNL     1      29.739  -3.727 -21.365  0.00  0.00    -0.245 OA
ATOM     37  C   UNL     1      30.971  -3.664 -21.435  0.00  0.00    +0.338 C 
BRANCH  37  38
ATOM     38  O   UNL     1      31.667  -2.591 -20.972  0.00  0.00    -0.477 OA
ATOM     39  H   UNL     1      32.602  -2.573 -21.040  0.00  0.00    +0.295 HD
ENDBRANCH  37  38
ENDBRANCH  35  37
ENDBRANCH  29  30
ENDBRANCH   2  29
TORSDOF 9
ENDMDL
MODEL 4
REMARK VINA RESULT:     -11.9      3.893     13.765
REMARK  Name = 68488178
REMARK  9 active torsions:
REMARK  status: ('A' for Active; 'I' for Inactive)
REMARK    1  A    between atoms: N_1  and  C_10
REMARK    2  A    between atoms: N_2  and  C_29
REMARK    3  A    between atoms: C_10  and  C_11
REMARK    4  A    between atoms: C_16  and  O_17
REMARK    5  A    between atoms: O_17  and  C_18
REMARK    6  A    between atoms: C_23  and  C_26
REMARK    7  A    between atoms: C_29  and  C_30
REMARK    8  A    between atoms: C_35  and  C_37
REMARK    9  A    between atoms: C_37  and  O_38
REMARK                            x       y       z     vdW  Elec       q    Type
REMARK                         _______ _______ _______ _____ _____    ______ ____
ROOT
ATOM      1  N   UNL     1      33.574 -15.279 -23.615  0.00  0.00    +0.388 N 
ATOM      2  N   UNL     1      34.783 -17.421 -22.273  0.00  0.00    +0.388 N 
ATOM      3  C   UNL     1      34.466 -16.247 -24.298  0.00  0.00    -0.081 C 
ATOM      4  C   UNL     1      35.387 -16.067 -22.323  0.00  0.00    -0.081 C 
ATOM      5  C   UNL     1      35.848 -15.921 -23.762  0.00  0.00    -0.046 C 
ATOM      6  C   UNL     1      34.215 -15.069 -22.293  0.00  0.00    -0.098 C 
ATOM      7  C   UNL     1      34.213 -17.611 -23.631  0.00  0.00    -0.098 C 
ATOM      8  H   UNL     1      32.620 -15.631 -23.534  0.00  0.00    -0.079 HD
ATOM      9  H   UNL     1      34.076 -17.497 -21.540  0.00  0.00    -0.079 HD
ENDROOT
BRANCH   1  10
ATOM     10  C   UNL     1      33.426 -14.033 -24.357  0.00  0.00    -0.050 C 
BRANCH  10  11
ATOM     11  C   UNL     1      33.110 -12.874 -23.450  0.00  0.00    -0.043 C 
ATOM     12  C   UNL     1      33.666 -11.619 -23.702  0.00  0.00    -0.003 C 
ATOM     13  C   UNL     1      32.260 -13.054 -22.358  0.00  0.00    -0.003 C 
ATOM     14  C   UNL     1      33.374 -10.545 -22.861  0.00  0.00    +0.037 C 
ATOM     15  C   UNL     1      31.968 -11.980 -21.517  0.00  0.00    +0.037 C 
ATOM     16  C   UNL     1      32.524 -10.725 -21.769  0.00  0.00    +0.145 C 
BRANCH  16  17
ATOM     17  O   UNL     1      32.239  -9.677 -20.948  0.00  0.00    -0.453 OA
BRANCH  17  18
ATOM     18  C   UNL     1      32.068  -8.432 -21.530  0.00  0.00    +0.145 C 
ATOM     19  C   UNL     1      31.021  -8.220 -22.427  0.00  0.00    +0.038 C 
ATOM     20  C   UNL     1      32.942  -7.391 -21.219  0.00  0.00    +0.038 C 
ATOM     21  C   UNL     1      30.850  -6.967 -23.015  0.00  0.00    +0.008 C 
ATOM     22  C   UNL     1      32.772  -6.138 -21.808  0.00  0.00    +0.008 C 
ATOM     23  C   UNL     1      31.724  -5.925 -22.706  0.00  0.00    +0.054 C 
BRANCH  23  26
ATOM     24  O   UNL     1      32.676  -4.078 -23.839  0.00  0.00    -0.431 OA
ATOM     25  N   UNL     1      30.457  -3.907 -23.435  0.00  0.00    -0.206 NA
ATOM     26  C   UNL     1      31.548  -4.630 -23.314  0.00  0.00    +0.230 C 
ATOM     27  C   UNL     1      32.245  -2.886 -24.339  0.00  0.00    +0.202 C 
ATOM     28  C   UNL     1      30.899  -2.787 -24.092  0.00  0.00    +0.143 C 
ENDBRANCH  23  26
ENDBRANCH  17  18
ENDBRANCH  16  17
ENDBRANCH  10  11
ENDBRANCH   1  10
BRANCH   2  29
ATOM     29  C   UNL     1      35.752 -18.457 -21.934  0.00  0.00    -0.050 C 
BRANCH  29  30
ATOM     30  C   UNL     1      35.192 -19.447 -20.948  0.00  0.00    -0.043 C 
ATOM     31  C   UNL     1      36.054 -20.217 -20.167  0.00  0.00    -0.006 C 
ATOM     32  C   UNL     1      33.811 -19.597 -20.817  0.00  0.00    -0.006 C 
ATOM     33  C   UNL     1      35.535 -21.135 -19.255  0.00  0.00    +0.006 C 
ATOM     34  C   UNL     1      33.292 -20.515 -19.905  0.00  0.00    +0.006 C 
ATOM     35  C   UNL     1      34.154 -21.285 -19.122  0.00  0.00    +0.075 C 
BRANCH  35  37
ATOM     36  O   UNL     1      34.274 -23.068 -17.533  0.00  0.00    -0.245 OA
ATOM     37  C   UNL     1      33.614 -22.241 -18.171  0.00  0.00    +0.338 C 
BRANCH  37  38
ATOM     38  O   UNL     1      32.263 -22.139 -18.041  0.00  0.00    -0.477 OA
ATOM     39  H   UNL     1      31.727 -22.906 -18.099  0.00  0.00    +0.295 HD
ENDBRANCH  37  38
ENDBRANCH  35  37
ENDBRANCH  29  30
ENDBRANCH   2  29
TORSDOF 9
ENDMDL
MODEL 5
REMARK VINA RESULT:     -11.9      2.946     12.209
REMARK  Name = 68488178
REMARK  9 active torsions:
REMARK  status: ('A' for Active; 'I' for Inactive)
REMARK    1  A    between atoms: N_1  and  C_10
REMARK    2  A    between atoms: N_2  and  C_29
REMARK    3  A    between atoms: C_10  and  C_11
REMARK    4  A    between atoms: C_16  and  O_17
REMARK    5  A    between atoms: O_17  and  C_18
REMARK    6  A    between atoms: C_23  and  C_26
REMARK    7  A    between atoms: C_29  and  C_30
REMARK    8  A    between atoms: C_35  and  C_37
REMARK    9  A    between atoms: C_37  and  O_38
REMARK                            x       y       z     vdW  Elec       q    Type
REMARK                         _______ _______ _______ _____ _____    ______ ____
ROOT
ATOM      1  N   UNL     1      33.420 -22.341 -16.790  0.00  0.00    +0.388 N 
ATOM      2  N   UNL     1      34.557 -23.122 -14.350  0.00  0.00    +0.388 N 
ATOM      3  C   UNL     1      32.948 -23.526 -16.033  0.00  0.00    -0.081 C 
ATOM      4  C   UNL     1      35.103 -23.554 -15.660  0.00  0.00    -0.081 C 
ATOM      5  C   UNL     1      34.071 -24.535 -16.186  0.00  0.00    -0.046 C 
ATOM      6  C   UNL     1      34.895 -22.373 -16.627  0.00  0.00    -0.098 C 
ATOM      7  C   UNL     1      33.085 -23.168 -14.542  0.00  0.00    -0.098 C 
ATOM      8  H   UNL     1      33.008 -21.476 -16.440  0.00  0.00    -0.079 HD
ATOM      9  H   UNL     1      34.887 -22.192 -14.087  0.00  0.00    -0.079 HD
ENDROOT
BRANCH   1  10
ATOM     10  C   UNL     1      33.022 -22.376 -18.192  0.00  0.00    -0.050 C 
BRANCH  10  11
ATOM     11  C   UNL     1      33.843 -21.434 -19.032  0.00  0.00    -0.043 C 
ATOM     12  C   UNL     1      33.210 -20.464 -19.811  0.00  0.00    -0.003 C 
ATOM     13  C   UNL     1      35.234 -21.530 -19.031  0.00  0.00    -0.003 C 
ATOM     14  C   UNL     1      33.969 -19.591 -20.589  0.00  0.00    +0.037 C 
ATOM     15  C   UNL     1      35.994 -20.656 -19.810  0.00  0.00    +0.037 C 
ATOM     16  C   UNL     1      35.361 -19.687 -20.589  0.00  0.00    +0.145 C 
BRANCH  16  17
ATOM     17  O   UNL     1      36.103 -18.835 -21.349  0.00  0.00    -0.453 OA
BRANCH  17  18
ATOM     18  C   UNL     1      35.583 -17.575 -21.597  0.00  0.00    +0.145 C 
ATOM     19  C   UNL     1      35.314 -17.177 -22.906  0.00  0.00    +0.038 C 
ATOM     20  C   UNL     1      35.330 -16.704 -20.537  0.00  0.00    +0.038 C 
ATOM     21  C   UNL     1      34.794 -15.907 -23.156  0.00  0.00    +0.008 C 
ATOM     22  C   UNL     1      34.810 -15.435 -20.786  0.00  0.00    +0.008 C 
ATOM     23  C   UNL     1      34.541 -15.035 -22.097  0.00  0.00    +0.054 C 
BRANCH  23  26
ATOM     24  O   UNL     1      33.009 -13.328 -21.513  0.00  0.00    -0.431 OA
ATOM     25  N   UNL     1      34.335 -12.854 -23.283  0.00  0.00    -0.206 NA
ATOM     26  C   UNL     1      34.004 -13.722 -22.355  0.00  0.00    +0.230 C 
ATOM     27  C   UNL     1      32.685 -12.084 -21.964  0.00  0.00    +0.202 C 
ATOM     28  C   UNL     1      33.493 -11.800 -23.037  0.00  0.00    +0.143 C 
ENDBRANCH  23  26
ENDBRANCH  17  18
ENDBRANCH  16  17
ENDBRANCH  10  11
ENDBRANCH   1  10
BRANCH   2  29
ATOM     29  C   UNL     1      34.995 -23.974 -13.251  0.00  0.00    -0.050 C 
BRANCH  29  30
ATOM     30  C   UNL     1      36.374 -24.528 -13.486  0.00  0.00    -0.043 C 
ATOM     31  C   UNL     1      37.497 -23.779 -13.133  0.00  0.00    -0.006 C 
ATOM     32  C   UNL     1      36.530 -25.791 -14.059  0.00  0.00    -0.006 C 
ATOM     33  C   UNL     1      38.774 -24.292 -13.352  0.00  0.00    +0.006 C 
ATOM     34  C   UNL     1      37.808 -26.304 -14.278  0.00  0.00    +0.006 C 
ATOM     35  C   UNL     1      38.931 -25.555 -13.923  0.00  0.00    +0.075 C 
BRANCH  35  37
ATOM     36  O   UNL     1      41.006 -26.557 -13.281  0.00  0.00    -0.245 OA
ATOM     37  C   UNL     1      40.263 -26.090 -14.150  0.00  0.00    +0.338 C 
BRANCH  37  38
ATOM     38  O   UNL     1      40.632 -26.030 -15.459  0.00  0.00    -0.477 OA
ATOM     39  H   UNL     1      40.019 -25.739 -16.106  0.00  0.00    +0.295 HD
ENDBRANCH  37  38
ENDBRANCH  35  37
ENDBRANCH  29  30
ENDBRANCH   2  29
TORSDOF 9
ENDMDL
MODEL 6
REMARK VINA RESULT:     -11.7      3.013      5.566
REMARK  Name = 68488178
REMARK  9 active torsions:
REMARK  status: ('A' for Active; 'I' for Inactive)
REMARK    1  A    between atoms: N_1  and  C_10
REMARK    2  A    between atoms: N_2  and  C_29
REMARK    3  A    between atoms: C_10  and  C_11
REMARK    4  A    between atoms: C_16  and  O_17
REMARK    5  A    between atoms: O_17  and  C_18
REMARK    6  A    between atoms: C_23  and  C_26
REMARK    7  A    between atoms: C_29  and  C_30
REMARK    8  A    between atoms: C_35  and  C_37
REMARK    9  A    between atoms: C_37  and  O_38
REMARK                            x       y       z     vdW  Elec       q    Type
REMARK                         _______ _______ _______ _____ _____    ______ ____
ROOT
ATOM      1  N   UNL     1      33.357 -14.239 -22.262  0.00  0.00    +0.388 N 
ATOM      2  N   UNL     1      31.594 -12.534 -20.908  0.00  0.00    +0.388 N 
ATOM      3  C   UNL     1      33.592 -13.793 -20.867  0.00  0.00    -0.081 C 
ATOM      4  C   UNL     1      32.680 -12.027 -21.782  0.00  0.00    -0.081 C 
ATOM      5  C   UNL     1      33.949 -12.323 -21.003  0.00  0.00    -0.046 C 
ATOM      6  C   UNL     1      32.810 -13.036 -22.938  0.00  0.00    -0.098 C 
ATOM      7  C   UNL     1      32.205 -13.691 -20.207  0.00  0.00    -0.098 C 
ATOM      8  H   UNL     1      32.720 -15.034 -22.306  0.00  0.00    -0.079 HD
ATOM      9  H   UNL     1      30.764 -12.795 -21.442  0.00  0.00    -0.079 HD
ENDROOT
BRANCH   1  10
ATOM     10  C   UNL     1      34.570 -14.727 -22.907  0.00  0.00    -0.050 C 
BRANCH  10  11
ATOM     11  C   UNL     1      34.922 -16.120 -22.459  0.00  0.00    -0.043 C 
ATOM     12  C   UNL     1      35.275 -16.357 -21.130  0.00  0.00    -0.003 C 
ATOM     13  C   UNL     1      34.895 -17.174 -23.373  0.00  0.00    -0.003 C 
ATOM     14  C   UNL     1      35.601 -17.648 -20.715  0.00  0.00    +0.037 C 
ATOM     15  C   UNL     1      35.222 -18.465 -22.957  0.00  0.00    +0.037 C 
ATOM     16  C   UNL     1      35.575 -18.702 -21.628  0.00  0.00    +0.145 C 
BRANCH  16  17
ATOM     17  O   UNL     1      35.894 -19.962 -21.223  0.00  0.00    -0.453 OA
BRANCH  17  18
ATOM     18  C   UNL     1      35.089 -20.553 -20.263  0.00  0.00    +0.145 C 
ATOM     19  C   UNL     1      33.724 -20.267 -20.226  0.00  0.00    +0.038 C 
ATOM     20  C   UNL     1      35.643 -21.433 -19.334  0.00  0.00    +0.038 C 
ATOM     21  C   UNL     1      32.914 -20.859 -19.257  0.00  0.00    +0.008 C 
ATOM     22  C   UNL     1      34.833 -22.026 -18.366  0.00  0.00    +0.008 C 
ATOM     23  C   UNL     1      33.467 -21.739 -18.327  0.00  0.00    +0.054 C 
BRANCH  23  26
ATOM     24  O   UNL     1      33.290 -23.082 -16.386  0.00  0.00    -0.431 OA
ATOM     25  N   UNL     1      31.324 -22.307 -17.190  0.00  0.00    -0.206 NA
ATOM     26  C   UNL     1      32.630 -22.352 -17.326  0.00  0.00    +0.230 C 
ATOM     27  C   UNL     1      32.293 -23.541 -15.580  0.00  0.00    +0.202 C 
ATOM     28  C   UNL     1      31.102 -23.068 -16.071  0.00  0.00    +0.143 C 
ENDBRANCH  23  26
ENDBRANCH  17  18
ENDBRANCH  16  17
ENDBRANCH  10  11
ENDBRANCH   1  10
BRANCH   2  29
ATOM     29  C   UNL     1      31.105 -11.523 -19.976  0.00  0.00    -0.050 C 
BRANCH  29  30
ATOM     30  C   UNL     1      31.537 -10.138 -20.375  0.00  0.00    -0.043 C 
ATOM     31  C   UNL     1      31.229  -9.651 -21.646  0.00  0.00    -0.006 C 
ATOM     32  C   UNL     1      32.245  -9.340 -19.475  0.00  0.00    -0.006 C 
ATOM     33  C   UNL     1      31.630  -8.368 -22.016  0.00  0.00    +0.006 C 
ATOM     34  C   UNL     1      32.645  -8.058 -19.846  0.00  0.00    +0.006 C 
ATOM     35  C   UNL     1      32.337  -7.569 -21.116  0.00  0.00    +0.075 C 
BRANCH  35  37
ATOM     36  O   UNL     1      32.174  -5.185 -21.196  0.00  0.00    -0.245 OA
ATOM     37  C   UNL     1      32.753  -6.232 -21.502  0.00  0.00    +0.338 C 
BRANCH  37  38
ATOM     38  O   UNL     1      33.884  -6.237 -22.260  0.00  0.00    -0.477 OA
ATOM     39  H   UNL     1      34.721  -6.120 -21.854  0.00  0.00    +0.295 HD
ENDBRANCH  37  38
ENDBRANCH  35  37
ENDBRANCH  29  30
ENDBRANCH   2  29
TORSDOF 9
ENDMDL
MODEL 7
REMARK VINA RESULT:     -11.7      3.008     12.945
REMARK  Name = 68488178
REMARK  9 active torsions:
REMARK  status: ('A' for Active; 'I' for Inactive)
REMARK    1  A    between atoms: N_1  and  C_10
REMARK    2  A    between atoms: N_2  and  C_29
REMARK    3  A    between atoms: C_10  and  C_11
REMARK    4  A    between atoms: C_16  and  O_17
REMARK    5  A    between atoms: O_17  and  C_18
REMARK    6  A    between atoms: C_23  and  C_26
REMARK    7  A    between atoms: C_29  and  C_30
REMARK    8  A    between atoms: C_35  and  C_37
REMARK    9  A    between atoms: C_37  and  O_38
REMARK                            x       y       z     vdW  Elec       q    Type
REMARK                         _______ _______ _______ _____ _____    ______ ____
ROOT
ATOM      1  N   UNL     1      34.671 -16.609 -21.586  0.00  0.00    +0.388 N 
ATOM      2  N   UNL     1      35.049 -19.256 -20.748  0.00  0.00    +0.388 N 
ATOM      3  C   UNL     1      35.055 -17.694 -22.521  0.00  0.00    -0.081 C 
ATOM      4  C   UNL     1      36.129 -18.240 -20.695  0.00  0.00    -0.081 C 
ATOM      5  C   UNL     1      36.493 -18.010 -22.151  0.00  0.00    -0.046 C 
ATOM      6  C   UNL     1      35.447 -16.901 -20.355  0.00  0.00    -0.098 C 
ATOM      7  C   UNL     1      34.344 -18.965 -22.022  0.00  0.00    -0.098 C 
ATOM      8  H   UNL     1      33.664 -16.589 -21.417  0.00  0.00    -0.079 HD
ATOM      9  H   UNL     1      34.431 -19.199 -19.938  0.00  0.00    -0.079 HD
ENDROOT
BRANCH   1  10
ATOM     10  C   UNL     1      34.962 -15.282 -22.116  0.00  0.00    -0.050 C 
BRANCH  10  11
ATOM     11  C   UNL     1      33.983 -14.252 -21.619  0.00  0.00    -0.043 C 
ATOM     12  C   UNL     1      33.718 -13.117 -22.386  0.00  0.00    -0.003 C 
ATOM     13  C   UNL     1      33.342 -14.432 -20.393  0.00  0.00    -0.003 C 
ATOM     14  C   UNL     1      32.811 -12.162 -21.926  0.00  0.00    +0.037 C 
ATOM     15  C   UNL     1      32.435 -13.477 -19.934  0.00  0.00    +0.037 C 
ATOM     16  C   UNL     1      32.169 -12.342 -20.700  0.00  0.00    +0.145 C 
BRANCH  16  17
ATOM     17  O   UNL     1      31.285 -11.410 -20.251  0.00  0.00    -0.453 OA
BRANCH  17  18
ATOM     18  C   UNL     1      31.462 -10.101 -20.668  0.00  0.00    +0.145 C 
ATOM     19  C   UNL     1      31.982  -9.153 -19.787  0.00  0.00    +0.038 C 
ATOM     20  C   UNL     1      31.119  -9.730 -21.968  0.00  0.00    +0.038 C 
ATOM     21  C   UNL     1      32.158  -7.835 -20.205  0.00  0.00    +0.008 C 
ATOM     22  C   UNL     1      31.294  -8.412 -22.387  0.00  0.00    +0.008 C 
ATOM     23  C   UNL     1      31.814  -7.463 -21.505  0.00  0.00    +0.054 C 
BRANCH  23  26
ATOM     24  O   UNL     1      31.706  -5.152 -21.004  0.00  0.00    -0.431 OA
ATOM     25  N   UNL     1      32.398  -5.640 -23.101  0.00  0.00    -0.206 NA
ATOM     26  C   UNL     1      31.995  -6.099 -21.938  0.00  0.00    +0.230 C 
ATOM     27  C   UNL     1      31.953  -3.980 -21.652  0.00  0.00    +0.202 C 
ATOM     28  C   UNL     1      32.374  -4.281 -22.924  0.00  0.00    +0.143 C 
ENDBRANCH  23  26
ENDBRANCH  17  18
ENDBRANCH  16  17
ENDBRANCH  10  11
ENDBRANCH   1  10
BRANCH   2  29
ATOM     29  C   UNL     1      35.560 -20.621 -20.703  0.00  0.00    -0.050 C 
BRANCH  29  30
ATOM     30  C   UNL     1      35.276 -21.282 -19.380  0.00  0.00    -0.043 C 
ATOM     31  C   UNL     1      36.290 -21.402 -18.429  0.00  0.00    -0.006 C 
ATOM     32  C   UNL     1      34.000 -21.776 -19.106  0.00  0.00    -0.006 C 
ATOM     33  C   UNL     1      36.027 -22.015 -17.205  0.00  0.00    +0.006 C 
ATOM     34  C   UNL     1      33.738 -22.389 -17.882  0.00  0.00    +0.006 C 
ATOM     35  C   UNL     1      34.751 -22.508 -16.930  0.00  0.00    +0.075 C 
BRANCH  35  37
ATOM     36  O   UNL     1      33.634 -22.773 -14.831  0.00  0.00    -0.245 OA
ATOM     37  C   UNL     1      34.477 -23.146 -15.653  0.00  0.00    +0.338 C 
BRANCH  37  38
ATOM     38  O   UNL     1      35.264 -24.236 -15.437  0.00  0.00    -0.477 OA
ATOM     39  H   UNL     1      35.060 -25.051 -15.853  0.00  0.00    +0.295 HD
ENDBRANCH  37  38
ENDBRANCH  35  37
ENDBRANCH  29  30
ENDBRANCH   2  29
TORSDOF 9
ENDMDL
MODEL 8
REMARK VINA RESULT:     -11.5      2.509     12.022
REMARK  Name = 68488178
REMARK  9 active torsions:
REMARK  status: ('A' for Active; 'I' for Inactive)
REMARK    1  A    between atoms: N_1  and  C_10
REMARK    2  A    between atoms: N_2  and  C_29
REMARK    3  A    between atoms: C_10  and  C_11
REMARK    4  A    between atoms: C_16  and  O_17
REMARK    5  A    between atoms: O_17  and  C_18
REMARK    6  A    between atoms: C_23  and  C_26
REMARK    7  A    between atoms: C_29  and  C_30
REMARK    8  A    between atoms: C_35  and  C_37
REMARK    9  A    between atoms: C_37  and  O_38
REMARK                            x       y       z     vdW  Elec       q    Type
REMARK                         _______ _______ _______ _____ _____    ______ ____
ROOT
ATOM      1  N   UNL     1      35.588 -18.969 -20.143  0.00  0.00    +0.388 N 
ATOM      2  N   UNL     1      34.283 -21.124 -18.916  0.00  0.00    +0.388 N 
ATOM      3  C   UNL     1      34.556 -19.776 -20.837  0.00  0.00    -0.081 C 
ATOM      4  C   UNL     1      35.583 -21.271 -19.615  0.00  0.00    -0.081 C 
ATOM      5  C   UNL     1      35.234 -21.112 -21.084  0.00  0.00    -0.046 C 
ATOM      6  C   UNL     1      36.361 -19.966 -19.361  0.00  0.00    -0.098 C 
ATOM      7  C   UNL     1      33.524 -20.172 -19.765  0.00  0.00    -0.098 C 
ATOM      8  H   UNL     1      35.174 -18.247 -19.553  0.00  0.00    -0.079 HD
ATOM      9  H   UNL     1      34.400 -20.786 -17.960  0.00  0.00    -0.079 HD
ENDROOT
BRANCH   1  10
ATOM     10  C   UNL     1      36.433 -18.223 -21.068  0.00  0.00    -0.050 C 
BRANCH  10  11
ATOM     11  C   UNL     1      35.645 -17.208 -21.853  0.00  0.00    -0.043 C 
ATOM     12  C   UNL     1      35.253 -16.012 -21.250  0.00  0.00    -0.003 C 
ATOM     13  C   UNL     1      35.307 -17.463 -23.182  0.00  0.00    -0.003 C 
ATOM     14  C   UNL     1      34.523 -15.071 -21.977  0.00  0.00    +0.037 C 
ATOM     15  C   UNL     1      34.577 -16.523 -23.909  0.00  0.00    +0.037 C 
ATOM     16  C   UNL     1      34.185 -15.327 -23.307  0.00  0.00    +0.145 C 
BRANCH  16  17
ATOM     17  O   UNL     1      33.472 -14.409 -24.016  0.00  0.00    -0.453 OA
BRANCH  17  18
ATOM     18  C   UNL     1      33.238 -13.179 -23.424  0.00  0.00    +0.145 C 
ATOM     19  C   UNL     1      32.429 -13.093 -22.291  0.00  0.00    +0.038 C 
ATOM     20  C   UNL     1      33.809 -12.026 -23.962  0.00  0.00    +0.038 C 
ATOM     21  C   UNL     1      32.190 -11.854 -21.697  0.00  0.00    +0.008 C 
ATOM     22  C   UNL     1      33.571 -10.787 -23.369  0.00  0.00    +0.008 C 
ATOM     23  C   UNL     1      32.761 -10.700 -22.235  0.00  0.00    +0.054 C 
BRANCH  23  26
ATOM     24  O   UNL     1      33.378  -8.430 -21.978  0.00  0.00    -0.431 OA
ATOM     25  N   UNL     1      31.577  -9.070 -20.769  0.00  0.00    -0.206 NA
ATOM     26  C   UNL     1      32.514  -9.419 -21.621  0.00  0.00    +0.230 C 
ATOM     27  C   UNL     1      32.935  -7.350 -21.275  0.00  0.00    +0.202 C 
ATOM     28  C   UNL     1      31.842  -7.743 -20.544  0.00  0.00    +0.143 C 
ENDBRANCH  23  26
ENDBRANCH  17  18
ENDBRANCH  16  17
ENDBRANCH  10  11
ENDBRANCH   1  10
BRANCH   2  29
ATOM     29  C   UNL     1      33.585 -22.394 -18.755  0.00  0.00    -0.050 C 
BRANCH  29  30
ATOM     30  C   UNL     1      33.356 -22.728 -17.306  0.00  0.00    -0.043 C 
ATOM     31  C   UNL     1      34.443 -22.966 -16.465  0.00  0.00    -0.006 C 
ATOM     32  C   UNL     1      32.056 -22.801 -16.803  0.00  0.00    -0.006 C 
ATOM     33  C   UNL     1      34.231 -23.277 -15.123  0.00  0.00    +0.006 C 
ATOM     34  C   UNL     1      31.844 -23.112 -15.461  0.00  0.00    +0.006 C 
ATOM     35  C   UNL     1      32.932 -23.349 -14.619  0.00  0.00    +0.075 C 
BRANCH  35  37
ATOM     36  O   UNL     1      31.858 -23.155 -12.490  0.00  0.00    -0.245 OA
ATOM     37  C   UNL     1      32.711 -23.672 -13.219  0.00  0.00    +0.338 C 
BRANCH  37  38
ATOM     38  O   UNL     1      33.561 -24.635 -12.767  0.00  0.00    -0.477 OA
ATOM     39  H   UNL     1      33.528 -24.906 -11.870  0.00  0.00    +0.295 HD
ENDBRANCH  37  38
ENDBRANCH  35  37
ENDBRANCH  29  30
ENDBRANCH   2  29
TORSDOF 9
ENDMDL
MODEL 9
REMARK VINA RESULT:     -11.4      4.541      8.877
REMARK  Name = 68488178
REMARK  9 active torsions:
REMARK  status: ('A' for Active; 'I' for Inactive)
REMARK    1  A    between atoms: N_1  and  C_10
REMARK    2  A    between atoms: N_2  and  C_29
REMARK    3  A    between atoms: C_10  and  C_11
REMARK    4  A    between atoms: C_16  and  O_17
REMARK    5  A    between atoms: O_17  and  C_18
REMARK    6  A    between atoms: C_23  and  C_26
REMARK    7  A    between atoms: C_29  and  C_30
REMARK    8  A    between atoms: C_35  and  C_37
REMARK    9  A    between atoms: C_37  and  O_38
REMARK                            x       y       z     vdW  Elec       q    Type
REMARK                         _______ _______ _______ _____ _____    ______ ____
ROOT
ATOM      1  N   UNL     1      32.663 -10.479 -21.900  0.00  0.00    +0.388 N 
ATOM      2  N   UNL     1      33.194  -7.811 -21.229  0.00  0.00    +0.388 N 
ATOM      3  C   UNL     1      32.365  -9.352 -22.816  0.00  0.00    -0.081 C 
ATOM      4  C   UNL     1      31.932  -8.493 -20.851  0.00  0.00    -0.081 C 
ATOM      5  C   UNL     1      31.188  -8.647 -22.166  0.00  0.00    -0.046 C 
ATOM      6  C   UNL     1      32.303  -9.958 -20.557  0.00  0.00    -0.098 C 
ATOM      7  C   UNL     1      33.479  -8.311 -22.597  0.00  0.00    -0.098 C 
ATOM      8  H   UNL     1      33.641 -10.769 -21.956  0.00  0.00    -0.079 HD
ATOM      9  H   UNL     1      33.950  -8.016 -20.573  0.00  0.00    -0.079 HD
ENDROOT
BRANCH   1  10
ATOM     10  C   UNL     1      31.921 -11.688 -22.237  0.00  0.00    -0.050 C 
BRANCH  10  11
ATOM     11  C   UNL     1      32.837 -12.851 -22.510  0.00  0.00    -0.043 C 
ATOM     12  C   UNL     1      33.625 -13.373 -21.484  0.00  0.00    -0.003 C 
ATOM     13  C   UNL     1      32.897 -13.407 -23.788  0.00  0.00    -0.003 C 
ATOM     14  C   UNL     1      34.474 -14.451 -21.736  0.00  0.00    +0.037 C 
ATOM     15  C   UNL     1      33.746 -14.485 -24.040  0.00  0.00    +0.037 C 
ATOM     16  C   UNL     1      34.534 -15.006 -23.015  0.00  0.00    +0.145 C 
BRANCH  16  17
ATOM     17  O   UNL     1      35.363 -16.058 -23.261  0.00  0.00    -0.453 OA
BRANCH  17  18
ATOM     18  C   UNL     1      35.249 -17.172 -22.447  0.00  0.00    +0.145 C 
ATOM     19  C   UNL     1      34.520 -18.280 -22.880  0.00  0.00    +0.038 C 
ATOM     20  C   UNL     1      35.862 -17.187 -21.195  0.00  0.00    +0.038 C 
ATOM     21  C   UNL     1      34.403 -19.401 -22.059  0.00  0.00    +0.008 C 
ATOM     22  C   UNL     1      35.745 -18.308 -20.374  0.00  0.00    +0.008 C 
ATOM     23  C   UNL     1      35.015 -19.417 -20.806  0.00  0.00    +0.054 C 
BRANCH  23  26
ATOM     24  O   UNL     1      33.621 -20.894 -19.591  0.00  0.00    -0.431 OA
ATOM     25  N   UNL     1      35.831 -21.367 -19.487  0.00  0.00    -0.206 NA
ATOM     26  C   UNL     1      34.893 -20.576 -19.957  0.00  0.00    +0.230 C 
ATOM     27  C   UNL     1      33.782 -21.999 -18.810  0.00  0.00    +0.202 C 
ATOM     28  C   UNL     1      35.123 -22.283 -18.751  0.00  0.00    +0.143 C 
ENDBRANCH  23  26
ENDBRANCH  17  18
ENDBRANCH  16  17
ENDBRANCH  10  11
ENDBRANCH   1  10
BRANCH   2  29
ATOM     29  C   UNL     1      33.081  -6.357 -21.188  0.00  0.00    -0.050 C 
BRANCH  29  30
ATOM     30  C   UNL     1      33.046  -5.759 -22.569  0.00  0.00    -0.043 C 
ATOM     31  C   UNL     1      34.208  -5.720 -23.341  0.00  0.00    -0.006 C 
ATOM     32  C   UNL     1      31.854  -5.244 -23.077  0.00  0.00    -0.006 C 
ATOM     33  C   UNL     1      34.176  -5.165 -24.620  0.00  0.00    +0.006 C 
ATOM     34  C   UNL     1      31.822  -4.688 -24.355  0.00  0.00    +0.006 C 
ATOM     35  C   UNL     1      32.984  -4.650 -25.128  0.00  0.00    +0.075 C 
BRANCH  35  37
ATOM     36  O   UNL     1      33.584  -4.487 -27.438  0.00  0.00    -0.245 OA
ATOM     37  C   UNL     1      32.951  -4.072 -26.462  0.00  0.00    +0.338 C 
BRANCH  37  38
ATOM     38  O   UNL     1      32.127  -2.991 -26.540  0.00  0.00    -0.477 OA
ATOM     39  H   UNL     1      32.454  -2.175 -26.865  0.00  0.00    +0.295 HD
ENDBRANCH  37  38
ENDBRANCH  35  37
ENDBRANCH  29  30
ENDBRANCH   2  29
TORSDOF 9
ENDMDL
