MODEL 1
REMARK VINA RESULT:     -11.6      0.000      0.000
REMARK  Name = 11234049
REMARK  5 active torsions:
REMARK  status: ('A' for Active; 'I' for Inactive)
REMARK    1  A    between atoms: C_2  and  N_10
REMARK    2  A    between atoms: C_5  and  C_18
REMARK    3  A    between atoms: C_11  and  C_14
REMARK    4  A    between atoms: C_14  and  O_15
REMARK    5  A    between atoms: C_22  and  C_27
REMARK                            x       y       z     vdW  Elec       q    Type
REMARK                         _______ _______ _______ _____ _____    ______ ____
ROOT
ATOM      1  F   UNL     1      33.210 -22.481 -17.832  0.00  0.00    -0.204 F 
ATOM      2  C   UNL     1      35.961 -23.136 -15.541  0.00  0.00    +0.059 C 
ATOM      3  C   UNL     1      34.690 -23.166 -16.126  0.00  0.00    +0.045 C 
ATOM      4  C   UNL     1      36.972 -22.372 -16.132  0.00  0.00    +0.015 C 
ATOM      5  C   UNL     1      35.448 -21.679 -17.872  0.00  0.00    +0.029 C 
ATOM      6  C   UNL     1      34.434 -22.440 -17.288  0.00  0.00    +0.141 C 
ATOM      7  C   UNL     1      36.717 -21.647 -17.295  0.00  0.00    +0.004 C 
ENDROOT
BRANCH   2  10
ATOM      8  O   UNL     1      36.647 -25.566 -12.918  0.00  0.00    -0.434 OA
ATOM      9  O   UNL     1      36.431 -26.110 -15.109  0.00  0.00    -0.226 OA
ATOM     10  N   UNL     1      36.222 -23.877 -14.354  0.00  0.00    -0.221 N 
ATOM     11  C   UNL     1      36.803 -24.355 -12.166  0.00  0.00    +0.220 C 
ATOM     12  C   UNL     1      36.189 -23.287 -13.043  0.00  0.00    +0.148 C 
ATOM     13  C   UNL     1      36.437 -25.249 -14.242  0.00  0.00    +0.409 C 
BRANCH  11  14
ATOM     14  C   UNL     1      38.285 -24.131 -11.896  0.00  0.00    +0.183 C 
BRANCH  14  15
ATOM     15  O   UNL     1      38.432 -22.949 -11.128  0.00  0.00    -0.378 OA
ATOM     16  H   UNL     1      38.898 -22.280 -11.652  0.00  0.00    +0.211 HD
ENDBRANCH  14  15
ENDBRANCH  11  14
ENDBRANCH   2  10
BRANCH   5  18
ATOM     17  N   UNL     1      36.047 -19.619 -20.921  0.00  0.00    -0.234 NA
ATOM     18  C   UNL     1      35.187 -20.923 -19.079  0.00  0.00    +0.021 C 
ATOM     19  C   UNL     1      33.893 -20.768 -19.558  0.00  0.00    +0.004 C 
ATOM     20  C   UNL     1      36.221 -20.336 -19.788  0.00  0.00    +0.100 C 
ATOM     21  C   UNL     1      33.674 -20.036 -20.720  0.00  0.00    +0.029 C 
ATOM     22  C   UNL     1      34.774 -19.487 -21.358  0.00  0.00    +0.146 C 
BRANCH  22  27
ATOM     23  N   UNL     1      34.941 -17.434 -22.665  0.00  0.00    -0.105 NA
ATOM     24  N   UNL     1      34.591 -17.223 -23.941  0.00  0.00    -0.113 N 
ATOM     25  N   UNL     1      34.087 -19.258 -23.700  0.00  0.00    -0.085 NA
ATOM     26  N   UNL     1      34.080 -18.277 -24.594  0.00  0.00    -0.018 NA
ATOM     27  C   UNL     1      34.607 -18.722 -22.561  0.00  0.00    +0.092 C 
ATOM     28  C   UNL     1      34.752 -15.940 -24.574  0.00  0.00    +0.163 C 
ENDBRANCH  22  27
ENDBRANCH   5  18
TORSDOF 5
ENDMDL
MODEL 2
REMARK VINA RESULT:     -11.4      4.739     10.045
REMARK  Name = 11234049
REMARK  5 active torsions:
REMARK  status: ('A' for Active; 'I' for Inactive)
REMARK    1  A    between atoms: C_2  and  N_10
REMARK    2  A    between atoms: C_5  and  C_18
REMARK    3  A    between atoms: C_11  and  C_14
REMARK    4  A    between atoms: C_14  and  O_15
REMARK    5  A    between atoms: C_22  and  C_27
REMARK                            x       y       z     vdW  Elec       q    Type
REMARK                         _______ _______ _______ _____ _____    ______ ____
ROOT
ATOM      1  F   UNL     1      32.984 -20.853 -19.695  0.00  0.00    -0.204 F 
ATOM      2  C   UNL     1      35.002 -18.791 -21.913  0.00  0.00    +0.059 C 
ATOM      3  C   UNL     1      33.897 -19.439 -21.349  0.00  0.00    +0.045 C 
ATOM      4  C   UNL     1      36.265 -18.955 -21.336  0.00  0.00    +0.015 C 
ATOM      5  C   UNL     1      35.318 -20.401 -19.648  0.00  0.00    +0.029 C 
ATOM      6  C   UNL     1      34.055 -20.241 -20.220  0.00  0.00    +0.141 C 
ATOM      7  C   UNL     1      36.422 -19.756 -20.206  0.00  0.00    +0.004 C 
ENDROOT
BRANCH   2  10
ATOM      8  O   UNL     1      34.244 -17.223 -25.111  0.00  0.00    -0.434 OA
ATOM      9  O   UNL     1      33.571 -19.314 -24.546  0.00  0.00    -0.226 OA
ATOM     10  N   UNL     1      34.841 -17.973 -23.067  0.00  0.00    -0.221 N 
ATOM     11  C   UNL     1      34.799 -16.096 -24.419  0.00  0.00    +0.220 C 
ATOM     12  C   UNL     1      35.488 -16.696 -23.214  0.00  0.00    +0.148 C 
ATOM     13  C   UNL     1      34.156 -18.286 -24.239  0.00  0.00    +0.409 C 
BRANCH  11  14
ATOM     14  C   UNL     1      33.672 -15.140 -24.052  0.00  0.00    +0.183 C 
BRANCH  14  15
ATOM     15  O   UNL     1      32.742 -15.104 -25.120  0.00  0.00    -0.378 OA
ATOM     16  H   UNL     1      31.845 -15.226 -24.771  0.00  0.00    +0.211 HD
ENDBRANCH  14  15
ENDBRANCH  11  14
ENDBRANCH   2  10
BRANCH   5  18
ATOM     17  N   UNL     1      34.574 -22.891 -16.975  0.00  0.00    -0.234 NA
ATOM     18  C   UNL     1      35.487 -21.233 -18.475  0.00  0.00    +0.021 C 
ATOM     19  C   UNL     1      36.663 -21.197 -17.738  0.00  0.00    +0.004 C 
ATOM     20  C   UNL     1      34.481 -22.087 -18.059  0.00  0.00    +0.100 C 
ATOM     21  C   UNL     1      36.796 -22.008 -16.617  0.00  0.00    +0.029 C 
ATOM     22  C   UNL     1      35.732 -22.829 -16.280  0.00  0.00    +0.146 C 
BRANCH  22  27
ATOM     23  N   UNL     1      36.815 -24.544 -14.926  0.00  0.00    -0.105 NA
ATOM     24  N   UNL     1      36.412 -25.069 -13.760  0.00  0.00    -0.113 N 
ATOM     25  N   UNL     1      34.864 -23.690 -14.156  0.00  0.00    -0.085 NA
ATOM     26  N   UNL     1      35.260 -24.592 -13.267  0.00  0.00    -0.018 NA
ATOM     27  C   UNL     1      35.814 -23.686 -15.133  0.00  0.00    +0.092 C 
ATOM     28  C   UNL     1      37.170 -26.085 -13.078  0.00  0.00    +0.163 C 
ENDBRANCH  22  27
ENDBRANCH   5  18
TORSDOF 5
ENDMDL
MODEL 3
REMARK VINA RESULT:     -11.1      1.069      1.366
REMARK  Name = 11234049
REMARK  5 active torsions:
REMARK  status: ('A' for Active; 'I' for Inactive)
REMARK    1  A    between atoms: C_2  and  N_10
REMARK    2  A    between atoms: C_5  and  C_18
REMARK    3  A    between atoms: C_11  and  C_14
REMARK    4  A    between atoms: C_14  and  O_15
REMARK    5  A    between atoms: C_22  and  C_27
REMARK                            x       y       z     vdW  Elec       q    Type
REMARK                         _______ _______ _______ _____ _____    ______ ____
ROOT
ATOM      1  F   UNL     1      33.570 -22.507 -18.262  0.00  0.00    -0.204 F 
ATOM      2  C   UNL     1      36.118 -22.920 -15.697  0.00  0.00    +0.059 C 
ATOM      3  C   UNL     1      34.930 -23.076 -16.419  0.00  0.00    +0.045 C 
ATOM      4  C   UNL     1      37.089 -22.024 -16.156  0.00  0.00    +0.015 C 
ATOM      5  C   UNL     1      35.689 -21.451 -18.038  0.00  0.00    +0.029 C 
ATOM      6  C   UNL     1      34.715 -22.343 -17.586  0.00  0.00    +0.141 C 
ATOM      7  C   UNL     1      36.876 -21.293 -17.323  0.00  0.00    +0.004 C 
ENDROOT
BRANCH   2  10
ATOM      8  O   UNL     1      37.321 -24.848 -12.852  0.00  0.00    -0.434 OA
ATOM      9  O   UNL     1      38.655 -24.138 -14.543  0.00  0.00    -0.226 OA
ATOM     10  N   UNL     1      36.336 -23.667 -14.505  0.00  0.00    -0.221 N 
ATOM     11  C   UNL     1      35.988 -24.568 -12.403  0.00  0.00    +0.220 C 
ATOM     12  C   UNL     1      35.265 -24.090 -13.643  0.00  0.00    +0.148 C 
ATOM     13  C   UNL     1      37.542 -24.186 -14.039  0.00  0.00    +0.409 C 
BRANCH  11  14
ATOM     14  C   UNL     1      36.049 -23.518 -11.302  0.00  0.00    +0.183 C 
BRANCH  14  15
ATOM     15  O   UNL     1      36.933 -23.971 -10.291  0.00  0.00    -0.378 OA
ATOM     16  H   UNL     1      36.974 -23.313  -9.580  0.00  0.00    +0.211 HD
ENDBRANCH  14  15
ENDBRANCH  11  14
ENDBRANCH   2  10
BRANCH   5  18
ATOM     17  N   UNL     1      33.936 -19.886 -20.932  0.00  0.00    -0.234 NA
ATOM     18  C   UNL     1      35.471 -20.688 -19.249  0.00  0.00    +0.021 C 
ATOM     19  C   UNL     1      36.523 -20.043 -19.885  0.00  0.00    +0.004 C 
ATOM     20  C   UNL     1      34.208 -20.582 -19.805  0.00  0.00    +0.100 C 
ATOM     21  C   UNL     1      36.283 -19.318 -21.047  0.00  0.00    +0.029 C 
ATOM     22  C   UNL     1      34.984 -19.271 -21.525  0.00  0.00    +0.146 C 
BRANCH  22  27
ATOM     23  N   UNL     1      34.997 -17.254 -22.897  0.00  0.00    -0.105 NA
ATOM     24  N   UNL     1      34.503 -17.077 -24.130  0.00  0.00    -0.113 N 
ATOM     25  N   UNL     1      34.032 -19.104 -23.778  0.00  0.00    -0.085 NA
ATOM     26  N   UNL     1      33.922 -18.147 -24.691  0.00  0.00    -0.018 NA
ATOM     27  C   UNL     1      34.679 -18.538 -22.721  0.00  0.00    +0.092 C 
ATOM     28  C   UNL     1      34.589 -15.813 -24.812  0.00  0.00    +0.163 C 
ENDBRANCH  22  27
ENDBRANCH   5  18
TORSDOF 5
ENDMDL
MODEL 4
REMARK VINA RESULT:     -11.1      1.150      1.805
REMARK  Name = 11234049
REMARK  5 active torsions:
REMARK  status: ('A' for Active; 'I' for Inactive)
REMARK    1  A    between atoms: C_2  and  N_10
REMARK    2  A    between atoms: C_5  and  C_18
REMARK    3  A    between atoms: C_11  and  C_14
REMARK    4  A    between atoms: C_14  and  O_15
REMARK    5  A    between atoms: C_22  and  C_27
REMARK                            x       y       z     vdW  Elec       q    Type
REMARK                         _______ _______ _______ _____ _____    ______ ____
ROOT
ATOM      1  F   UNL     1      33.446 -22.401 -18.312  0.00  0.00    -0.204 F 
ATOM      2  C   UNL     1      36.047 -22.937 -15.824  0.00  0.00    +0.059 C 
ATOM      3  C   UNL     1      34.833 -23.038 -16.512  0.00  0.00    +0.045 C 
ATOM      4  C   UNL     1      37.042 -22.082 -16.307  0.00  0.00    +0.015 C 
ATOM      5  C   UNL     1      35.614 -21.438 -18.145  0.00  0.00    +0.029 C 
ATOM      6  C   UNL     1      34.616 -22.291 -17.668  0.00  0.00    +0.141 C 
ATOM      7  C   UNL     1      36.827 -21.335 -17.464  0.00  0.00    +0.004 C 
ENDROOT
BRANCH   2  10
ATOM      8  O   UNL     1      35.971 -24.727 -12.654  0.00  0.00    -0.434 OA
ATOM      9  O   UNL     1      34.206 -23.572 -13.488  0.00  0.00    -0.226 OA
ATOM     10  N   UNL     1      36.268 -23.700 -14.642  0.00  0.00    -0.221 N 
ATOM     11  C   UNL     1      37.232 -25.189 -13.157  0.00  0.00    +0.220 C 
ATOM     12  C   UNL     1      37.553 -24.243 -14.293  0.00  0.00    +0.148 C 
ATOM     13  C   UNL     1      35.361 -23.953 -13.616  0.00  0.00    +0.409 C 
BRANCH  11  14
ATOM     14  C   UNL     1      37.083 -26.637 -13.606  0.00  0.00    +0.183 C 
BRANCH  14  15
ATOM     15  O   UNL     1      38.286 -27.043 -14.235  0.00  0.00    -0.378 OA
ATOM     16  H   UNL     1      39.042 -26.681 -13.748  0.00  0.00    +0.211 HD
ENDBRANCH  14  15
ENDBRANCH  11  14
ENDBRANCH   2  10
BRANCH   5  18
ATOM     17  N   UNL     1      33.857 -19.839 -21.018  0.00  0.00    -0.234 NA
ATOM     18  C   UNL     1      35.394 -20.660 -19.346  0.00  0.00    +0.021 C 
ATOM     19  C   UNL     1      36.444 -20.003 -19.972  0.00  0.00    +0.004 C 
ATOM     20  C   UNL     1      34.131 -20.550 -19.900  0.00  0.00    +0.100 C 
ATOM     21  C   UNL     1      36.202 -19.263 -21.125  0.00  0.00    +0.029 C 
ATOM     22  C   UNL     1      34.903 -19.213 -21.602  0.00  0.00    +0.146 C 
BRANCH  22  27
ATOM     23  N   UNL     1      34.902 -17.176 -22.943  0.00  0.00    -0.105 NA
ATOM     24  N   UNL     1      34.412 -16.985 -24.176  0.00  0.00    -0.113 N 
ATOM     25  N   UNL     1      33.959 -19.021 -23.857  0.00  0.00    -0.085 NA
ATOM     26  N   UNL     1      33.843 -18.052 -24.755  0.00  0.00    -0.018 NA
ATOM     27  C   UNL     1      34.596 -18.465 -22.788  0.00  0.00    +0.092 C 
ATOM     28  C   UNL     1      34.488 -15.709 -24.838  0.00  0.00    +0.163 C 
ENDBRANCH  22  27
ENDBRANCH   5  18
TORSDOF 5
ENDMDL
MODEL 5
REMARK VINA RESULT:     -11.0      6.011      7.097
REMARK  Name = 11234049
REMARK  5 active torsions:
REMARK  status: ('A' for Active; 'I' for Inactive)
REMARK    1  A    between atoms: C_2  and  N_10
REMARK    2  A    between atoms: C_5  and  C_18
REMARK    3  A    between atoms: C_11  and  C_14
REMARK    4  A    between atoms: C_14  and  O_15
REMARK    5  A    between atoms: C_22  and  C_27
REMARK                            x       y       z     vdW  Elec       q    Type
REMARK                         _______ _______ _______ _____ _____    ______ ____
ROOT
ATOM      1  F   UNL     1      32.858 -23.095 -12.032  0.00  0.00    -0.204 F 
ATOM      2  C   UNL     1      35.803 -24.607 -13.543  0.00  0.00    +0.059 C 
ATOM      3  C   UNL     1      34.957 -24.012 -12.601  0.00  0.00    +0.045 C 
ATOM      4  C   UNL     1      35.331 -24.850 -14.836  0.00  0.00    +0.015 C 
ATOM      5  C   UNL     1      33.187 -23.909 -14.242  0.00  0.00    +0.029 C 
ATOM      6  C   UNL     1      33.653 -23.664 -12.949  0.00  0.00    +0.141 C 
ATOM      7  C   UNL     1      34.026 -24.503 -15.185  0.00  0.00    +0.004 C 
ENDROOT
BRANCH   2  10
ATOM      8  O   UNL     1      38.915 -25.900 -12.164  0.00  0.00    -0.434 OA
ATOM      9  O   UNL     1      36.863 -26.477 -11.391  0.00  0.00    -0.226 OA
ATOM     10  N   UNL     1      37.136 -24.961 -13.187  0.00  0.00    -0.221 N 
ATOM     11  C   UNL     1      39.430 -25.226 -13.320  0.00  0.00    +0.220 C 
ATOM     12  C   UNL     1      38.292 -24.342 -13.778  0.00  0.00    +0.148 C 
ATOM     13  C   UNL     1      37.539 -25.841 -12.186  0.00  0.00    +0.409 C 
BRANCH  11  14
ATOM     14  C   UNL     1      39.836 -26.266 -14.356  0.00  0.00    +0.183 C 
BRANCH  14  15
ATOM     15  O   UNL     1      40.214 -25.597 -15.546  0.00  0.00    -0.378 OA
ATOM     16  H   UNL     1      39.574 -25.797 -16.246  0.00  0.00    +0.211 HD
ENDBRANCH  14  15
ENDBRANCH  11  14
ENDBRANCH   2  10
BRANCH   5  18
ATOM     17  N   UNL     1      30.313 -22.652 -16.257  0.00  0.00    -0.234 NA
ATOM     18  C   UNL     1      31.833 -23.550 -14.609  0.00  0.00    +0.021 C 
ATOM     19  C   UNL     1      30.780 -23.741 -13.725  0.00  0.00    +0.004 C 
ATOM     20  C   UNL     1      31.553 -23.008 -15.851  0.00  0.00    +0.100 C 
ATOM     21  C   UNL     1      29.491 -23.386 -14.105  0.00  0.00    +0.029 C 
ATOM     22  C   UNL     1      29.312 -22.850 -15.370  0.00  0.00    +0.146 C 
BRANCH  22  27
ATOM     23  N   UNL     1      27.754 -21.983 -17.034  0.00  0.00    -0.105 NA
ATOM     24  N   UNL     1      26.431 -21.796 -16.925  0.00  0.00    -0.113 N 
ATOM     25  N   UNL     1      26.903 -22.565 -15.018  0.00  0.00    -0.085 NA
ATOM     26  N   UNL     1      25.884 -22.128 -15.747  0.00  0.00    -0.018 NA
ATOM     27  C   UNL     1      28.003 -22.466 -15.815  0.00  0.00    +0.092 C 
ATOM     28  C   UNL     1      25.644 -21.268 -18.009  0.00  0.00    +0.163 C 
ENDBRANCH  22  27
ENDBRANCH   5  18
TORSDOF 5
ENDMDL
MODEL 6
REMARK VINA RESULT:     -10.6      1.381      1.979
REMARK  Name = 11234049
REMARK  5 active torsions:
REMARK  status: ('A' for Active; 'I' for Inactive)
REMARK    1  A    between atoms: C_2  and  N_10
REMARK    2  A    between atoms: C_5  and  C_18
REMARK    3  A    between atoms: C_11  and  C_14
REMARK    4  A    between atoms: C_14  and  O_15
REMARK    5  A    between atoms: C_22  and  C_27
REMARK                            x       y       z     vdW  Elec       q    Type
REMARK                         _______ _______ _______ _____ _____    ______ ____
ROOT
ATOM      1  F   UNL     1      37.397 -20.616 -17.795  0.00  0.00    -0.204 F 
ATOM      2  C   UNL     1      35.777 -23.122 -15.712  0.00  0.00    +0.059 C 
ATOM      3  C   UNL     1      36.727 -22.216 -16.193  0.00  0.00    +0.045 C 
ATOM      4  C   UNL     1      34.570 -23.284 -16.399  0.00  0.00    +0.015 C 
ATOM      5  C   UNL     1      35.266 -21.645 -18.031  0.00  0.00    +0.029 C 
ATOM      6  C   UNL     1      36.473 -21.479 -17.349  0.00  0.00    +0.141 C 
ATOM      7  C   UNL     1      34.315 -22.546 -17.554  0.00  0.00    +0.004 C 
ENDROOT
BRANCH   2  10
ATOM      8  O   UNL     1      35.787 -24.949 -12.563  0.00  0.00    -0.434 OA
ATOM      9  O   UNL     1      33.944 -23.954 -13.432  0.00  0.00    -0.226 OA
ATOM     10  N   UNL     1      36.037 -23.876 -14.532  0.00  0.00    -0.221 N 
ATOM     11  C   UNL     1      37.098 -25.287 -13.037  0.00  0.00    +0.220 C 
ATOM     12  C   UNL     1      37.358 -24.302 -14.155  0.00  0.00    +0.148 C 
ATOM     13  C   UNL     1      35.132 -24.224 -13.533  0.00  0.00    +0.409 C 
BRANCH  11  14
ATOM     14  C   UNL     1      37.095 -26.736 -13.503  0.00  0.00    +0.183 C 
BRANCH  14  15
ATOM     15  O   UNL     1      38.288 -26.982 -14.227  0.00  0.00    -0.378 OA
ATOM     16  H   UNL     1      38.129 -26.830 -15.172  0.00  0.00    +0.211 HD
ENDBRANCH  14  15
ENDBRANCH  11  14
ENDBRANCH   2  10
BRANCH   5  18
ATOM     17  N   UNL     1      35.849 -19.623 -21.108  0.00  0.00    -0.234 NA
ATOM     18  C   UNL     1      34.997 -20.882 -19.232  0.00  0.00    +0.021 C 
ATOM     19  C   UNL     1      33.696 -20.671 -19.666  0.00  0.00    +0.004 C 
ATOM     20  C   UNL     1      36.031 -20.343 -19.978  0.00  0.00    +0.100 C 
ATOM     21  C   UNL     1      33.469 -19.934 -20.824  0.00  0.00    +0.029 C 
ATOM     22  C   UNL     1      34.569 -19.436 -21.502  0.00  0.00    +0.146 C 
BRANCH  22  27
ATOM     23  N   UNL     1      34.884 -17.437 -22.864  0.00  0.00    -0.105 NA
ATOM     24  N   UNL     1      34.449 -17.195 -24.108  0.00  0.00    -0.113 N 
ATOM     25  N   UNL     1      33.706 -19.142 -23.777  0.00  0.00    -0.085 NA
ATOM     26  N   UNL     1      33.746 -18.179 -24.688  0.00  0.00    -0.018 NA
ATOM     27  C   UNL     1      34.394 -18.668 -22.701  0.00  0.00    +0.092 C 
ATOM     28  C   UNL     1      34.718 -15.952 -24.782  0.00  0.00    +0.163 C 
ENDBRANCH  22  27
ENDBRANCH   5  18
TORSDOF 5
ENDMDL
MODEL 7
REMARK VINA RESULT:     -10.4      2.386      3.564
REMARK  Name = 11234049
REMARK  5 active torsions:
REMARK  status: ('A' for Active; 'I' for Inactive)
REMARK    1  A    between atoms: C_2  and  N_10
REMARK    2  A    between atoms: C_5  and  C_18
REMARK    3  A    between atoms: C_11  and  C_14
REMARK    4  A    between atoms: C_14  and  O_15
REMARK    5  A    between atoms: C_22  and  C_27
REMARK                            x       y       z     vdW  Elec       q    Type
REMARK                         _______ _______ _______ _____ _____    ______ ____
ROOT
ATOM      1  F   UNL     1      37.268 -19.550 -20.104  0.00  0.00    -0.204 F 
ATOM      2  C   UNL     1      35.218 -21.725 -18.028  0.00  0.00    +0.059 C 
ATOM      3  C   UNL     1      36.335 -21.070 -18.559  0.00  0.00    +0.045 C 
ATOM      4  C   UNL     1      33.950 -21.464 -18.558  0.00  0.00    +0.015 C 
ATOM      5  C   UNL     1      34.917 -19.910 -20.134  0.00  0.00    +0.029 C 
ATOM      6  C   UNL     1      36.185 -20.166 -19.609  0.00  0.00    +0.141 C 
ATOM      7  C   UNL     1      33.801 -20.558 -19.607  0.00  0.00    +0.004 C 
ENDROOT
BRANCH   2  10
ATOM      8  O   UNL     1      36.225 -23.817 -15.223  0.00  0.00    -0.434 OA
ATOM      9  O   UNL     1      37.555 -22.231 -16.149  0.00  0.00    -0.226 OA
ATOM     10  N   UNL     1      35.371 -22.650 -16.956  0.00  0.00    -0.221 N 
ATOM     11  C   UNL     1      34.837 -24.171 -15.297  0.00  0.00    +0.220 C 
ATOM     12  C   UNL     1      34.388 -23.653 -16.645  0.00  0.00    +0.148 C 
ATOM     13  C   UNL     1      36.480 -22.813 -16.130  0.00  0.00    +0.409 C 
BRANCH  11  14
ATOM     14  C   UNL     1      34.101 -23.525 -14.130  0.00  0.00    +0.183 C 
BRANCH  14  15
ATOM     15  O   UNL     1      35.014 -23.347 -13.061  0.00  0.00    -0.378 OA
ATOM     16  H   UNL     1      34.524 -23.267 -12.228  0.00  0.00    +0.211 HD
ENDBRANCH  14  15
ENDBRANCH  11  14
ENDBRANCH   2  10
BRANCH   5  18
ATOM     17  N   UNL     1      34.854 -16.690 -22.013  0.00  0.00    -0.234 NA
ATOM     18  C   UNL     1      34.757 -18.971 -21.225  0.00  0.00    +0.021 C 
ATOM     19  C   UNL     1      34.372 -19.403 -22.486  0.00  0.00    +0.004 C 
ATOM     20  C   UNL     1      34.985 -17.619 -21.038  0.00  0.00    +0.100 C 
ATOM     21  C   UNL     1      34.226 -18.478 -23.515  0.00  0.00    +0.029 C 
ATOM     22  C   UNL     1      34.477 -17.146 -23.228  0.00  0.00    +0.146 C 
BRANCH  22  27
ATOM     23  N   UNL     1      33.706 -14.988 -24.066  0.00  0.00    -0.105 NA
ATOM     24  N   UNL     1      33.869 -14.457 -25.286  0.00  0.00    -0.113 N 
ATOM     25  N   UNL     1      34.856 -16.310 -25.501  0.00  0.00    -0.085 NA
ATOM     26  N   UNL     1      34.545 -15.206 -26.169  0.00  0.00    -0.018 NA
ATOM     27  C   UNL     1      34.341 -16.147 -24.250  0.00  0.00    +0.092 C 
ATOM     28  C   UNL     1      33.348 -13.160 -25.629  0.00  0.00    +0.163 C 
ENDBRANCH  22  27
ENDBRANCH   5  18
TORSDOF 5
ENDMDL
MODEL 8
REMARK VINA RESULT:     -10.0      1.260      1.598
REMARK  Name = 11234049
REMARK  5 active torsions:
REMARK  status: ('A' for Active; 'I' for Inactive)
REMARK    1  A    between atoms: C_2  and  N_10
REMARK    2  A    between atoms: C_5  and  C_18
REMARK    3  A    between atoms: C_11  and  C_14
REMARK    4  A    between atoms: C_14  and  O_15
REMARK    5  A    between atoms: C_22  and  C_27
REMARK                            x       y       z     vdW  Elec       q    Type
REMARK                         _______ _______ _______ _____ _____    ______ ____
ROOT
ATOM      1  F   UNL     1      32.968 -21.919 -18.298  0.00  0.00    -0.204 F 
ATOM      2  C   UNL     1      35.798 -22.949 -16.255  0.00  0.00    +0.059 C 
ATOM      3  C   UNL     1      34.489 -22.812 -16.730  0.00  0.00    +0.045 C 
ATOM      4  C   UNL     1      36.843 -22.302 -16.923  0.00  0.00    +0.015 C 
ATOM      5  C   UNL     1      35.276 -21.395 -18.521  0.00  0.00    +0.029 C 
ATOM      6  C   UNL     1      34.229 -22.038 -17.859  0.00  0.00    +0.141 C 
ATOM      7  C   UNL     1      36.583 -21.529 -18.053  0.00  0.00    +0.004 C 
ENDROOT
BRANCH   2  10
ATOM      8  O   UNL     1      37.105 -24.726 -13.359  0.00  0.00    -0.434 OA
ATOM      9  O   UNL     1      38.352 -23.341 -14.651  0.00  0.00    -0.226 OA
ATOM     10  N   UNL     1      36.064 -23.739 -15.101  0.00  0.00    -0.221 N 
ATOM     11  C   UNL     1      35.709 -25.011 -13.202  0.00  0.00    +0.220 C 
ATOM     12  C   UNL     1      35.097 -24.642 -14.535  0.00  0.00    +0.148 C 
ATOM     13  C   UNL     1      37.270 -23.858 -14.415  0.00  0.00    +0.409 C 
BRANCH  11  14
ATOM     14  C   UNL     1      35.165 -24.186 -12.043  0.00  0.00    +0.183 C 
BRANCH  14  15
ATOM     15  O   UNL     1      33.759 -24.356 -11.986  0.00  0.00    -0.378 OA
ATOM     16  H   UNL     1      33.324 -23.513 -12.186  0.00  0.00    +0.211 HD
ENDBRANCH  14  15
ENDBRANCH  11  14
ENDBRANCH   2  10
BRANCH   5  18
ATOM     17  N   UNL     1      35.870 -19.325 -21.564  0.00  0.00    -0.234 NA
ATOM     18  C   UNL     1      35.011 -20.589 -19.694  0.00  0.00    +0.021 C 
ATOM     19  C   UNL     1      33.710 -20.304 -20.085  0.00  0.00    +0.004 C 
ATOM     20  C   UNL     1      36.048 -20.082 -20.458  0.00  0.00    +0.100 C 
ATOM     21  C   UNL     1      33.486 -19.528 -21.216  0.00  0.00    +0.029 C 
ATOM     22  C   UNL     1      34.590 -19.066 -21.915  0.00  0.00    +0.146 C 
BRANCH  22  27
ATOM     23  N   UNL     1      34.529 -16.930 -23.091  0.00  0.00    -0.105 NA
ATOM     24  N   UNL     1      34.285 -16.695 -24.387  0.00  0.00    -0.113 N 
ATOM     25  N   UNL     1      34.126 -18.798 -24.306  0.00  0.00    -0.085 NA
ATOM     26  N   UNL     1      34.040 -17.773 -25.146  0.00  0.00    -0.018 NA
ATOM     27  C   UNL     1      34.418 -18.260 -23.089  0.00  0.00    +0.092 C 
ATOM     28  C   UNL     1      34.283 -15.363 -24.934  0.00  0.00    +0.163 C 
ENDBRANCH  22  27
ENDBRANCH   5  18
TORSDOF 5
ENDMDL
MODEL 9
REMARK VINA RESULT:      -9.8      9.383     13.939
REMARK  Name = 11234049
REMARK  5 active torsions:
REMARK  status: ('A' for Active; 'I' for Inactive)
REMARK    1  A    between atoms: C_2  and  N_10
REMARK    2  A    between atoms: C_5  and  C_18
REMARK    3  A    between atoms: C_11  and  C_14
REMARK    4  A    between atoms: C_14  and  O_15
REMARK    5  A    between atoms: C_22  and  C_27
REMARK                            x       y       z     vdW  Elec       q    Type
REMARK                         _______ _______ _______ _____ _____    ______ ____
ROOT
ATOM      1  F   UNL     1      31.556 -12.247 -20.568  0.00  0.00    -0.204 F 
ATOM      2  C   UNL     1      32.105  -9.145 -22.391  0.00  0.00    +0.059 C 
ATOM      3  C   UNL     1      31.563 -10.078 -21.501  0.00  0.00    +0.045 C 
ATOM      4  C   UNL     1      33.179  -9.515 -23.207  0.00  0.00    +0.015 C 
ATOM      5  C   UNL     1      33.162 -11.730 -22.244  0.00  0.00    +0.029 C 
ATOM      6  C   UNL     1      32.090 -11.367 -21.427  0.00  0.00    +0.141 C 
ATOM      7  C   UNL     1      33.707 -10.803 -23.133  0.00  0.00    +0.004 C 
ENDROOT
BRANCH   2  10
ATOM      8  O   UNL     1      30.843  -5.763 -21.918  0.00  0.00    -0.434 OA
ATOM      9  O   UNL     1      31.664  -7.044 -20.237  0.00  0.00    -0.226 OA
ATOM     10  N   UNL     1      31.567  -7.829 -22.467  0.00  0.00    -0.221 N 
ATOM     11  C   UNL     1      30.842  -5.818 -23.351  0.00  0.00    +0.220 C 
ATOM     12  C   UNL     1      30.995  -7.288 -23.671  0.00  0.00    +0.148 C 
ATOM     13  C   UNL     1      31.406  -6.919 -21.425  0.00  0.00    +0.409 C 
BRANCH  11  14
ATOM     14  C   UNL     1      31.990  -4.967 -23.878  0.00  0.00    +0.183 C 
BRANCH  14  15
ATOM     15  O   UNL     1      32.156  -3.849 -23.022  0.00  0.00    -0.378 OA
ATOM     16  H   UNL     1      31.904  -3.041 -23.496  0.00  0.00    +0.211 HD
ENDBRANCH  14  15
ENDBRANCH  11  14
ENDBRANCH   2  10
BRANCH   5  18
ATOM     17  N   UNL     1      34.631 -14.848 -20.825  0.00  0.00    -0.234 NA
ATOM     18  C   UNL     1      33.712 -13.067 -22.172  0.00  0.00    +0.021 C 
ATOM     19  C   UNL     1      33.853 -13.843 -23.314  0.00  0.00    +0.004 C 
ATOM     20  C   UNL     1      34.111 -13.607 -20.962  0.00  0.00    +0.100 C 
ATOM     21  C   UNL     1      34.385 -15.124 -23.214  0.00  0.00    +0.029 C 
ATOM     22  C   UNL     1      34.756 -15.576 -21.957  0.00  0.00    +0.146 C 
BRANCH  22  27
ATOM     23  N   UNL     1      35.653 -17.400 -20.610  0.00  0.00    -0.105 NA
ATOM     24  N   UNL     1      36.098 -18.598 -21.013  0.00  0.00    -0.113 N 
ATOM     25  N   UNL     1      35.534 -17.722 -22.848  0.00  0.00    -0.085 NA
ATOM     26  N   UNL     1      36.046 -18.833 -22.332  0.00  0.00    -0.018 NA
ATOM     27  C   UNL     1      35.311 -16.889 -21.794  0.00  0.00    +0.092 C 
ATOM     28  C   UNL     1      36.604 -19.576 -20.085  0.00  0.00    +0.163 C 
ENDBRANCH  22  27
ENDBRANCH   5  18
TORSDOF 5
ENDMDL
