MODEL 1
REMARK VINA RESULT:     -13.2      0.000      0.000
REMARK  Name = 10138993
REMARK  4 active torsions:
REMARK  status: ('A' for Active; 'I' for Inactive)
REMARK    1  A    between atoms: C_5  and  N_18
REMARK    2  A    between atoms: C_12  and  C_22
REMARK    3  A    between atoms: C_22  and  C_26
REMARK    4  A    between atoms: C_23  and  N_29
REMARK                            x       y       z     vdW  Elec       q    Type
REMARK                         _______ _______ _______ _____ _____    ______ ____
ROOT
ATOM      1  O   UNL     1      33.327 -21.078 -20.018  0.00  0.00    -0.274 OA
ATOM      2  N   UNL     1      32.197 -23.161 -16.547  0.00  0.00    -0.275 N 
ATOM      3  N   UNL     1      34.777 -21.682 -18.272  0.00  0.00    -0.268 N 
ATOM      4  N   UNL     1      32.630 -22.494 -17.629  0.00  0.00    -0.157 NA
ATOM      5  C   UNL     1      35.523 -23.665 -14.206  0.00  0.00    +0.069 C 
ATOM      6  C   UNL     1      35.541 -23.007 -15.443  0.00  0.00    +0.020 C 
ATOM      7  C   UNL     1      34.338 -24.196 -13.693  0.00  0.00    +0.018 C 
ATOM      8  C   UNL     1      34.339 -22.893 -16.160  0.00  0.00    +0.052 A 
ATOM      9  C   UNL     1      33.174 -23.432 -15.626  0.00  0.00    +0.077 A 
ATOM     10  C   UNL     1      33.133 -24.091 -14.396  0.00  0.00    +0.020 C 
ATOM     11  C   UNL     1      33.922 -22.342 -17.379  0.00  0.00    +0.155 A 
ATOM     12  C   UNL     1      34.436 -21.111 -19.495  0.00  0.00    +0.232 C 
ATOM     13  H   UNL     1      31.258 -23.434 -16.426  0.00  0.00    +0.189 HD
ATOM     14  H   UNL     1      35.722 -21.616 -18.006  0.00  0.00    +0.156 HD
ENDROOT
BRANCH   5  18
ATOM     15  S   UNL     1      38.008 -24.822 -14.078  0.00  0.00    +0.057 S 
ATOM     16  O   UNL     1      37.440 -26.033 -14.635  0.00  0.00    -0.154 OA
ATOM     17  O   UNL     1      38.968 -24.017 -14.803  0.00  0.00    -0.154 OA
ATOM     18  N   UNL     1      36.754 -23.794 -13.447  0.00  0.00    -0.194 N 
ATOM     19  C   UNL     1      38.676 -25.217 -12.469  0.00  0.00    +0.174 C 
ATOM     20  C   UNL     1      38.172 -24.119 -11.548  0.00  0.00    +0.051 C 
ATOM     21  C   UNL     1      36.725 -23.855 -11.958  0.00  0.00    +0.117 C 
ENDBRANCH   5  18
BRANCH  12  22
ATOM     22  C   UNL     1      35.659 -20.488 -20.163  0.00  0.00    +0.112 C 
BRANCH  22  26
ATOM     23  C   UNL     1      34.762 -17.040 -22.584  0.00  0.00    +0.048 C 
ATOM     24  C   UNL     1      34.536 -18.343 -23.068  0.00  0.00    +0.014 C 
ATOM     25  C   UNL     1      35.288 -16.896 -21.286  0.00  0.00    +0.014 C 
ATOM     26  C   UNL     1      35.348 -19.294 -21.001  0.00  0.00    -0.013 C 
ATOM     27  C   UNL     1      34.827 -19.460 -22.285  0.00  0.00    -0.003 C 
ATOM     28  C   UNL     1      35.579 -18.012 -20.502  0.00  0.00    -0.003 C 
BRANCH  23  29
ATOM     29  N   UNL     1      34.469 -15.918 -23.371  0.00  0.00    -0.307 N 
ATOM     30  C   UNL     1      34.000 -13.622 -25.055  0.00  0.00    +0.004 C 
ATOM     31  C   UNL     1      33.800 -13.555 -23.546  0.00  0.00    +0.021 C 
ATOM     32  C   UNL     1      33.746 -15.039 -25.556  0.00  0.00    +0.021 C 
ATOM     33  C   UNL     1      34.672 -14.575 -22.816  0.00  0.00    +0.091 C 
ATOM     34  C   UNL     1      34.623 -16.054 -24.827  0.00  0.00    +0.091 C 
ENDBRANCH  23  29
ENDBRANCH  22  26
ENDBRANCH  12  22
TORSDOF 4
ENDMDL
MODEL 2
REMARK VINA RESULT:     -13.0      0.411      1.292
REMARK  Name = 10138993
REMARK  4 active torsions:
REMARK  status: ('A' for Active; 'I' for Inactive)
REMARK    1  A    between atoms: C_5  and  N_18
REMARK    2  A    between atoms: C_12  and  C_22
REMARK    3  A    between atoms: C_22  and  C_26
REMARK    4  A    between atoms: C_23  and  N_29
REMARK                            x       y       z     vdW  Elec       q    Type
REMARK                         _______ _______ _______ _____ _____    ______ ____
ROOT
ATOM      1  O   UNL     1      33.443 -20.902 -20.269  0.00  0.00    -0.274 OA
ATOM      2  N   UNL     1      32.320 -23.144 -16.895  0.00  0.00    -0.275 N 
ATOM      3  N   UNL     1      34.859 -21.449 -18.477  0.00  0.00    -0.268 N 
ATOM      4  N   UNL     1      32.749 -22.422 -17.943  0.00  0.00    -0.157 NA
ATOM      5  C   UNL     1      35.575 -23.476 -14.428  0.00  0.00    +0.069 C 
ATOM      6  C   UNL     1      35.598 -22.789 -15.648  0.00  0.00    +0.020 C 
ATOM      7  C   UNL     1      34.410 -24.100 -13.977  0.00  0.00    +0.018 C 
ATOM      8  C   UNL     1      34.421 -22.739 -16.413  0.00  0.00    +0.052 A 
ATOM      9  C   UNL     1      33.275 -23.370 -15.941  0.00  0.00    +0.077 A 
ATOM     10  C   UNL     1      33.230 -24.061 -14.728  0.00  0.00    +0.020 C 
ATOM     11  C   UNL     1      34.017 -22.187 -17.636  0.00  0.00    +0.155 A 
ATOM     12  C   UNL     1      34.529 -20.873 -19.700  0.00  0.00    +0.232 C 
ATOM     13  H   UNL     1      31.399 -23.483 -16.820  0.00  0.00    +0.189 HD
ATOM     14  H   UNL     1      35.786 -21.325 -18.170  0.00  0.00    +0.156 HD
ENDROOT
BRANCH   5  18
ATOM     15  S   UNL     1      38.051 -24.620 -14.118  0.00  0.00    +0.057 S 
ATOM     16  O   UNL     1      37.497 -25.875 -14.586  0.00  0.00    -0.154 OA
ATOM     17  O   UNL     1      39.037 -23.882 -14.880  0.00  0.00    -0.154 OA
ATOM     18  N   UNL     1      36.781 -23.539 -13.621  0.00  0.00    -0.194 N 
ATOM     19  C   UNL     1      38.664 -24.874 -12.460  0.00  0.00    +0.174 C 
ATOM     20  C   UNL     1      38.135 -23.699 -11.655  0.00  0.00    +0.051 C 
ATOM     21  C   UNL     1      36.703 -23.470 -12.134  0.00  0.00    +0.117 C 
ENDBRANCH   5  18
BRANCH  12  22
ATOM     22  C   UNL     1      35.732 -20.151 -20.303  0.00  0.00    +0.112 C 
BRANCH  22  26
ATOM     23  C   UNL     1      34.696 -16.714 -22.684  0.00  0.00    +0.048 C 
ATOM     24  C   UNL     1      35.076 -16.572 -21.336  0.00  0.00    +0.014 C 
ATOM     25  C   UNL     1      34.663 -18.011 -23.233  0.00  0.00    +0.014 C 
ATOM     26  C   UNL     1      35.373 -18.961 -21.128  0.00  0.00    -0.013 C 
ATOM     27  C   UNL     1      35.412 -17.685 -20.565  0.00  0.00    -0.003 C 
ATOM     28  C   UNL     1      34.999 -19.123 -22.461  0.00  0.00    -0.003 C 
BRANCH  23  29
ATOM     29  N   UNL     1      34.359 -15.596 -23.459  0.00  0.00    -0.307 N 
ATOM     30  C   UNL     1      33.540 -13.284 -24.979  0.00  0.00    +0.004 C 
ATOM     31  C   UNL     1      33.995 -14.565 -25.666  0.00  0.00    +0.021 C 
ATOM     32  C   UNL     1      34.223 -13.142 -23.624  0.00  0.00    +0.021 C 
ATOM     33  C   UNL     1      33.761 -15.792 -24.785  0.00  0.00    +0.091 C 
ATOM     34  C   UNL     1      33.982 -14.367 -22.746  0.00  0.00    +0.091 C 
ENDBRANCH  23  29
ENDBRANCH  22  26
ENDBRANCH  12  22
TORSDOF 4
ENDMDL
MODEL 3
REMARK VINA RESULT:     -12.8      1.311      1.485
REMARK  Name = 10138993
REMARK  4 active torsions:
REMARK  status: ('A' for Active; 'I' for Inactive)
REMARK    1  A    between atoms: C_5  and  N_18
REMARK    2  A    between atoms: C_12  and  C_22
REMARK    3  A    between atoms: C_22  and  C_26
REMARK    4  A    between atoms: C_23  and  N_29
REMARK                            x       y       z     vdW  Elec       q    Type
REMARK                         _______ _______ _______ _____ _____    ______ ____
ROOT
ATOM      1  O   UNL     1      32.925 -21.050 -19.665  0.00  0.00    -0.274 OA
ATOM      2  N   UNL     1      31.740 -23.116 -16.201  0.00  0.00    -0.275 N 
ATOM      3  N   UNL     1      34.387 -21.986 -18.082  0.00  0.00    -0.268 N 
ATOM      4  N   UNL     1      32.191 -22.468 -17.287  0.00  0.00    -0.157 NA
ATOM      5  C   UNL     1      35.109 -24.296 -14.189  0.00  0.00    +0.069 C 
ATOM      6  C   UNL     1      35.139 -23.580 -15.392  0.00  0.00    +0.020 C 
ATOM      7  C   UNL     1      33.896 -24.653 -13.596  0.00  0.00    +0.018 C 
ATOM      8  C   UNL     1      33.920 -23.228 -15.995  0.00  0.00    +0.052 A 
ATOM      9  C   UNL     1      32.727 -23.597 -15.384  0.00  0.00    +0.077 A 
ATOM     10  C   UNL     1      32.674 -24.311 -14.184  0.00  0.00    +0.020 C 
ATOM     11  C   UNL     1      33.507 -22.545 -17.147  0.00  0.00    +0.155 A 
ATOM     12  C   UNL     1      34.050 -21.296 -19.244  0.00  0.00    +0.232 C 
ATOM     13  H   UNL     1      30.781 -23.236 -16.010  0.00  0.00    +0.189 HD
ATOM     14  H   UNL     1      35.347 -22.091 -17.898  0.00  0.00    +0.156 HD
ENDROOT
BRANCH   5  18
ATOM     15  S   UNL     1      36.542 -24.345 -11.849  0.00  0.00    +0.057 S 
ATOM     16  O   UNL     1      35.984 -23.049 -11.516  0.00  0.00    -0.154 OA
ATOM     17  O   UNL     1      36.221 -25.539 -11.095  0.00  0.00    -0.154 OA
ATOM     18  N   UNL     1      36.358 -24.670 -13.548  0.00  0.00    -0.194 N 
ATOM     19  C   UNL     1      38.318 -24.172 -11.940  0.00  0.00    +0.174 C 
ATOM     20  C   UNL     1      38.720 -24.869 -13.229  0.00  0.00    +0.051 C 
ATOM     21  C   UNL     1      37.656 -24.498 -14.260  0.00  0.00    +0.117 C 
ENDBRANCH   5  18
BRANCH  12  22
ATOM     22  C   UNL     1      35.303 -20.845 -19.990  0.00  0.00    +0.112 C 
BRANCH  22  26
ATOM     23  C   UNL     1      34.721 -17.345 -22.432  0.00  0.00    +0.048 C 
ATOM     24  C   UNL     1      34.390 -18.626 -22.913  0.00  0.00    +0.014 C 
ATOM     25  C   UNL     1      35.248 -17.240 -21.130  0.00  0.00    +0.014 C 
ATOM     26  C   UNL     1      35.102 -19.633 -20.835  0.00  0.00    -0.013 C 
ATOM     27  C   UNL     1      34.579 -19.760 -22.123  0.00  0.00    -0.003 C 
ATOM     28  C   UNL     1      35.436 -18.373 -20.340  0.00  0.00    -0.003 C 
BRANCH  23  29
ATOM     29  N   UNL     1      34.531 -16.206 -23.226  0.00  0.00    -0.307 N 
ATOM     30  C   UNL     1      34.270 -13.888 -24.925  0.00  0.00    +0.004 C 
ATOM     31  C   UNL     1      34.100 -13.789 -23.415  0.00  0.00    +0.021 C 
ATOM     32  C   UNL     1      33.869 -15.277 -25.409  0.00  0.00    +0.021 C 
ATOM     33  C   UNL     1      34.876 -14.886 -22.686  0.00  0.00    +0.091 C 
ATOM     34  C   UNL     1      34.650 -16.369 -24.682  0.00  0.00    +0.091 C 
ENDBRANCH  23  29
ENDBRANCH  22  26
ENDBRANCH  12  22
TORSDOF 4
ENDMDL
MODEL 4
REMARK VINA RESULT:     -11.3      3.371      5.040
REMARK  Name = 10138993
REMARK  4 active torsions:
REMARK  status: ('A' for Active; 'I' for Inactive)
REMARK    1  A    between atoms: C_5  and  N_18
REMARK    2  A    between atoms: C_12  and  C_22
REMARK    3  A    between atoms: C_22  and  C_26
REMARK    4  A    between atoms: C_23  and  N_29
REMARK                            x       y       z     vdW  Elec       q    Type
REMARK                         _______ _______ _______ _____ _____    ______ ____
ROOT
ATOM      1  O   UNL     1      37.200 -22.027 -17.603  0.00  0.00    -0.274 OA
ATOM      2  N   UNL     1      35.278 -22.792 -13.944  0.00  0.00    -0.275 N 
ATOM      3  N   UNL     1      34.894 -22.384 -17.337  0.00  0.00    -0.268 N 
ATOM      4  N   UNL     1      35.824 -22.552 -15.148  0.00  0.00    -0.157 NA
ATOM      5  C   UNL     1      31.271 -23.255 -14.667  0.00  0.00    +0.069 C 
ATOM      6  C   UNL     1      32.210 -22.988 -15.670  0.00  0.00    +0.020 C 
ATOM      7  C   UNL     1      31.662 -23.382 -13.332  0.00  0.00    +0.018 C 
ATOM      8  C   UNL     1      33.560 -22.848 -15.307  0.00  0.00    +0.052 A 
ATOM      9  C   UNL     1      33.922 -22.978 -13.970  0.00  0.00    +0.077 A 
ATOM     10  C   UNL     1      33.001 -23.245 -12.954  0.00  0.00    +0.020 C 
ATOM     11  C   UNL     1      34.774 -22.589 -15.956  0.00  0.00    +0.155 A 
ATOM     12  C   UNL     1      36.062 -22.125 -18.049  0.00  0.00    +0.232 C 
ATOM     13  H   UNL     1      35.807 -22.828 -13.115  0.00  0.00    +0.189 HD
ATOM     14  H   UNL     1      34.063 -22.429 -17.861  0.00  0.00    +0.156 HD
ENDROOT
BRANCH   5  18
ATOM     15  S   UNL     1      29.188 -25.005 -15.035  0.00  0.00    +0.057 S 
ATOM     16  O   UNL     1      30.125 -25.951 -15.608  0.00  0.00    -0.154 OA
ATOM     17  O   UNL     1      28.519 -25.251 -13.775  0.00  0.00    -0.154 OA
ATOM     18  N   UNL     1      29.870 -23.404 -15.022  0.00  0.00    -0.194 N 
ATOM     19  C   UNL     1      27.967 -24.617 -16.279  0.00  0.00    +0.174 C 
ATOM     20  C   UNL     1      27.845 -23.103 -16.260  0.00  0.00    +0.051 C 
ATOM     21  C   UNL     1      29.266 -22.567 -16.098  0.00  0.00    +0.117 C 
ENDBRANCH   5  18
BRANCH  12  22
ATOM     22  C   UNL     1      35.766 -21.965 -19.538  0.00  0.00    +0.112 C 
BRANCH  22  26
ATOM     23  C   UNL     1      35.139 -17.885 -20.769  0.00  0.00    +0.048 C 
ATOM     24  C   UNL     1      34.054 -18.771 -20.620  0.00  0.00    +0.014 C 
ATOM     25  C   UNL     1      36.434 -18.370 -20.505  0.00  0.00    +0.014 C 
ATOM     26  C   UNL     1      35.549 -20.552 -19.964  0.00  0.00    -0.013 C 
ATOM     27  C   UNL     1      34.257 -20.092 -20.222  0.00  0.00    -0.003 C 
ATOM     28  C   UNL     1      36.637 -19.692 -20.106  0.00  0.00    -0.003 C 
BRANCH  23  29
ATOM     29  N   UNL     1      34.935 -16.558 -21.169  0.00  0.00    -0.307 N 
ATOM     30  C   UNL     1      34.660 -13.814 -22.021  0.00  0.00    +0.004 C 
ATOM     31  C   UNL     1      34.118 -14.287 -20.679  0.00  0.00    +0.021 C 
ATOM     32  C   UNL     1      34.653 -14.962 -23.025  0.00  0.00    +0.021 C 
ATOM     33  C   UNL     1      34.888 -15.499 -20.154  0.00  0.00    +0.091 C 
ATOM     34  C   UNL     1      35.427 -16.168 -22.498  0.00  0.00    +0.091 C 
ENDBRANCH  23  29
ENDBRANCH  22  26
ENDBRANCH  12  22
TORSDOF 4
ENDMDL
MODEL 5
REMARK VINA RESULT:     -11.1      3.015      4.872
REMARK  Name = 10138993
REMARK  4 active torsions:
REMARK  status: ('A' for Active; 'I' for Inactive)
REMARK    1  A    between atoms: C_5  and  N_18
REMARK    2  A    between atoms: C_12  and  C_22
REMARK    3  A    between atoms: C_22  and  C_26
REMARK    4  A    between atoms: C_23  and  N_29
REMARK                            x       y       z     vdW  Elec       q    Type
REMARK                         _______ _______ _______ _____ _____    ______ ____
ROOT
ATOM      1  O   UNL     1      37.460 -21.593 -17.687  0.00  0.00    -0.274 OA
ATOM      2  N   UNL     1      35.731 -22.709 -14.022  0.00  0.00    -0.275 N 
ATOM      3  N   UNL     1      35.250 -22.337 -17.406  0.00  0.00    -0.268 N 
ATOM      4  N   UNL     1      36.217 -22.369 -15.227  0.00  0.00    -0.157 NA
ATOM      5  C   UNL     1      31.852 -23.834 -14.717  0.00  0.00    +0.069 C 
ATOM      6  C   UNL     1      32.723 -23.401 -15.724  0.00  0.00    +0.020 C 
ATOM      7  C   UNL     1      32.273 -23.907 -13.387  0.00  0.00    +0.018 C 
ATOM      8  C   UNL     1      34.034 -23.040 -15.370  0.00  0.00    +0.052 A 
ATOM      9  C   UNL     1      34.426 -23.121 -14.039  0.00  0.00    +0.077 A 
ATOM     10  C   UNL     1      33.574 -23.550 -13.018  0.00  0.00    +0.020 C 
ATOM     11  C   UNL     1      35.180 -22.574 -16.027  0.00  0.00    +0.155 A 
ATOM     12  C   UNL     1      36.350 -21.877 -18.124  0.00  0.00    +0.232 C 
ATOM     13  H   UNL     1      36.267 -22.665 -13.197  0.00  0.00    +0.189 HD
ATOM     14  H   UNL     1      34.432 -22.516 -17.923  0.00  0.00    +0.156 HD
ENDROOT
BRANCH   5  18
ATOM     15  S   UNL     1      29.347 -22.950 -15.405  0.00  0.00    +0.057 S 
ATOM     16  O   UNL     1      29.516 -21.844 -14.484  0.00  0.00    -0.154 OA
ATOM     17  O   UNL     1      29.266 -22.754 -16.838  0.00  0.00    -0.154 OA
ATOM     18  N   UNL     1      30.493 -24.213 -15.061  0.00  0.00    -0.194 N 
ATOM     19  C   UNL     1      27.935 -23.904 -14.867  0.00  0.00    +0.174 C 
ATOM     20  C   UNL     1      28.395 -25.351 -14.904  0.00  0.00    +0.051 C 
ATOM     21  C   UNL     1      29.826 -25.354 -14.371  0.00  0.00    +0.117 C 
ENDBRANCH   5  18
BRANCH  12  22
ATOM     22  C   UNL     1      36.016 -21.754 -19.609  0.00  0.00    +0.112 C 
BRANCH  22  26
ATOM     23  C   UNL     1      35.208 -17.722 -20.892  0.00  0.00    +0.048 C 
ATOM     24  C   UNL     1      34.159 -18.634 -20.668  0.00  0.00    +0.014 C 
ATOM     25  C   UNL     1      36.529 -18.165 -20.684  0.00  0.00    +0.014 C 
ATOM     26  C   UNL     1      35.737 -20.357 -20.053  0.00  0.00    -0.013 C 
ATOM     27  C   UNL     1      34.420 -19.940 -20.253  0.00  0.00    -0.003 C 
ATOM     28  C   UNL     1      36.790 -19.470 -20.269  0.00  0.00    -0.003 C 
BRANCH  23  29
ATOM     29  N   UNL     1      34.946 -16.410 -21.308  0.00  0.00    -0.307 N 
ATOM     30  C   UNL     1      34.549 -13.694 -22.198  0.00  0.00    +0.004 C 
ATOM     31  C   UNL     1      34.048 -14.166 -20.839  0.00  0.00    +0.021 C 
ATOM     32  C   UNL     1      34.570 -14.856 -23.183  0.00  0.00    +0.021 C 
ATOM     33  C   UNL     1      34.873 -15.338 -20.310  0.00  0.00    +0.091 C 
ATOM     34  C   UNL     1      35.400 -16.023 -22.652  0.00  0.00    +0.091 C 
ENDBRANCH  23  29
ENDBRANCH  22  26
ENDBRANCH  12  22
TORSDOF 4
ENDMDL
MODEL 6
REMARK VINA RESULT:     -10.5      9.092     16.297
REMARK  Name = 10138993
REMARK  4 active torsions:
REMARK  status: ('A' for Active; 'I' for Inactive)
REMARK    1  A    between atoms: C_5  and  N_18
REMARK    2  A    between atoms: C_12  and  C_22
REMARK    3  A    between atoms: C_22  and  C_26
REMARK    4  A    between atoms: C_23  and  N_29
REMARK                            x       y       z     vdW  Elec       q    Type
REMARK                         _______ _______ _______ _____ _____    ______ ____
ROOT
ATOM      1  O   UNL     1      32.704 -10.925 -21.920  0.00  0.00    -0.274 OA
ATOM      2  N   UNL     1      31.247  -7.158 -20.757  0.00  0.00    -0.275 N 
ATOM      3  N   UNL     1      32.648  -9.016 -23.287  0.00  0.00    -0.268 N 
ATOM      4  N   UNL     1      31.728  -8.332 -21.197  0.00  0.00    -0.157 NA
ATOM      5  C   UNL     1      31.632  -4.592 -23.929  0.00  0.00    +0.069 C 
ATOM      6  C   UNL     1      32.022  -5.937 -23.971  0.00  0.00    +0.020 C 
ATOM      7  C   UNL     1      31.074  -4.042 -22.773  0.00  0.00    +0.018 C 
ATOM      8  C   UNL     1      31.843  -6.725 -22.822  0.00  0.00    +0.052 A 
ATOM      9  C   UNL     1      31.287  -6.151 -21.684  0.00  0.00    +0.077 A 
ATOM     10  C   UNL     1      30.891  -4.813 -21.620  0.00  0.00    +0.020 C 
ATOM     11  C   UNL     1      32.083  -8.052 -22.443  0.00  0.00    +0.155 A 
ATOM     12  C   UNL     1      32.913 -10.348 -22.981  0.00  0.00    +0.232 C 
ATOM     13  H   UNL     1      30.896  -7.032 -19.845  0.00  0.00    +0.189 HD
ATOM     14  H   UNL     1      32.882  -8.721 -24.196  0.00  0.00    +0.156 HD
ENDROOT
BRANCH   5  18
ATOM     15  S   UNL     1      33.305  -3.879 -25.985  0.00  0.00    +0.057 S 
ATOM     16  O   UNL     1      34.424  -3.983 -25.069  0.00  0.00    -0.154 OA
ATOM     17  O   UNL     1      33.135  -4.787 -27.100  0.00  0.00    -0.154 OA
ATOM     18  N   UNL     1      31.807  -3.760 -25.106  0.00  0.00    -0.194 N 
ATOM     19  C   UNL     1      33.239  -2.198 -26.585  0.00  0.00    +0.174 C 
ATOM     20  C   UNL     1      31.782  -1.786 -26.458  0.00  0.00    +0.051 C 
ATOM     21  C   UNL     1      31.296  -2.360 -25.129  0.00  0.00    +0.117 C 
ENDBRANCH   5  18
BRANCH  12  22
ATOM     22  C   UNL     1      33.530 -11.068 -24.179  0.00  0.00    +0.112 C 
BRANCH  22  26
ATOM     23  C   UNL     1      34.212 -15.271 -23.530  0.00  0.00    +0.048 C 
ATOM     24  C   UNL     1      34.640 -14.315 -22.589  0.00  0.00    +0.014 C 
ATOM     25  C   UNL     1      33.555 -14.815 -24.689  0.00  0.00    +0.014 C 
ATOM     26  C   UNL     1      33.766 -12.524 -23.954  0.00  0.00    -0.013 C 
ATOM     27  C   UNL     1      34.420 -12.954 -22.799  0.00  0.00    -0.003 C 
ATOM     28  C   UNL     1      33.335 -13.454 -24.899  0.00  0.00    -0.003 C 
BRANCH  23  29
ATOM     29  N   UNL     1      34.433 -16.638 -23.319  0.00  0.00    -0.307 N 
ATOM     30  C   UNL     1      35.033 -19.431 -22.906  0.00  0.00    +0.004 C 
ATOM     31  C   UNL     1      33.963 -18.986 -23.894  0.00  0.00    +0.021 C 
ATOM     32  C   UNL     1      35.159 -18.417 -21.775  0.00  0.00    +0.021 C 
ATOM     33  C   UNL     1      34.236 -17.580 -24.427  0.00  0.00    +0.091 C 
ATOM     34  C   UNL     1      35.437 -17.014 -22.313  0.00  0.00    +0.091 C 
ENDBRANCH  23  29
ENDBRANCH  22  26
ENDBRANCH  12  22
TORSDOF 4
ENDMDL
MODEL 7
REMARK VINA RESULT:     -10.5      8.870     15.884
REMARK  Name = 10138993
REMARK  4 active torsions:
REMARK  status: ('A' for Active; 'I' for Inactive)
REMARK    1  A    between atoms: C_5  and  N_18
REMARK    2  A    between atoms: C_12  and  C_22
REMARK    3  A    between atoms: C_22  and  C_26
REMARK    4  A    between atoms: C_23  and  N_29
REMARK                            x       y       z     vdW  Elec       q    Type
REMARK                         _______ _______ _______ _____ _____    ______ ____
ROOT
ATOM      1  O   UNL     1      32.369 -11.516 -21.880  0.00  0.00    -0.274 OA
ATOM      2  N   UNL     1      31.429  -7.550 -20.853  0.00  0.00    -0.275 N 
ATOM      3  N   UNL     1      33.080  -9.611 -23.055  0.00  0.00    -0.268 N 
ATOM      4  N   UNL     1      31.769  -8.790 -21.241  0.00  0.00    -0.157 NA
ATOM      5  C   UNL     1      33.191  -5.059 -23.589  0.00  0.00    +0.069 C 
ATOM      6  C   UNL     1      33.300  -6.454 -23.632  0.00  0.00    +0.020 C 
ATOM      7  C   UNL     1      32.455  -4.427 -22.584  0.00  0.00    +0.018 C 
ATOM      8  C   UNL     1      32.653  -7.210 -22.641  0.00  0.00    +0.052 A 
ATOM      9  C   UNL     1      31.928  -6.555 -21.651  0.00  0.00    +0.077 A 
ATOM     10  C   UNL     1      31.805  -5.165 -21.589  0.00  0.00    +0.020 C 
ATOM     11  C   UNL     1      32.507  -8.566 -22.319  0.00  0.00    +0.155 A 
ATOM     12  C   UNL     1      32.978 -10.975 -22.797  0.00  0.00    +0.232 C 
ATOM     13  H   UNL     1      30.871  -7.371 -20.063  0.00  0.00    +0.189 HD
ATOM     14  H   UNL     1      33.613  -9.352 -23.841  0.00  0.00    +0.156 HD
ENDROOT
BRANCH   5  18
ATOM     15  S   UNL     1      32.905  -3.087 -25.476  0.00  0.00    +0.057 S 
ATOM     16  O   UNL     1      31.599  -3.627 -25.799  0.00  0.00    -0.154 OA
ATOM     17  O   UNL     1      33.070  -1.786 -24.863  0.00  0.00    -0.154 OA
ATOM     18  N   UNL     1      33.852  -4.258 -24.605  0.00  0.00    -0.194 N 
ATOM     19  C   UNL     1      33.914  -3.171 -26.948  0.00  0.00    +0.174 C 
ATOM     20  C   UNL     1      35.237  -3.761 -26.491  0.00  0.00    +0.051 C 
ATOM     21  C   UNL     1      34.886  -4.862 -25.493  0.00  0.00    +0.117 C 
ENDBRANCH   5  18
BRANCH  12  22
ATOM     22  C   UNL     1      33.748 -11.784 -23.838  0.00  0.00    +0.112 C 
BRANCH  22  26
ATOM     23  C   UNL     1      34.684 -15.798 -22.589  0.00  0.00    +0.048 C 
ATOM     24  C   UNL     1      34.890 -14.705 -21.726  0.00  0.00    +0.014 C 
ATOM     25  C   UNL     1      34.162 -15.543 -23.872  0.00  0.00    +0.014 C 
ATOM     26  C   UNL     1      34.071 -13.174 -23.406  0.00  0.00    -0.013 C 
ATOM     27  C   UNL     1      34.587 -13.405 -22.130  0.00  0.00    -0.003 C 
ATOM     28  C   UNL     1      33.860 -14.242 -24.277  0.00  0.00    -0.003 C 
BRANCH  23  29
ATOM     29  N   UNL     1      34.987 -17.104 -22.183  0.00  0.00    -0.307 N 
ATOM     30  C   UNL     1      35.467 -19.820 -21.330  0.00  0.00    +0.004 C 
ATOM     31  C   UNL     1      36.176 -18.643 -20.672  0.00  0.00    +0.021 C 
ATOM     32  C   UNL     1      35.138 -19.490 -22.781  0.00  0.00    +0.021 C 
ATOM     33  C   UNL     1      35.360 -17.356 -20.786  0.00  0.00    +0.091 C 
ATOM     34  C   UNL     1      34.318 -18.206 -22.889  0.00  0.00    +0.091 C 
ENDBRANCH  23  29
ENDBRANCH  22  26
ENDBRANCH  12  22
TORSDOF 4
ENDMDL
MODEL 8
REMARK VINA RESULT:     -10.5      2.745      4.164
REMARK  Name = 10138993
REMARK  4 active torsions:
REMARK  status: ('A' for Active; 'I' for Inactive)
REMARK    1  A    between atoms: C_5  and  N_18
REMARK    2  A    between atoms: C_12  and  C_22
REMARK    3  A    between atoms: C_22  and  C_26
REMARK    4  A    between atoms: C_23  and  N_29
REMARK                            x       y       z     vdW  Elec       q    Type
REMARK                         _______ _______ _______ _____ _____    ______ ____
ROOT
ATOM      1  O   UNL     1      37.225 -20.752 -19.382  0.00  0.00    -0.274 OA
ATOM      2  N   UNL     1      36.757 -22.127 -15.437  0.00  0.00    -0.275 N 
ATOM      3  N   UNL     1      35.282 -21.751 -18.520  0.00  0.00    -0.268 N 
ATOM      4  N   UNL     1      36.835 -21.711 -16.712  0.00  0.00    -0.157 NA
ATOM      5  C   UNL     1      32.984 -23.679 -15.053  0.00  0.00    +0.069 C 
ATOM      6  C   UNL     1      33.476 -23.130 -16.244  0.00  0.00    +0.020 C 
ATOM      7  C   UNL     1      33.776 -23.728 -13.904  0.00  0.00    +0.018 C 
ATOM      8  C   UNL     1      34.787 -22.627 -16.261  0.00  0.00    +0.052 A 
ATOM      9  C   UNL     1      35.553 -22.686 -15.102  0.00  0.00    +0.077 A 
ATOM     10  C   UNL     1      35.083 -23.229 -13.904  0.00  0.00    +0.020 C 
ATOM     11  C   UNL     1      35.639 -22.019 -17.192  0.00  0.00    +0.155 A 
ATOM     12  C   UNL     1      36.072 -21.154 -19.498  0.00  0.00    +0.232 C 
ATOM     13  H   UNL     1      37.501 -22.036 -14.799  0.00  0.00    +0.189 HD
ATOM     14  H   UNL     1      34.373 -22.013 -18.791  0.00  0.00    +0.156 HD
ENDROOT
BRANCH   5  18
ATOM     15  S   UNL     1      30.305 -23.084 -15.121  0.00  0.00    +0.057 S 
ATOM     16  O   UNL     1      30.580 -21.896 -14.336  0.00  0.00    -0.154 OA
ATOM     17  O   UNL     1      29.847 -23.012 -16.493  0.00  0.00    -0.154 OA
ATOM     18  N   UNL     1      31.631 -24.206 -15.014  0.00  0.00    -0.194 N 
ATOM     19  C   UNL     1      29.185 -24.114 -14.185  0.00  0.00    +0.174 C 
ATOM     20  C   UNL     1      29.775 -25.513 -14.260  0.00  0.00    +0.051 C 
ATOM     21  C   UNL     1      31.285 -25.343 -14.114  0.00  0.00    +0.117 C 
ENDBRANCH   5  18
BRANCH  12  22
ATOM     22  C   UNL     1      35.312 -21.043 -20.818  0.00  0.00    +0.112 C 
BRANCH  22  26
ATOM     23  C   UNL     1      34.710 -16.993 -22.155  0.00  0.00    +0.048 C 
ATOM     24  C   UNL     1      34.559 -18.078 -23.041  0.00  0.00    +0.014 C 
ATOM     25  C   UNL     1      35.062 -17.269 -20.820  0.00  0.00    +0.014 C 
ATOM     26  C   UNL     1      35.104 -19.641 -21.280  0.00  0.00    -0.013 C 
ATOM     27  C   UNL     1      34.754 -19.389 -22.608  0.00  0.00    -0.003 C 
ATOM     28  C   UNL     1      35.258 -18.581 -20.387  0.00  0.00    -0.003 C 
BRANCH  23  29
ATOM     29  N   UNL     1      34.513 -15.676 -22.590  0.00  0.00    -0.307 N 
ATOM     30  C   UNL     1      34.234 -12.973 -23.563  0.00  0.00    +0.004 C 
ATOM     31  C   UNL     1      34.141 -13.296 -22.077  0.00  0.00    +0.021 C 
ATOM     32  C   UNL     1      33.770 -14.166 -24.390  0.00  0.00    +0.021 C 
ATOM     33  C   UNL     1      34.921 -14.563 -21.725  0.00  0.00    +0.091 C 
ATOM     34  C   UNL     1      34.556 -15.428 -24.039  0.00  0.00    +0.091 C 
ENDBRANCH  23  29
ENDBRANCH  22  26
ENDBRANCH  12  22
TORSDOF 4
ENDMDL
MODEL 9
REMARK VINA RESULT:     -10.4      1.890      2.826
REMARK  Name = 10138993
REMARK  4 active torsions:
REMARK  status: ('A' for Active; 'I' for Inactive)
REMARK    1  A    between atoms: C_5  and  N_18
REMARK    2  A    between atoms: C_12  and  C_22
REMARK    3  A    between atoms: C_22  and  C_26
REMARK    4  A    between atoms: C_23  and  N_29
REMARK                            x       y       z     vdW  Elec       q    Type
REMARK                         _______ _______ _______ _____ _____    ______ ____
ROOT
ATOM      1  O   UNL     1      31.711 -22.108 -17.512  0.00  0.00    -0.274 OA
ATOM      2  N   UNL     1      32.427 -23.043 -13.477  0.00  0.00    -0.275 N 
ATOM      3  N   UNL     1      33.649 -23.150 -16.689  0.00  0.00    -0.268 N 
ATOM      4  N   UNL     1      32.266 -22.775 -14.783  0.00  0.00    -0.157 NA
ATOM      5  C   UNL     1      36.105 -24.828 -13.201  0.00  0.00    +0.069 C 
ATOM      6  C   UNL     1      35.550 -24.386 -14.408  0.00  0.00    +0.020 C 
ATOM      7  C   UNL     1      35.416 -24.677 -11.996  0.00  0.00    +0.018 C 
ATOM      8  C   UNL     1      34.279 -23.787 -14.384  0.00  0.00    +0.052 A 
ATOM      9  C   UNL     1      33.614 -23.651 -13.170  0.00  0.00    +0.077 A 
ATOM     10  C   UNL     1      34.149 -24.084 -11.955  0.00  0.00    +0.020 C 
ATOM     11  C   UNL     1      33.392 -23.230 -15.314  0.00  0.00    +0.155 A 
ATOM     12  C   UNL     1      32.818 -22.612 -17.668  0.00  0.00    +0.232 C 
ATOM     13  H   UNL     1      31.748 -22.823 -12.799  0.00  0.00    +0.189 HD
ATOM     14  H   UNL     1      34.510 -23.514 -16.996  0.00  0.00    +0.156 HD
ENDROOT
BRANCH   5  18
ATOM     15  S   UNL     1      38.616 -24.849 -12.093  0.00  0.00    +0.057 S 
ATOM     16  O   UNL     1      38.564 -23.402 -12.023  0.00  0.00    -0.154 OA
ATOM     17  O   UNL     1      38.628 -25.678 -10.907  0.00  0.00    -0.154 OA
ATOM     18  N   UNL     1      37.418 -25.449 -13.203  0.00  0.00    -0.194 N 
ATOM     19  C   UNL     1      39.996 -25.300 -13.134  0.00  0.00    +0.174 C 
ATOM     20  C   UNL     1      39.450 -26.349 -14.088  0.00  0.00    +0.051 C 
ATOM     21  C   UNL     1      38.054 -25.875 -14.483  0.00  0.00    +0.117 C 
ENDBRANCH   5  18
BRANCH  12  22
ATOM     22  C   UNL     1      33.467 -22.715 -19.047  0.00  0.00    +0.112 C 
BRANCH  22  26
ATOM     23  C   UNL     1      34.385 -18.907 -20.838  0.00  0.00    +0.048 C 
ATOM     24  C   UNL     1      33.059 -19.379 -20.780  0.00  0.00    +0.014 C 
ATOM     25  C   UNL     1      35.402 -19.714 -20.293  0.00  0.00    +0.014 C 
ATOM     26  C   UNL     1      33.785 -21.397 -19.667  0.00  0.00    -0.013 C 
ATOM     27  C   UNL     1      32.762 -20.612 -20.201  0.00  0.00    -0.003 C 
ATOM     28  C   UNL     1      35.104 -20.948 -19.714  0.00  0.00    -0.003 C 
BRANCH  23  29
ATOM     29  N   UNL     1      34.683 -17.668 -21.420  0.00  0.00    -0.307 N 
ATOM     30  C   UNL     1      35.433 -15.168 -22.653  0.00  0.00    +0.004 C 
ATOM     31  C   UNL     1      34.864 -15.218 -21.240  0.00  0.00    +0.021 C 
ATOM     32  C   UNL     1      34.892 -16.330 -23.478  0.00  0.00    +0.021 C 
ATOM     33  C   UNL     1      35.140 -16.563 -20.568  0.00  0.00    +0.091 C 
ATOM     34  C   UNL     1      35.175 -17.671 -22.805  0.00  0.00    +0.091 C 
ENDBRANCH  23  29
ENDBRANCH  22  26
ENDBRANCH  12  22
TORSDOF 4
ENDMDL
