MODEL 1
REMARK VINA RESULT:     -12.2      0.000      0.000
REMARK  Name = 93184
REMARK  8 active torsions:
REMARK  status: ('A' for Active; 'I' for Inactive)
REMARK    1  A    between atoms: C_1  and  C_2
REMARK    2  A    between atoms: C_1  and  C_10
REMARK    3  A    between atoms: C_1  and  C_27
REMARK    4  A    between atoms: N_9  and  CA_18
REMARK    5  A    between atoms: CA_17  and  C_23
REMARK    6  A    between atoms: C_23  and  O_24
REMARK    7  A    between atoms: C_27  and  O_28
REMARK    8  A    between atoms: O_28  and  C_35
REMARK                            x       y       z     vdW  Elec       q    Type
REMARK                         _______ _______ _______ _____ _____    ______ ____
ROOT
ATOM      1  C   UNL     1      32.447 -23.426 -16.300  0.00  0.00    +0.198 C 
ENDROOT
BRANCH   1   2
ATOM      2  C   UNL     1      31.022 -23.524 -15.782  0.00  0.00    -0.003 C 
ATOM      3  C   UNL     1      30.134 -22.505 -16.069  0.00  0.00    -0.003 C 
ATOM      4  C   UNL     1      30.654 -24.629 -15.039  0.00  0.00    -0.003 C 
ATOM      5  C   UNL     1      28.826 -22.595 -15.593  0.00  0.00    -0.000 C 
ATOM      6  C   UNL     1      29.346 -24.718 -14.564  0.00  0.00    -0.000 C 
ATOM      7  C   UNL     1      28.431 -23.701 -14.840  0.00  0.00    -0.000 C 
ENDBRANCH   1   2
BRANCH   1  10
ATOM      8  O   UNL     1      32.958 -22.715 -14.039  0.00  0.00    -0.274 OA
ATOM      9  N   UNL     1      34.726 -23.010 -15.511  0.00  0.00    -0.296 N 
ATOM     10  C   UNL     1      33.375 -23.007 -15.159  0.00  0.00    +0.237 C 
ATOM     11  H   UNL     1      34.972 -23.257 -16.431  0.00  0.00    +0.150 HD
BRANCH   9  18
ATOM     12  S   UNL     1      35.463 -25.372 -13.693  0.00  0.00    -0.118 S 
ATOM     13  O   UNL     1      37.837 -22.548 -16.103  0.00  0.00    -0.273 OA
ATOM     14  N   UNL     1      37.479 -23.801 -14.135  0.00  0.00    -0.260 N 
ATOM     15  C   UNL     1      36.165 -23.693 -13.495  0.00  0.00    +0.151 C 
ATOM     16  C   UNL     1      37.160 -26.134 -13.604  0.00  0.00    +0.068 C 
ATOM     17  CA  UNL     1      38.057 -25.114 -14.339  0.00  0.00    +0.184 C 
ATOM     18  CA  UNL     1      35.798 -22.660 -14.569  0.00  0.00    +0.178 C 
ATOM     19  C   UNL     1      37.219 -22.894 -15.122  0.00  0.00    +0.247 C 
ATOM     20  C   UNL     1      37.509 -26.338 -12.123  0.00  0.00    +0.013 C 
ATOM     21  C   UNL     1      37.139 -27.481 -14.328  0.00  0.00    +0.013 C 
BRANCH  17  23
ATOM     22  OXT UNL     1      39.853 -24.468 -12.860  0.00  0.00    -0.248 OA
ATOM     23  C   UNL     1      39.474 -25.051 -13.865  0.00  0.00    +0.333 C 
BRANCH  23  24
ATOM     24  O   UNL     1      40.291 -25.731 -14.707  0.00  0.00    -0.479 OA
ATOM     25  H   UNL     1      40.715 -25.282 -15.412  0.00  0.00    +0.295 HD
ENDBRANCH  23  24
ENDBRANCH  17  23
ENDBRANCH   9  18
ENDBRANCH   1  10
BRANCH   1  27
ATOM     26  O   UNL     1      31.893 -21.517 -17.714  0.00  0.00    -0.249 OA
ATOM     27  C   UNL     1      32.556 -22.529 -17.526  0.00  0.00    +0.334 C 
BRANCH  27  28
ATOM     28  O   UNL     1      33.558 -23.021 -18.363  0.00  0.00    -0.424 OA
BRANCH  28  35
ATOM     29  C   UNL     1      35.617 -18.656 -21.855  0.00  0.00    +0.009 C 
ATOM     30  C   UNL     1      34.230 -19.119 -21.386  0.00  0.00    +0.026 C 
ATOM     31  C   UNL     1      36.581 -18.884 -20.680  0.00  0.00    +0.026 C 
ATOM     32  C   UNL     1      34.597 -20.180 -20.396  0.00  0.00    -0.023 C 
ATOM     33  C   UNL     1      35.932 -20.046 -19.996  0.00  0.00    -0.026 C 
ATOM     34  C   UNL     1      33.785 -21.164 -19.859  0.00  0.00    +0.033 C 
ATOM     35  C   UNL     1      34.336 -22.032 -18.913  0.00  0.00    +0.148 C 
ATOM     36  C   UNL     1      36.482 -20.894 -19.049  0.00  0.00    -0.001 C 
ATOM     37  C   UNL     1      35.674 -21.897 -18.511  0.00  0.00    +0.037 C 
ENDBRANCH  28  35
ENDBRANCH  27  28
ENDBRANCH   1  27
TORSDOF 8
ENDMDL
MODEL 2
REMARK VINA RESULT:     -10.6      1.816      2.445
REMARK  Name = 93184
REMARK  8 active torsions:
REMARK  status: ('A' for Active; 'I' for Inactive)
REMARK    1  A    between atoms: C_1  and  C_2
REMARK    2  A    between atoms: C_1  and  C_10
REMARK    3  A    between atoms: C_1  and  C_27
REMARK    4  A    between atoms: N_9  and  CA_18
REMARK    5  A    between atoms: CA_17  and  C_23
REMARK    6  A    between atoms: C_23  and  O_24
REMARK    7  A    between atoms: C_27  and  O_28
REMARK    8  A    between atoms: O_28  and  C_35
REMARK                            x       y       z     vdW  Elec       q    Type
REMARK                         _______ _______ _______ _____ _____    ______ ____
ROOT
ATOM      1  C   UNL     1      31.765 -24.127 -15.557  0.00  0.00    +0.198 C 
ENDROOT
BRANCH   1   2
ATOM      2  C   UNL     1      30.330 -23.645 -15.438  0.00  0.00    -0.003 C 
ATOM      3  C   UNL     1      29.333 -24.344 -16.091  0.00  0.00    -0.003 C 
ATOM      4  C   UNL     1      30.060 -22.522 -14.680  0.00  0.00    -0.003 C 
ATOM      5  C   UNL     1      28.014 -23.901 -15.982  0.00  0.00    -0.000 C 
ATOM      6  C   UNL     1      28.742 -22.080 -14.571  0.00  0.00    -0.000 C 
ATOM      7  C   UNL     1      27.719 -22.769 -15.222  0.00  0.00    -0.000 C 
ENDBRANCH   1   2
BRANCH   1  10
ATOM      8  O   UNL     1      31.465 -25.019 -13.323  0.00  0.00    -0.274 OA
ATOM      9  N   UNL     1      33.632 -24.668 -14.070  0.00  0.00    -0.296 N 
ATOM     10  C   UNL     1      32.243 -24.646 -14.200  0.00  0.00    +0.237 C 
ATOM     11  H   UNL     1      34.180 -24.350 -14.823  0.00  0.00    +0.150 HD
BRANCH   9  18
ATOM     12  S   UNL     1      36.579 -25.341 -14.612  0.00  0.00    -0.118 S 
ATOM     13  O   UNL     1      34.529 -23.000 -11.490  0.00  0.00    -0.273 OA
ATOM     14  N   UNL     1      36.181 -24.541 -12.176  0.00  0.00    -0.260 N 
ATOM     15  C   UNL     1      35.750 -25.666 -13.012  0.00  0.00    +0.151 C 
ATOM     16  C   UNL     1      38.014 -24.527 -13.747  0.00  0.00    +0.068 C 
ATOM     17  CA  UNL     1      37.354 -23.784 -12.565  0.00  0.00    +0.184 C 
ATOM     18  CA  UNL     1      34.314 -25.145 -12.860  0.00  0.00    +0.178 C 
ATOM     19  C   UNL     1      34.931 -24.021 -12.003  0.00  0.00    +0.247 C 
ATOM     20  C   UNL     1      39.003 -25.627 -13.336  0.00  0.00    +0.013 C 
ATOM     21  C   UNL     1      38.687 -23.550 -14.713  0.00  0.00    +0.013 C 
BRANCH  17  23
ATOM     22  OXT UNL     1      39.105 -22.817 -11.213  0.00  0.00    -0.248 OA
ATOM     23  C   UNL     1      38.208 -23.636 -11.346  0.00  0.00    +0.333 C 
BRANCH  23  24
ATOM     24  O   UNL     1      37.855 -24.542 -10.402  0.00  0.00    -0.479 OA
ATOM     25  H   UNL     1      37.016 -24.485  -9.988  0.00  0.00    +0.295 HD
ENDBRANCH  23  24
ENDBRANCH  17  23
ENDBRANCH   9  18
ENDBRANCH   1  10
BRANCH   1  27
ATOM     26  O   UNL     1      33.510 -22.422 -15.524  0.00  0.00    -0.249 OA
ATOM     27  C   UNL     1      32.683 -23.068 -16.155  0.00  0.00    +0.334 C 
BRANCH  27  28
ATOM     28  O   UNL     1      32.458 -22.993 -17.530  0.00  0.00    -0.424 OA
BRANCH  28  35
ATOM     29  C   UNL     1      35.240 -19.401 -21.383  0.00  0.00    +0.009 C 
ATOM     30  C   UNL     1      33.837 -19.463 -20.762  0.00  0.00    +0.026 C 
ATOM     31  C   UNL     1      36.224 -19.867 -20.298  0.00  0.00    +0.026 C 
ATOM     32  C   UNL     1      34.006 -20.570 -19.770  0.00  0.00    -0.023 C 
ATOM     33  C   UNL     1      35.362 -20.799 -19.507  0.00  0.00    -0.026 C 
ATOM     34  C   UNL     1      33.020 -21.288 -19.116  0.00  0.00    +0.033 C 
ATOM     35  C   UNL     1      33.412 -22.260 -18.193  0.00  0.00    +0.148 C 
ATOM     36  C   UNL     1      35.759 -21.752 -18.584  0.00  0.00    -0.001 C 
ATOM     37  C   UNL     1      34.772 -22.490 -17.928  0.00  0.00    +0.037 C 
ENDBRANCH  28  35
ENDBRANCH  27  28
ENDBRANCH   1  27
TORSDOF 8
ENDMDL
MODEL 3
REMARK VINA RESULT:     -10.6      2.080      6.477
REMARK  Name = 93184
REMARK  8 active torsions:
REMARK  status: ('A' for Active; 'I' for Inactive)
REMARK    1  A    between atoms: C_1  and  C_2
REMARK    2  A    between atoms: C_1  and  C_10
REMARK    3  A    between atoms: C_1  and  C_27
REMARK    4  A    between atoms: N_9  and  CA_18
REMARK    5  A    between atoms: CA_17  and  C_23
REMARK    6  A    between atoms: C_23  and  O_24
REMARK    7  A    between atoms: C_27  and  O_28
REMARK    8  A    between atoms: O_28  and  C_35
REMARK                            x       y       z     vdW  Elec       q    Type
REMARK                         _______ _______ _______ _____ _____    ______ ____
ROOT
ATOM      1  C   UNL     1      36.269 -22.627 -15.102  0.00  0.00    +0.198 C 
ENDROOT
BRANCH   1   2
ATOM      2  C   UNL     1      37.294 -23.381 -14.273  0.00  0.00    -0.003 C 
ATOM      3  C   UNL     1      38.304 -24.067 -14.920  0.00  0.00    -0.003 C 
ATOM      4  C   UNL     1      37.188 -23.362 -12.895  0.00  0.00    -0.003 C 
ATOM      5  C   UNL     1      39.245 -24.761 -14.158  0.00  0.00    -0.000 C 
ATOM      6  C   UNL     1      38.129 -24.055 -12.135  0.00  0.00    -0.000 C 
ATOM      7  C   UNL     1      39.158 -24.755 -12.766  0.00  0.00    -0.000 C 
ENDBRANCH   1   2
BRANCH   1  10
ATOM      8  O   UNL     1      35.282 -24.811 -15.466  0.00  0.00    -0.274 OA
ATOM      9  N   UNL     1      34.030 -22.945 -16.037  0.00  0.00    -0.296 N 
ATOM     10  C   UNL     1      35.167 -23.590 -15.549  0.00  0.00    +0.237 C 
ATOM     11  H   UNL     1      34.023 -21.961 -16.068  0.00  0.00    +0.150 HD
BRANCH   9  18
ATOM     12  S   UNL     1      32.385 -24.070 -13.700  0.00  0.00    -0.118 S 
ATOM     13  O   UNL     1      31.340 -21.764 -17.307  0.00  0.00    -0.273 OA
ATOM     14  N   UNL     1      30.911 -23.489 -15.754  0.00  0.00    -0.260 N 
ATOM     15  C   UNL     1      32.006 -24.418 -15.457  0.00  0.00    +0.151 C 
ATOM     16  C   UNL     1      30.607 -23.628 -13.363  0.00  0.00    +0.068 C 
ATOM     17  CA  UNL     1      30.157 -22.916 -14.658  0.00  0.00    +0.184 C 
ATOM     18  CA  UNL     1      32.840 -23.669 -16.505  0.00  0.00    +0.178 C 
ATOM     19  C   UNL     1      31.597 -22.776 -16.695  0.00  0.00    +0.247 C 
ATOM     20  C   UNL     1      29.849 -24.927 -13.054  0.00  0.00    +0.013 C 
ATOM     21  C   UNL     1      30.549 -22.687 -12.160  0.00  0.00    +0.013 C 
BRANCH  17  23
ATOM     22  OXT UNL     1      28.202 -24.048 -15.509  0.00  0.00    -0.248 OA
ATOM     23  C   UNL     1      28.707 -23.061 -14.995  0.00  0.00    +0.333 C 
BRANCH  23  24
ATOM     24  O   UNL     1      28.023 -21.941 -14.657  0.00  0.00    -0.479 OA
ATOM     25  H   UNL     1      27.106 -21.879 -14.840  0.00  0.00    +0.295 HD
ENDBRANCH  23  24
ENDBRANCH  17  23
ENDBRANCH   9  18
ENDBRANCH   1  10
BRANCH   1  27
ATOM     26  O   UNL     1      37.622 -20.876 -16.129  0.00  0.00    -0.249 OA
ATOM     27  C   UNL     1      36.906 -21.862 -16.254  0.00  0.00    +0.334 C 
BRANCH  27  28
ATOM     28  O   UNL     1      36.583 -22.493 -17.455  0.00  0.00    -0.424 OA
BRANCH  28  35
ATOM     29  C   UNL     1      35.994 -18.003 -21.324  0.00  0.00    +0.009 C 
ATOM     30  C   UNL     1      37.160 -18.867 -20.821  0.00  0.00    +0.026 C 
ATOM     31  C   UNL     1      34.762 -18.917 -21.394  0.00  0.00    +0.026 C 
ATOM     32  C   UNL     1      36.434 -19.876 -19.987  0.00  0.00    -0.023 C 
ATOM     33  C   UNL     1      35.072 -19.903 -20.313  0.00  0.00    -0.026 C 
ATOM     34  C   UNL     1      36.960 -20.737 -19.039  0.00  0.00    +0.033 C 
ATOM     35  C   UNL     1      36.093 -21.629 -18.403  0.00  0.00    +0.148 C 
ATOM     36  C   UNL     1      34.210 -20.793 -19.697  0.00  0.00    -0.001 C 
ATOM     37  C   UNL     1      34.728 -21.657 -18.730  0.00  0.00    +0.037 C 
ENDBRANCH  28  35
ENDBRANCH  27  28
ENDBRANCH   1  27
TORSDOF 8
ENDMDL
MODEL 4
REMARK VINA RESULT:     -10.3      1.307      5.190
REMARK  Name = 93184
REMARK  8 active torsions:
REMARK  status: ('A' for Active; 'I' for Inactive)
REMARK    1  A    between atoms: C_1  and  C_2
REMARK    2  A    between atoms: C_1  and  C_10
REMARK    3  A    between atoms: C_1  and  C_27
REMARK    4  A    between atoms: N_9  and  CA_18
REMARK    5  A    between atoms: CA_17  and  C_23
REMARK    6  A    between atoms: C_23  and  O_24
REMARK    7  A    between atoms: C_27  and  O_28
REMARK    8  A    between atoms: O_28  and  C_35
REMARK                            x       y       z     vdW  Elec       q    Type
REMARK                         _______ _______ _______ _____ _____    ______ ____
ROOT
ATOM      1  C   UNL     1      34.243 -22.023 -17.462  0.00  0.00    +0.198 C 
ENDROOT
BRANCH   1   2
ATOM      2  C   UNL     1      34.217 -21.238 -18.762  0.00  0.00    -0.003 C 
ATOM      3  C   UNL     1      35.410 -20.974 -19.408  0.00  0.00    -0.003 C 
ATOM      4  C   UNL     1      33.003 -20.811 -19.264  0.00  0.00    -0.003 C 
ATOM      5  C   UNL     1      35.387 -20.253 -20.602  0.00  0.00    -0.000 C 
ATOM      6  C   UNL     1      32.980 -20.090 -20.457  0.00  0.00    -0.000 C 
ATOM      7  C   UNL     1      34.172 -19.811 -21.127  0.00  0.00    -0.000 C 
ENDBRANCH   1   2
BRANCH   1  10
ATOM      8  O   UNL     1      36.531 -21.237 -17.313  0.00  0.00    -0.274 OA
ATOM      9  N   UNL     1      35.646 -22.355 -15.484  0.00  0.00    -0.296 N 
ATOM     10  C   UNL     1      35.594 -21.824 -16.774  0.00  0.00    +0.237 C 
ATOM     11  H   UNL     1      34.848 -22.810 -15.131  0.00  0.00    +0.150 HD
BRANCH   9  18
ATOM     12  S   UNL     1      35.814 -24.702 -13.512  0.00  0.00    -0.118 S 
ATOM     13  O   UNL     1      38.710 -22.845 -16.266  0.00  0.00    -0.273 OA
ATOM     14  N   UNL     1      38.155 -23.808 -14.184  0.00  0.00    -0.260 N 
ATOM     15  C   UNL     1      36.973 -23.285 -13.491  0.00  0.00    +0.151 C 
ATOM     16  C   UNL     1      37.230 -25.911 -13.443  0.00  0.00    +0.068 C 
ATOM     17  CA  UNL     1      38.323 -25.242 -14.304  0.00  0.00    +0.184 C 
ATOM     18  CA  UNL     1      36.837 -22.265 -14.630  0.00  0.00    +0.178 C 
ATOM     19  C   UNL     1      38.091 -22.933 -15.229  0.00  0.00    +0.247 C 
ATOM     20  C   UNL     1      37.612 -26.107 -11.969  0.00  0.00    +0.013 C 
ATOM     21  C   UNL     1      36.778 -27.241 -14.049  0.00  0.00    +0.013 C 
BRANCH  17  23
ATOM     22  OXT UNL     1      40.507 -24.768 -13.391  0.00  0.00    -0.248 OA
ATOM     23  C   UNL     1      39.730 -25.557 -13.908  0.00  0.00    +0.333 C 
BRANCH  23  24
ATOM     24  O   UNL     1      40.034 -26.844 -14.203  0.00  0.00    -0.479 OA
ATOM     25  H   UNL     1      39.933 -27.511 -13.552  0.00  0.00    +0.295 HD
ENDBRANCH  23  24
ENDBRANCH  17  23
ENDBRANCH   9  18
ENDBRANCH   1  10
BRANCH   1  27
ATOM     26  O   UNL     1      33.841 -24.058 -18.746  0.00  0.00    -0.249 OA
ATOM     27  C   UNL     1      33.877 -23.488 -17.663  0.00  0.00    +0.334 C 
BRANCH  27  28
ATOM     28  O   UNL     1      33.642 -24.074 -16.419  0.00  0.00    -0.424 OA
BRANCH  28  35
ATOM     29  C   UNL     1      28.052 -22.241 -15.480  0.00  0.00    +0.009 C 
ATOM     30  C   UNL     1      28.736 -23.211 -16.455  0.00  0.00    +0.026 C 
ATOM     31  C   UNL     1      28.794 -22.364 -14.140  0.00  0.00    +0.026 C 
ATOM     32  C   UNL     1      30.132 -23.227 -15.916  0.00  0.00    -0.023 C 
ATOM     33  C   UNL     1      30.164 -22.746 -14.602  0.00  0.00    -0.026 C 
ATOM     34  C   UNL     1      31.282 -23.680 -16.540  0.00  0.00    +0.033 C 
ATOM     35  C   UNL     1      32.483 -23.635 -15.827  0.00  0.00    +0.148 C 
ATOM     36  C   UNL     1      31.348 -22.710 -13.885  0.00  0.00    -0.001 C 
ATOM     37  C   UNL     1      32.515 -23.154 -14.509  0.00  0.00    +0.037 C 
ENDBRANCH  28  35
ENDBRANCH  27  28
ENDBRANCH   1  27
TORSDOF 8
ENDMDL
MODEL 5
REMARK VINA RESULT:     -10.0      9.533     13.958
REMARK  Name = 93184
REMARK  8 active torsions:
REMARK  status: ('A' for Active; 'I' for Inactive)
REMARK    1  A    between atoms: C_1  and  C_2
REMARK    2  A    between atoms: C_1  and  C_10
REMARK    3  A    between atoms: C_1  and  C_27
REMARK    4  A    between atoms: N_9  and  CA_18
REMARK    5  A    between atoms: CA_17  and  C_23
REMARK    6  A    between atoms: C_23  and  O_24
REMARK    7  A    between atoms: C_27  and  O_28
REMARK    8  A    between atoms: O_28  and  C_35
REMARK                            x       y       z     vdW  Elec       q    Type
REMARK                         _______ _______ _______ _____ _____    ______ ____
ROOT
ATOM      1  C   UNL     1      34.157 -13.377 -23.972  0.00  0.00    +0.198 C 
ENDROOT
BRANCH   1   2
ATOM      2  C   UNL     1      33.799 -13.622 -22.516  0.00  0.00    -0.003 C 
ATOM      3  C   UNL     1      34.796 -13.994 -21.635  0.00  0.00    -0.003 C 
ATOM      4  C   UNL     1      32.487 -13.466 -22.112  0.00  0.00    -0.003 C 
ATOM      5  C   UNL     1      34.468 -14.219 -20.298  0.00  0.00    -0.000 C 
ATOM      6  C   UNL     1      32.159 -13.691 -20.776  0.00  0.00    -0.000 C 
ATOM      7  C   UNL     1      33.149 -14.068 -19.868  0.00  0.00    -0.000 C 
ENDBRANCH   1   2
BRANCH   1  10
ATOM      8  O   UNL     1      33.849 -11.531 -25.513  0.00  0.00    -0.274 OA
ATOM      9  N   UNL     1      33.282 -11.196 -23.289  0.00  0.00    -0.296 N 
ATOM     10  C   UNL     1      33.761 -11.951 -24.360  0.00  0.00    +0.237 C 
ATOM     11  H   UNL     1      33.246 -11.612 -22.398  0.00  0.00    +0.150 HD
BRANCH   9  18
ATOM     12  S   UNL     1      31.653 -10.273 -20.855  0.00  0.00    -0.118 S 
ATOM     13  O   UNL     1      34.999  -8.501 -23.110  0.00  0.00    -0.273 OA
ATOM     14  N   UNL     1      32.932  -8.319 -21.984  0.00  0.00    -0.260 N 
ATOM     15  C   UNL     1      31.872  -9.259 -22.363  0.00  0.00    +0.151 C 
ATOM     16  C   UNL     1      32.118  -8.832 -19.770  0.00  0.00    +0.068 C 
ATOM     17  CA  UNL     1      33.214  -8.105 -20.579  0.00  0.00    +0.184 C 
ATOM     18  CA  UNL     1      32.827  -9.806 -23.432  0.00  0.00    +0.178 C 
ATOM     19  C   UNL     1      33.833  -8.760 -22.909  0.00  0.00    +0.247 C 
ATOM     20  C   UNL     1      30.851  -8.000 -19.523  0.00  0.00    +0.013 C 
ATOM     21  C   UNL     1      32.663  -9.364 -18.444  0.00  0.00    +0.013 C 
BRANCH  17  23
ATOM     22  OXT UNL     1      32.906  -5.782 -21.156  0.00  0.00    -0.248 OA
ATOM     23  C   UNL     1      33.293  -6.628 -20.364  0.00  0.00    +0.333 C 
BRANCH  23  24
ATOM     24  O   UNL     1      33.860  -6.348 -19.165  0.00  0.00    -0.479 OA
ATOM     25  H   UNL     1      33.342  -6.376 -18.384  0.00  0.00    +0.295 HD
ENDBRANCH  23  24
ENDBRANCH  17  23
ENDBRANCH   9  18
ENDBRANCH   1  10
BRANCH   1  27
ATOM     26  O   UNL     1      32.422 -14.450 -25.310  0.00  0.00    -0.249 OA
ATOM     27  C   UNL     1      33.575 -14.438 -24.896  0.00  0.00    +0.334 C 
BRANCH  27  28
ATOM     28  O   UNL     1      34.575 -15.353 -25.227  0.00  0.00    -0.424 OA
BRANCH  28  35
ATOM     29  C   UNL     1      35.916 -19.298 -20.970  0.00  0.00    +0.009 C 
ATOM     30  C   UNL     1      35.959 -17.768 -21.096  0.00  0.00    +0.026 C 
ATOM     31  C   UNL     1      34.682 -19.773 -21.751  0.00  0.00    +0.026 C 
ATOM     32  C   UNL     1      35.298 -17.568 -22.423  0.00  0.00    -0.023 C 
ATOM     33  C   UNL     1      34.574 -18.707 -22.795  0.00  0.00    -0.026 C 
ATOM     34  C   UNL     1      35.307 -16.435 -23.219  0.00  0.00    +0.033 C 
ATOM     35  C   UNL     1      34.583 -16.460 -24.413  0.00  0.00    +0.148 C 
ATOM     36  C   UNL     1      33.842 -18.734 -23.971  0.00  0.00    -0.001 C 
ATOM     37  C   UNL     1      33.855 -17.601 -24.786  0.00  0.00    +0.037 C 
ENDBRANCH  28  35
ENDBRANCH  27  28
ENDBRANCH   1  27
TORSDOF 8
ENDMDL
MODEL 6
REMARK VINA RESULT:      -9.8      1.516      2.455
REMARK  Name = 93184
REMARK  8 active torsions:
REMARK  status: ('A' for Active; 'I' for Inactive)
REMARK    1  A    between atoms: C_1  and  C_2
REMARK    2  A    between atoms: C_1  and  C_10
REMARK    3  A    between atoms: C_1  and  C_27
REMARK    4  A    between atoms: N_9  and  CA_18
REMARK    5  A    between atoms: CA_17  and  C_23
REMARK    6  A    between atoms: C_23  and  O_24
REMARK    7  A    between atoms: C_27  and  O_28
REMARK    8  A    between atoms: O_28  and  C_35
REMARK                            x       y       z     vdW  Elec       q    Type
REMARK                         _______ _______ _______ _____ _____    ______ ____
ROOT
ATOM      1  C   UNL     1      34.497 -22.383 -18.002  0.00  0.00    +0.198 C 
ENDROOT
BRANCH   1   2
ATOM      2  C   UNL     1      33.269 -22.696 -17.166  0.00  0.00    -0.003 C 
ATOM      3  C   UNL     1      32.057 -22.136 -17.520  0.00  0.00    -0.003 C 
ATOM      4  C   UNL     1      33.397 -23.533 -16.073  0.00  0.00    -0.003 C 
ATOM      5  C   UNL     1      30.929 -22.423 -16.751  0.00  0.00    -0.000 C 
ATOM      6  C   UNL     1      32.270 -23.820 -15.305  0.00  0.00    -0.000 C 
ATOM      7  C   UNL     1      31.035 -23.265 -15.644  0.00  0.00    -0.000 C 
ENDBRANCH   1   2
BRANCH   1  10
ATOM      8  O   UNL     1      36.494 -21.155 -17.381  0.00  0.00    -0.274 OA
ATOM      9  N   UNL     1      35.661 -22.709 -15.874  0.00  0.00    -0.296 N 
ATOM     10  C   UNL     1      35.659 -22.007 -17.081  0.00  0.00    +0.237 C 
ATOM     11  H   UNL     1      34.953 -23.375 -15.716  0.00  0.00    +0.150 HD
BRANCH   9  18
ATOM     12  S   UNL     1      35.704 -25.017 -13.849  0.00  0.00    -0.118 S 
ATOM     13  O   UNL     1      38.847 -22.904 -16.103  0.00  0.00    -0.273 OA
ATOM     14  N   UNL     1      38.031 -23.904 -14.127  0.00  0.00    -0.260 N 
ATOM     15  C   UNL     1      36.703 -23.494 -13.661  0.00  0.00    +0.151 C 
ATOM     16  C   UNL     1      37.194 -26.082 -13.509  0.00  0.00    +0.068 C 
ATOM     17  CA  UNL     1      38.353 -25.316 -14.184  0.00  0.00    +0.184 C 
ATOM     18  CA  UNL     1      36.671 -22.499 -14.829  0.00  0.00    +0.178 C 
ATOM     19  C   UNL     1      38.068 -23.046 -15.188  0.00  0.00    +0.247 C 
ATOM     20  C   UNL     1      37.330 -26.231 -11.987  0.00  0.00    +0.013 C 
ATOM     21  C   UNL     1      36.982 -27.453 -14.153  0.00  0.00    +0.013 C 
BRANCH  17  23
ATOM     22  OXT UNL     1      40.428 -26.453 -13.704  0.00  0.00    -0.248 OA
ATOM     23  C   UNL     1      39.693 -25.490 -13.543  0.00  0.00    +0.333 C 
BRANCH  23  24
ATOM     24  O   UNL     1      39.985 -24.430 -12.750  0.00  0.00    -0.479 OA
ATOM     25  H   UNL     1      39.679 -23.575 -12.979  0.00  0.00    +0.295 HD
ENDBRANCH  23  24
ENDBRANCH  17  23
ENDBRANCH   9  18
ENDBRANCH   1  10
BRANCH   1  27
ATOM     26  O   UNL     1      33.177 -20.697 -19.171  0.00  0.00    -0.249 OA
ATOM     27  C   UNL     1      34.216 -21.339 -19.075  0.00  0.00    +0.334 C 
BRANCH  27  28
ATOM     28  O   UNL     1      35.341 -21.204 -19.887  0.00  0.00    -0.424 OA
BRANCH  28  35
ATOM     29  C   UNL     1      34.671 -17.268 -24.308  0.00  0.00    +0.009 C 
ATOM     30  C   UNL     1      33.928 -18.530 -23.845  0.00  0.00    +0.026 C 
ATOM     31  C   UNL     1      35.160 -16.552 -23.040  0.00  0.00    +0.026 C 
ATOM     32  C   UNL     1      34.637 -18.830 -22.562  0.00  0.00    -0.023 C 
ATOM     33  C   UNL     1      35.337 -17.706 -22.106  0.00  0.00    -0.026 C 
ATOM     34  C   UNL     1      34.622 -20.007 -21.833  0.00  0.00    +0.033 C 
ATOM     35  C   UNL     1      35.333 -20.050 -20.632  0.00  0.00    +0.148 C 
ATOM     36  C   UNL     1      36.034 -17.737 -20.910  0.00  0.00    -0.001 C 
ATOM     37  C   UNL     1      36.034 -18.923 -20.174  0.00  0.00    +0.037 C 
ENDBRANCH  28  35
ENDBRANCH  27  28
ENDBRANCH   1  27
TORSDOF 8
ENDMDL
MODEL 7
REMARK VINA RESULT:      -9.7      2.594      4.115
REMARK  Name = 93184
REMARK  8 active torsions:
REMARK  status: ('A' for Active; 'I' for Inactive)
REMARK    1  A    between atoms: C_1  and  C_2
REMARK    2  A    between atoms: C_1  and  C_10
REMARK    3  A    between atoms: C_1  and  C_27
REMARK    4  A    between atoms: N_9  and  CA_18
REMARK    5  A    between atoms: CA_17  and  C_23
REMARK    6  A    between atoms: C_23  and  O_24
REMARK    7  A    between atoms: C_27  and  O_28
REMARK    8  A    between atoms: O_28  and  C_35
REMARK                            x       y       z     vdW  Elec       q    Type
REMARK                         _______ _______ _______ _____ _____    ______ ____
ROOT
ATOM      1  C   UNL     1      36.301 -21.479 -18.653  0.00  0.00    +0.198 C 
ENDROOT
BRANCH   1   2
ATOM      2  C   UNL     1      34.821 -21.721 -18.405  0.00  0.00    -0.003 C 
ATOM      3  C   UNL     1      34.444 -22.702 -17.509  0.00  0.00    -0.003 C 
ATOM      4  C   UNL     1      33.894 -20.954 -19.083  0.00  0.00    -0.003 C 
ATOM      5  C   UNL     1      33.086 -22.925 -17.282  0.00  0.00    -0.000 C 
ATOM      6  C   UNL     1      32.536 -21.177 -18.856  0.00  0.00    -0.000 C 
ATOM      7  C   UNL     1      32.132 -22.162 -17.956  0.00  0.00    -0.000 C 
ENDBRANCH   1   2
BRANCH   1  10
ATOM      8  O   UNL     1      37.361 -20.159 -16.918  0.00  0.00    -0.274 OA
ATOM      9  N   UNL     1      37.206 -22.450 -16.596  0.00  0.00    -0.296 N 
ATOM     10  C   UNL     1      37.013 -21.269 -17.315  0.00  0.00    +0.237 C 
ATOM     11  H   UNL     1      36.895 -23.297 -16.990  0.00  0.00    +0.150 HD
BRANCH   9  18
ATOM     12  S   UNL     1      35.156 -22.747 -14.330  0.00  0.00    -0.118 S 
ATOM     13  O   UNL     1      38.939 -24.797 -15.282  0.00  0.00    -0.273 OA
ATOM     14  N   UNL     1      37.442 -23.821 -13.739  0.00  0.00    -0.260 N 
ATOM     15  C   UNL     1      36.943 -22.476 -14.041  0.00  0.00    +0.151 C 
ATOM     16  C   UNL     1      35.135 -24.161 -13.117  0.00  0.00    +0.068 C 
ATOM     17  CA  UNL     1      36.502 -24.846 -13.331  0.00  0.00    +0.184 C 
ATOM     18  CA  UNL     1      37.852 -22.486 -15.278  0.00  0.00    +0.178 C 
ATOM     19  C   UNL     1      38.269 -23.900 -14.822  0.00  0.00    +0.247 C 
ATOM     20  C   UNL     1      34.928 -23.575 -11.713  0.00  0.00    +0.013 C 
ATOM     21  C   UNL     1      33.980 -25.100 -13.469  0.00  0.00    +0.013 C 
BRANCH  17  23
ATOM     22  OXT UNL     1      37.728 -24.958 -11.254  0.00  0.00    -0.248 OA
ATOM     23  C   UNL     1      37.077 -25.516 -12.124  0.00  0.00    +0.333 C 
BRANCH  23  24
ATOM     24  O   UNL     1      36.780 -26.839 -12.125  0.00  0.00    -0.479 OA
ATOM     25  H   UNL     1      36.887 -27.344 -11.342  0.00  0.00    +0.295 HD
ENDBRANCH  23  24
ENDBRANCH  17  23
ENDBRANCH   9  18
ENDBRANCH   1  10
BRANCH   1  27
ATOM     26  O   UNL     1      37.441 -19.524 -19.563  0.00  0.00    -0.249 OA
ATOM     27  C   UNL     1      36.544 -20.354 -19.649  0.00  0.00    +0.334 C 
BRANCH  27  28
ATOM     28  O   UNL     1      35.617 -20.455 -20.687  0.00  0.00    -0.424 OA
BRANCH  28  35
ATOM     29  C   UNL     1      34.528 -16.329 -24.843  0.00  0.00    +0.009 C 
ATOM     30  C   UNL     1      34.103 -17.787 -24.612  0.00  0.00    +0.026 C 
ATOM     31  C   UNL     1      34.612 -15.667 -23.459  0.00  0.00    +0.026 C 
ATOM     32  C   UNL     1      34.676 -18.043 -23.253  0.00  0.00    -0.023 C 
ATOM     33  C   UNL     1      34.965 -16.839 -22.600  0.00  0.00    -0.026 C 
ATOM     34  C   UNL     1      34.881 -19.262 -22.629  0.00  0.00    +0.033 C 
ATOM     35  C   UNL     1      35.397 -19.262 -21.332  0.00  0.00    +0.148 C 
ATOM     36  C   UNL     1      35.465 -16.830 -21.308  0.00  0.00    -0.001 C 
ATOM     37  C   UNL     1      35.687 -18.055 -20.676  0.00  0.00    +0.037 C 
ENDBRANCH  28  35
ENDBRANCH  27  28
ENDBRANCH   1  27
TORSDOF 8
ENDMDL
