MODEL 1
REMARK VINA RESULT:     -12.7      0.000      0.000
REMARK  Name = 3488
REMARK  8 active torsions:
REMARK  status: ('A' for Active; 'I' for Inactive)
REMARK    1  A    between atoms: C_1  and  S_7
REMARK    2  A    between atoms: C_2  and  C_22
REMARK    3  A    between atoms: S_7  and  N_12
REMARK    4  A    between atoms: N_11  and  C_16
REMARK    5  A    between atoms: C_22  and  C_23
REMARK    6  A    between atoms: C_23  and  N_25
REMARK    7  A    between atoms: C_26  and  C_29
REMARK    8  A    between atoms: C_30  and  O_35
REMARK                            x       y       z     vdW  Elec       q    Type
REMARK                         _______ _______ _______ _____ _____    ______ ____
ROOT
ATOM      1  C   UNL     1      34.307 -21.721 -18.687  0.00  0.00    +0.125 C 
ATOM      2  C   UNL     1      35.527 -19.877 -20.353  0.00  0.00    -0.020 C 
ATOM      3  C   UNL     1      35.686 -21.619 -18.686  0.00  0.00    +0.020 C 
ATOM      4  C   UNL     1      33.521 -20.923 -19.500  0.00  0.00    +0.020 C 
ATOM      5  C   UNL     1      36.302 -20.690 -19.526  0.00  0.00    -0.003 C 
ATOM      6  C   UNL     1      34.136 -19.992 -20.339  0.00  0.00    -0.003 C 
ENDROOT
BRANCH   1   7
ATOM      7  S   UNL     1      33.527 -22.898 -17.623  0.00  0.00    +0.077 S 
ATOM      8  O   UNL     1      33.586 -24.196 -18.267  0.00  0.00    -0.150 OA
ATOM      9  O   UNL     1      32.254 -22.329 -17.229  0.00  0.00    -0.150 OA
BRANCH   7  12
ATOM     10  O   UNL     1      33.458 -24.380 -14.893  0.00  0.00    -0.251 OA
ATOM     11  N   UNL     1      35.434 -23.422 -14.170  0.00  0.00    -0.289 N 
ATOM     12  N   UNL     1      34.591 -22.883 -16.284  0.00  0.00    -0.169 N 
ATOM     13  C   UNL     1      34.415 -23.633 -15.078  0.00  0.00    +0.319 C 
ATOM     14  H   UNL     1      36.159 -22.802 -14.412  0.00  0.00    +0.151 HD
ATOM     15  H   UNL     1      35.390 -22.311 -16.349  0.00  0.00    +0.178 HD
BRANCH  11  16
ATOM     16  C   UNL     1      35.484 -24.072 -12.878  0.00  0.00    +0.073 C 
ATOM     17  C   UNL     1      36.050 -23.130 -11.810  0.00  0.00    +0.020 C 
ATOM     18  C   UNL     1      36.282 -25.377 -12.949  0.00  0.00    +0.020 C 
ATOM     19  C   UNL     1      37.550 -22.893 -11.975  0.00  0.00    +0.002 C 
ATOM     20  C   UNL     1      37.783 -25.136 -13.112  0.00  0.00    +0.002 C 
ATOM     21  C   UNL     1      38.326 -24.207 -12.031  0.00  0.00    +0.000 C 
ENDBRANCH  11  16
ENDBRANCH   7  12
ENDBRANCH   1   7
BRANCH   2  22
ATOM     22  C   UNL     1      36.183 -18.884 -21.251  0.00  0.00    +0.048 C 
BRANCH  22  23
ATOM     23  C   UNL     1      35.403 -18.617 -22.545  0.00  0.00    +0.094 C 
BRANCH  23  25
ATOM     24  O   UNL     1      34.249 -17.380 -24.864  0.00  0.00    -0.270 OA
ATOM     25  N   UNL     1      35.045 -17.232 -22.690  0.00  0.00    -0.300 N 
ATOM     26  C   UNL     1      34.489 -16.720 -23.856  0.00  0.00    +0.249 C 
ATOM     27  H   UNL     1      35.201 -16.621 -21.934  0.00  0.00    +0.150 HD
BRANCH  26  29
ATOM     28 CL   UNL     1      32.726 -12.618 -26.439  0.00  0.00    -0.082 Cl
ATOM     29  C   UNL     1      34.201 -15.262 -23.858  0.00  0.00    +0.088 C 
ATOM     30  C   UNL     1      34.467 -14.509 -22.733  0.00  0.00    +0.143 C 
ATOM     31  C   UNL     1      33.668 -14.707 -25.004  0.00  0.00    +0.019 C 
ATOM     32  C   UNL     1      34.190 -13.143 -22.753  0.00  0.00    +0.038 C 
ATOM     33  C   UNL     1      33.390 -13.340 -25.025  0.00  0.00    +0.058 C 
ATOM     34  C   UNL     1      33.652 -12.558 -23.900  0.00  0.00    +0.015 C 
BRANCH  30  35
ATOM     35  O   UNL     1      34.993 -15.061 -21.602  0.00  0.00    -0.471 OA
ATOM     36  C   UNL     1      34.592 -14.493 -20.358  0.00  0.00    +0.252 C 
ENDBRANCH  30  35
ENDBRANCH  26  29
ENDBRANCH  23  25
ENDBRANCH  22  23
ENDBRANCH   2  22
TORSDOF 8
ENDMDL
MODEL 2
REMARK VINA RESULT:     -12.2      0.826      2.039
REMARK  Name = 3488
REMARK  8 active torsions:
REMARK  status: ('A' for Active; 'I' for Inactive)
REMARK    1  A    between atoms: C_1  and  S_7
REMARK    2  A    between atoms: C_2  and  C_22
REMARK    3  A    between atoms: S_7  and  N_12
REMARK    4  A    between atoms: N_11  and  C_16
REMARK    5  A    between atoms: C_22  and  C_23
REMARK    6  A    between atoms: C_23  and  N_25
REMARK    7  A    between atoms: C_26  and  C_29
REMARK    8  A    between atoms: C_30  and  O_35
REMARK                            x       y       z     vdW  Elec       q    Type
REMARK                         _______ _______ _______ _____ _____    ______ ____
ROOT
ATOM      1  C   UNL     1      34.278 -21.706 -18.686  0.00  0.00    +0.125 C 
ATOM      2  C   UNL     1      35.441 -19.792 -20.314  0.00  0.00    -0.020 C 
ATOM      3  C   UNL     1      33.466 -20.871 -19.433  0.00  0.00    +0.020 C 
ATOM      4  C   UNL     1      35.657 -21.607 -18.733  0.00  0.00    +0.020 C 
ATOM      5  C   UNL     1      34.052 -19.906 -20.254  0.00  0.00    -0.003 C 
ATOM      6  C   UNL     1      36.244 -20.644 -19.554  0.00  0.00    -0.003 C 
ENDROOT
BRANCH   1   7
ATOM      7  S   UNL     1      33.535 -22.928 -17.646  0.00  0.00    +0.077 S 
ATOM      8  O   UNL     1      33.654 -24.214 -18.307  0.00  0.00    -0.150 OA
ATOM      9  O   UNL     1      32.235 -22.416 -17.261  0.00  0.00    -0.150 OA
BRANCH   7  12
ATOM     10  O   UNL     1      33.483 -24.430 -14.928  0.00  0.00    -0.251 OA
ATOM     11  N   UNL     1      35.417 -23.413 -14.175  0.00  0.00    -0.289 N 
ATOM     12  N   UNL     1      34.581 -22.887 -16.295  0.00  0.00    -0.169 N 
ATOM     13  C   UNL     1      34.416 -23.651 -15.097  0.00  0.00    +0.319 C 
ATOM     14  H   UNL     1      36.124 -22.767 -14.404  0.00  0.00    +0.151 HD
ATOM     15  H   UNL     1      35.362 -22.288 -16.346  0.00  0.00    +0.178 HD
BRANCH  11  16
ATOM     16  C   UNL     1      35.473 -24.070 -12.887  0.00  0.00    +0.073 C 
ATOM     17  C   UNL     1      36.046 -23.135 -11.816  0.00  0.00    +0.020 C 
ATOM     18  C   UNL     1      36.270 -25.376 -12.969  0.00  0.00    +0.020 C 
ATOM     19  C   UNL     1      37.546 -22.899 -11.989  0.00  0.00    +0.002 C 
ATOM     20  C   UNL     1      37.770 -25.136 -13.140  0.00  0.00    +0.002 C 
ATOM     21  C   UNL     1      38.320 -24.213 -12.056  0.00  0.00    +0.000 C 
ENDBRANCH  11  16
ENDBRANCH   7  12
ENDBRANCH   1   7
BRANCH   2  22
ATOM     22  C   UNL     1      36.068 -18.761 -21.190  0.00  0.00    +0.048 C 
BRANCH  22  23
ATOM     23  C   UNL     1      35.775 -17.321 -20.749  0.00  0.00    +0.094 C 
BRANCH  23  25
ATOM     24  O   UNL     1      34.660 -14.684 -20.550  0.00  0.00    -0.270 OA
ATOM     25  N   UNL     1      35.313 -16.501 -21.835  0.00  0.00    -0.300 N 
ATOM     26  C   UNL     1      34.786 -15.230 -21.644  0.00  0.00    +0.249 C 
ATOM     27  H   UNL     1      35.372 -16.854 -22.753  0.00  0.00    +0.150 HD
BRANCH  26  29
ATOM     28 CL   UNL     1      33.604 -10.750 -23.911  0.00  0.00    -0.082 Cl
ATOM     29  C   UNL     1      34.327 -14.521 -22.866  0.00  0.00    +0.088 C 
ATOM     30  C   UNL     1      34.043 -15.238 -24.010  0.00  0.00    +0.143 C 
ATOM     31  C   UNL     1      34.201 -13.146 -22.811  0.00  0.00    +0.019 C 
ATOM     32  C   UNL     1      33.614 -14.555 -25.147  0.00  0.00    +0.038 C 
ATOM     33  C   UNL     1      33.772 -12.463 -23.949  0.00  0.00    +0.058 C 
ATOM     34  C   UNL     1      33.478 -13.167 -25.116  0.00  0.00    +0.015 C 
BRANCH  30  35
ATOM     35  O   UNL     1      34.170 -16.595 -24.060  0.00  0.00    -0.471 OA
ATOM     36  C   UNL     1      33.356 -17.285 -25.005  0.00  0.00    +0.252 C 
ENDBRANCH  30  35
ENDBRANCH  26  29
ENDBRANCH  23  25
ENDBRANCH  22  23
ENDBRANCH   2  22
TORSDOF 8
ENDMDL
MODEL 3
REMARK VINA RESULT:     -11.6      3.333      4.624
REMARK  Name = 3488
REMARK  8 active torsions:
REMARK  status: ('A' for Active; 'I' for Inactive)
REMARK    1  A    between atoms: C_1  and  S_7
REMARK    2  A    between atoms: C_2  and  C_22
REMARK    3  A    between atoms: S_7  and  N_12
REMARK    4  A    between atoms: N_11  and  C_16
REMARK    5  A    between atoms: C_22  and  C_23
REMARK    6  A    between atoms: C_23  and  N_25
REMARK    7  A    between atoms: C_26  and  C_29
REMARK    8  A    between atoms: C_30  and  O_35
REMARK                            x       y       z     vdW  Elec       q    Type
REMARK                         _______ _______ _______ _____ _____    ______ ____
ROOT
ATOM      1  C   UNL     1      34.618 -21.330 -19.279  0.00  0.00    +0.125 C 
ATOM      2  C   UNL     1      35.290 -19.133 -20.823  0.00  0.00    -0.020 C 
ATOM      3  C   UNL     1      33.614 -20.607 -19.898  0.00  0.00    +0.020 C 
ATOM      4  C   UNL     1      35.951 -20.982 -19.414  0.00  0.00    +0.020 C 
ATOM      5  C   UNL     1      33.952 -19.499 -20.676  0.00  0.00    -0.003 C 
ATOM      6  C   UNL     1      36.290 -19.876 -20.193  0.00  0.00    -0.003 C 
ENDROOT
BRANCH   1   7
ATOM      7  S   UNL     1      34.189 -22.734 -18.293  0.00  0.00    +0.077 S 
ATOM      8  O   UNL     1      35.045 -22.740 -17.122  0.00  0.00    -0.150 OA
ATOM      9  O   UNL     1      34.151 -23.877 -19.183  0.00  0.00    -0.150 OA
BRANCH   7  12
ATOM     10  O   UNL     1      32.550 -23.357 -15.728  0.00  0.00    -0.251 OA
ATOM     11  N   UNL     1      30.678 -22.232 -16.488  0.00  0.00    -0.289 N 
ATOM     12  N   UNL     1      32.594 -22.329 -17.825  0.00  0.00    -0.169 N 
ATOM     13  C   UNL     1      31.975 -22.699 -16.590  0.00  0.00    +0.319 C 
ATOM     14  H   UNL     1      30.305 -21.712 -17.235  0.00  0.00    +0.151 HD
ATOM     15  H   UNL     1      32.060 -21.797 -18.459  0.00  0.00    +0.178 HD
BRANCH  11  16
ATOM     16  C   UNL     1      29.846 -22.472 -15.329  0.00  0.00    +0.073 C 
ATOM     17  C   UNL     1      30.115 -23.860 -14.736  0.00  0.00    +0.020 C 
ATOM     18  C   UNL     1      28.363 -22.291 -15.669  0.00  0.00    +0.020 C 
ATOM     19  C   UNL     1      29.571 -24.986 -15.615  0.00  0.00    +0.002 C 
ATOM     20  C   UNL     1      27.822 -23.420 -16.546  0.00  0.00    +0.002 C 
ATOM     21  C   UNL     1      28.090 -24.790 -15.930  0.00  0.00    +0.000 C 
ENDBRANCH  11  16
ENDBRANCH   7  12
ENDBRANCH   1   7
BRANCH   2  22
ATOM     22  C   UNL     1      35.653 -17.949 -21.655  0.00  0.00    +0.048 C 
BRANCH  22  23
ATOM     23  C   UNL     1      35.188 -16.615 -21.057  0.00  0.00    +0.094 C 
BRANCH  23  25
ATOM     24  O   UNL     1      33.546 -14.277 -20.783  0.00  0.00    -0.270 OA
ATOM     25  N   UNL     1      34.929 -15.625 -22.067  0.00  0.00    -0.300 N 
ATOM     26  C   UNL     1      34.117 -14.520 -21.843  0.00  0.00    +0.249 C 
ATOM     27  H   UNL     1      35.344 -15.734 -22.954  0.00  0.00    +0.150 HD
BRANCH  26  29
ATOM     28 CL   UNL     1      34.362  -9.710 -23.689  0.00  0.00    -0.082 Cl
ATOM     29  C   UNL     1      33.927 -13.604 -22.997  0.00  0.00    +0.088 C 
ATOM     30  C   UNL     1      33.489 -14.105 -24.206  0.00  0.00    +0.143 C 
ATOM     31  C   UNL     1      34.201 -12.263 -22.814  0.00  0.00    +0.019 C 
ATOM     32  C   UNL     1      33.316 -13.229 -25.277  0.00  0.00    +0.038 C 
ATOM     33  C   UNL     1      34.029 -11.387 -23.886  0.00  0.00    +0.058 C 
ATOM     34  C   UNL     1      33.586 -11.870 -25.117  0.00  0.00    +0.015 C 
BRANCH  30  35
ATOM     35  O   UNL     1      33.219 -15.430 -24.383  0.00  0.00    -0.471 OA
ATOM     36  C   UNL     1      34.153 -16.182 -25.155  0.00  0.00    +0.252 C 
ENDBRANCH  30  35
ENDBRANCH  26  29
ENDBRANCH  23  25
ENDBRANCH  22  23
ENDBRANCH   2  22
TORSDOF 8
ENDMDL
MODEL 4
REMARK VINA RESULT:     -11.4      1.790      2.374
REMARK  Name = 3488
REMARK  8 active torsions:
REMARK  status: ('A' for Active; 'I' for Inactive)
REMARK    1  A    between atoms: C_1  and  S_7
REMARK    2  A    between atoms: C_2  and  C_22
REMARK    3  A    between atoms: S_7  and  N_12
REMARK    4  A    between atoms: N_11  and  C_16
REMARK    5  A    between atoms: C_22  and  C_23
REMARK    6  A    between atoms: C_23  and  N_25
REMARK    7  A    between atoms: C_26  and  C_29
REMARK    8  A    between atoms: C_30  and  O_35
REMARK                            x       y       z     vdW  Elec       q    Type
REMARK                         _______ _______ _______ _____ _____    ______ ____
ROOT
ATOM      1  C   UNL     1      34.532 -21.026 -19.485  0.00  0.00    +0.125 C 
ATOM      2  C   UNL     1      35.654 -18.951 -20.934  0.00  0.00    -0.020 C 
ATOM      3  C   UNL     1      35.897 -20.815 -19.415  0.00  0.00    +0.020 C 
ATOM      4  C   UNL     1      33.713 -20.225 -20.261  0.00  0.00    +0.020 C 
ATOM      5  C   UNL     1      36.463 -19.769 -20.146  0.00  0.00    -0.003 C 
ATOM      6  C   UNL     1      34.278 -19.178 -20.990  0.00  0.00    -0.003 C 
ENDROOT
BRANCH   1   7
ATOM      7  S   UNL     1      33.815 -22.352 -18.560  0.00  0.00    +0.077 S 
ATOM      8  O   UNL     1      33.978 -23.574 -19.324  0.00  0.00    -0.150 OA
ATOM      9  O   UNL     1      32.497 -21.912 -18.148  0.00  0.00    -0.150 OA
BRANCH   7  12
ATOM     10  O   UNL     1      33.498 -23.635 -15.749  0.00  0.00    -0.251 OA
ATOM     11  N   UNL     1      35.573 -22.908 -15.034  0.00  0.00    -0.289 N 
ATOM     12  N   UNL     1      34.847 -22.396 -17.198  0.00  0.00    -0.169 N 
ATOM     13  C   UNL     1      34.550 -23.038 -15.954  0.00  0.00    +0.319 C 
ATOM     14  H   UNL     1      36.380 -22.408 -15.294  0.00  0.00    +0.151 HD
ATOM     15  H   UNL     1      35.718 -21.942 -17.277  0.00  0.00    +0.178 HD
BRANCH  11  16
ATOM     16  C   UNL     1      35.511 -23.477 -13.705  0.00  0.00    +0.073 C 
ATOM     17  C   UNL     1      36.802 -23.197 -12.927  0.00  0.00    +0.020 C 
ATOM     18  C   UNL     1      35.209 -24.977 -13.761  0.00  0.00    +0.020 C 
ATOM     19  C   UNL     1      37.984 -24.017 -13.443  0.00  0.00    +0.002 C 
ATOM     20  C   UNL     1      36.395 -25.794 -14.276  0.00  0.00    +0.002 C 
ATOM     21  C   UNL     1      37.664 -25.508 -13.478  0.00  0.00    +0.000 C 
ENDBRANCH  11  16
ENDBRANCH   7  12
ENDBRANCH   1   7
BRANCH   2  22
ATOM     22  C   UNL     1      36.258 -17.833 -21.714  0.00  0.00    +0.048 C 
BRANCH  22  23
ATOM     23  C   UNL     1      35.358 -17.320 -22.847  0.00  0.00    +0.094 C 
BRANCH  23  25
ATOM     24  O   UNL     1      33.676 -15.761 -24.571  0.00  0.00    -0.270 OA
ATOM     25  N   UNL     1      34.865 -15.994 -22.594  0.00  0.00    -0.300 N 
ATOM     26  C   UNL     1      34.052 -15.312 -23.491  0.00  0.00    +0.249 C 
ATOM     27  H   UNL     1      35.114 -15.549 -21.751  0.00  0.00    +0.150 HD
BRANCH  26  29
ATOM     28 CL   UNL     1      32.223 -12.183 -19.821  0.00  0.00    -0.082 Cl
ATOM     29  C   UNL     1      33.649 -13.938 -23.095  0.00  0.00    +0.088 C 
ATOM     30  C   UNL     1      33.744 -12.906 -24.006  0.00  0.00    +0.143 C 
ATOM     31  C   UNL     1      33.187 -13.743 -21.809  0.00  0.00    +0.019 C 
ATOM     32  C   UNL     1      33.361 -11.623 -23.616  0.00  0.00    +0.038 C 
ATOM     33  C   UNL     1      32.804 -12.459 -21.418  0.00  0.00    +0.058 C 
ATOM     34  C   UNL     1      32.890 -11.400 -22.321  0.00  0.00    +0.015 C 
BRANCH  30  35
ATOM     35  O   UNL     1      34.201 -13.104 -25.275  0.00  0.00    -0.471 OA
ATOM     36  C   UNL     1      33.373 -12.642 -26.340  0.00  0.00    +0.252 C 
ENDBRANCH  30  35
ENDBRANCH  26  29
ENDBRANCH  23  25
ENDBRANCH  22  23
ENDBRANCH   2  22
TORSDOF 8
ENDMDL
MODEL 5
REMARK VINA RESULT:     -11.3      3.967     11.530
REMARK  Name = 3488
REMARK  8 active torsions:
REMARK  status: ('A' for Active; 'I' for Inactive)
REMARK    1  A    between atoms: C_1  and  S_7
REMARK    2  A    between atoms: C_2  and  C_22
REMARK    3  A    between atoms: S_7  and  N_12
REMARK    4  A    between atoms: N_11  and  C_16
REMARK    5  A    between atoms: C_22  and  C_23
REMARK    6  A    between atoms: C_23  and  N_25
REMARK    7  A    between atoms: C_26  and  C_29
REMARK    8  A    between atoms: C_30  and  O_35
REMARK                            x       y       z     vdW  Elec       q    Type
REMARK                         _______ _______ _______ _____ _____    ______ ____
ROOT
ATOM      1  C   UNL     1      35.091 -20.143 -20.268  0.00  0.00    +0.125 C 
ATOM      2  C   UNL     1      34.116 -22.082 -18.549  0.00  0.00    -0.020 C 
ATOM      3  C   UNL     1      35.984 -20.955 -19.590  0.00  0.00    +0.020 C 
ATOM      4  C   UNL     1      33.723 -20.277 -20.108  0.00  0.00    +0.020 C 
ATOM      5  C   UNL     1      35.492 -21.933 -18.723  0.00  0.00    -0.003 C 
ATOM      6  C   UNL     1      33.231 -21.255 -19.242  0.00  0.00    -0.003 C 
ENDROOT
BRANCH   1   7
ATOM      7  S   UNL     1      35.714 -18.905 -21.365  0.00  0.00    +0.077 S 
ATOM      8  O   UNL     1      35.143 -19.138 -22.678  0.00  0.00    -0.150 OA
ATOM      9  O   UNL     1      37.152 -18.868 -21.184  0.00  0.00    -0.150 OA
BRANCH   7  12
ATOM     10  O   UNL     1      35.928 -15.906 -22.146  0.00  0.00    -0.251 OA
ATOM     11  N   UNL     1      34.540 -15.220 -20.429  0.00  0.00    -0.289 N 
ATOM     12  N   UNL     1      35.024 -17.493 -20.691  0.00  0.00    -0.169 N 
ATOM     13  C   UNL     1      35.224 -16.161 -21.174  0.00  0.00    +0.319 C 
ATOM     14  H   UNL     1      34.001 -15.525 -19.664  0.00  0.00    +0.151 HD
ATOM     15  H   UNL     1      34.440 -17.607 -19.906  0.00  0.00    +0.178 HD
BRANCH  11  16
ATOM     16  C   UNL     1      34.580 -13.804 -20.724  0.00  0.00    +0.073 C 
ATOM     17  C   UNL     1      33.468 -13.056 -19.980  0.00  0.00    +0.020 C 
ATOM     18  C   UNL     1      34.506 -13.553 -22.233  0.00  0.00    +0.020 C 
ATOM     19  C   UNL     1      32.083 -13.344 -20.557  0.00  0.00    +0.002 C 
ATOM     20  C   UNL     1      33.118 -13.841 -22.807  0.00  0.00    +0.002 C 
ATOM     21  C   UNL     1      32.031 -13.076 -22.059  0.00  0.00    +0.000 C 
ENDBRANCH  11  16
ENDBRANCH   7  12
ENDBRANCH   1   7
BRANCH   2  22
ATOM     22  C   UNL     1      33.591 -23.126 -17.623  0.00  0.00    +0.048 C 
BRANCH  22  23
ATOM     23  C   UNL     1      33.650 -22.721 -16.144  0.00  0.00    +0.094 C 
BRANCH  23  25
ATOM     24  O   UNL     1      36.277 -21.908 -15.320  0.00  0.00    -0.270 OA
ATOM     25  N   UNL     1      34.598 -23.506 -15.401  0.00  0.00    -0.300 N 
ATOM     26  C   UNL     1      35.853 -23.027 -15.045  0.00  0.00    +0.249 C 
ATOM     27  H   UNL     1      34.348 -24.421 -15.133  0.00  0.00    +0.150 HD
BRANCH  26  29
ATOM     28 CL   UNL     1      40.421 -25.396 -14.687  0.00  0.00    -0.082 Cl
ATOM     29  C   UNL     1      36.726 -23.972 -14.301  0.00  0.00    +0.088 C 
ATOM     30  C   UNL     1      36.255 -24.586 -13.158  0.00  0.00    +0.143 C 
ATOM     31  C   UNL     1      37.996 -24.203 -14.789  0.00  0.00    +0.019 C 
ATOM     32  C   UNL     1      37.089 -25.469 -12.474  0.00  0.00    +0.038 C 
ATOM     33  C   UNL     1      38.831 -25.086 -14.104  0.00  0.00    +0.058 C 
ATOM     34  C   UNL     1      38.378 -25.720 -12.947  0.00  0.00    +0.015 C 
BRANCH  30  35
ATOM     35  O   UNL     1      35.000 -24.355 -12.679  0.00  0.00    -0.471 OA
ATOM     36  C   UNL     1      34.895 -23.899 -11.333  0.00  0.00    +0.252 C 
ENDBRANCH  30  35
ENDBRANCH  26  29
ENDBRANCH  23  25
ENDBRANCH  22  23
ENDBRANCH   2  22
TORSDOF 8
ENDMDL
MODEL 6
REMARK VINA RESULT:     -11.3      2.936      4.706
REMARK  Name = 3488
REMARK  8 active torsions:
REMARK  status: ('A' for Active; 'I' for Inactive)
REMARK    1  A    between atoms: C_1  and  S_7
REMARK    2  A    between atoms: C_2  and  C_22
REMARK    3  A    between atoms: S_7  and  N_12
REMARK    4  A    between atoms: N_11  and  C_16
REMARK    5  A    between atoms: C_22  and  C_23
REMARK    6  A    between atoms: C_23  and  N_25
REMARK    7  A    between atoms: C_26  and  C_29
REMARK    8  A    between atoms: C_30  and  O_35
REMARK                            x       y       z     vdW  Elec       q    Type
REMARK                         _______ _______ _______ _____ _____    ______ ____
ROOT
ATOM      1  C   UNL     1      35.397 -22.402 -16.857  0.00  0.00    +0.125 C 
ATOM      2  C   UNL     1      35.637 -21.090 -19.284  0.00  0.00    -0.020 C 
ATOM      3  C   UNL     1      34.326 -22.400 -17.732  0.00  0.00    +0.020 C 
ATOM      4  C   UNL     1      36.587 -21.765 -17.166  0.00  0.00    +0.020 C 
ATOM      5  C   UNL     1      34.446 -21.738 -18.955  0.00  0.00    -0.003 C 
ATOM      6  C   UNL     1      36.708 -21.105 -18.389  0.00  0.00    -0.003 C 
ENDROOT
BRANCH   1   7
ATOM      7  S   UNL     1      35.244 -23.240 -15.308  0.00  0.00    +0.077 S 
ATOM      8  O   UNL     1      35.314 -22.249 -14.251  0.00  0.00    -0.150 OA
ATOM      9  O   UNL     1      36.176 -24.350 -15.337  0.00  0.00    -0.150 OA
BRANCH   7  12
ATOM     10  O   UNL     1      32.686 -22.663 -13.643  0.00  0.00    -0.251 OA
ATOM     11  N   UNL     1      31.387 -24.117 -14.884  0.00  0.00    -0.289 N 
ATOM     12  N   UNL     1      33.647 -23.840 -15.416  0.00  0.00    -0.169 N 
ATOM     13  C   UNL     1      32.563 -23.470 -14.559  0.00  0.00    +0.319 C 
ATOM     14  H   UNL     1      31.390 -24.749 -15.638  0.00  0.00    +0.151 HD
ATOM     15  H   UNL     1      33.458 -24.493 -16.129  0.00  0.00    +0.178 HD
BRANCH  11  16
ATOM     16  C   UNL     1      30.149 -23.906 -14.165  0.00  0.00    +0.073 C 
ATOM     17  C   UNL     1      29.146 -25.028 -14.455  0.00  0.00    +0.020 C 
ATOM     18  C   UNL     1      29.553 -22.532 -14.486  0.00  0.00    +0.020 C 
ATOM     19  C   UNL     1      28.575 -24.950 -15.870  0.00  0.00    +0.002 C 
ATOM     20  C   UNL     1      28.981 -22.458 -15.901  0.00  0.00    +0.002 C 
ATOM     21  C   UNL     1      27.977 -23.576 -16.162  0.00  0.00    +0.000 C 
ENDBRANCH  11  16
ENDBRANCH   7  12
ENDBRANCH   1   7
BRANCH   2  22
ATOM     22  C   UNL     1      35.767 -20.383 -20.590  0.00  0.00    +0.048 C 
BRANCH  22  23
ATOM     23  C   UNL     1      36.418 -18.999 -20.476  0.00  0.00    +0.094 C 
BRANCH  23  25
ATOM     24  O   UNL     1      35.145 -16.465 -20.032  0.00  0.00    -0.270 OA
ATOM     25  N   UNL     1      35.945 -18.088 -21.483  0.00  0.00    -0.300 N 
ATOM     26  C   UNL     1      35.338 -16.878 -21.173  0.00  0.00    +0.249 C 
ATOM     27  H   UNL     1      36.054 -18.332 -22.431  0.00  0.00    +0.150 HD
BRANCH  26  29
ATOM     28 CL   UNL     1      34.081 -12.224 -23.009  0.00  0.00    -0.082 Cl
ATOM     29  C   UNL     1      34.879 -16.062 -22.327  0.00  0.00    +0.088 C 
ATOM     30  C   UNL     1      34.627 -16.670 -23.540  0.00  0.00    +0.143 C 
ATOM     31  C   UNL     1      34.719 -14.703 -22.139  0.00  0.00    +0.019 C 
ATOM     32  C   UNL     1      34.197 -15.888 -24.611  0.00  0.00    +0.038 C 
ATOM     33  C   UNL     1      34.290 -13.921 -23.212  0.00  0.00    +0.058 C 
ATOM     34  C   UNL     1      34.028 -14.512 -24.447  0.00  0.00    +0.015 C 
BRANCH  30  35
ATOM     35  O   UNL     1      34.786 -18.012 -23.721  0.00  0.00    -0.471 OA
ATOM     36  C   UNL     1      33.720 -18.708 -24.363  0.00  0.00    +0.252 C 
ENDBRANCH  30  35
ENDBRANCH  26  29
ENDBRANCH  23  25
ENDBRANCH  22  23
ENDBRANCH   2  22
TORSDOF 8
ENDMDL
MODEL 7
REMARK VINA RESULT:     -11.2      3.904     11.956
REMARK  Name = 3488
REMARK  8 active torsions:
REMARK  status: ('A' for Active; 'I' for Inactive)
REMARK    1  A    between atoms: C_1  and  S_7
REMARK    2  A    between atoms: C_2  and  C_22
REMARK    3  A    between atoms: S_7  and  N_12
REMARK    4  A    between atoms: N_11  and  C_16
REMARK    5  A    between atoms: C_22  and  C_23
REMARK    6  A    between atoms: C_23  and  N_25
REMARK    7  A    between atoms: C_26  and  C_29
REMARK    8  A    between atoms: C_30  and  O_35
REMARK                            x       y       z     vdW  Elec       q    Type
REMARK                         _______ _______ _______ _____ _____    ______ ____
ROOT
ATOM      1  C   UNL     1      34.694 -17.649 -23.138  0.00  0.00    +0.125 C 
ATOM      2  C   UNL     1      35.611 -19.111 -20.973  0.00  0.00    -0.020 C 
ATOM      3  C   UNL     1      34.515 -19.021 -23.125  0.00  0.00    +0.020 C 
ATOM      4  C   UNL     1      35.320 -16.990 -22.095  0.00  0.00    +0.020 C 
ATOM      5  C   UNL     1      34.977 -19.759 -22.034  0.00  0.00    -0.003 C 
ATOM      6  C   UNL     1      35.781 -17.726 -21.003  0.00  0.00    -0.003 C 
ENDROOT
BRANCH   1   7
ATOM      7  S   UNL     1      34.110 -16.716 -24.521  0.00  0.00    +0.077 S 
ATOM      8  O   UNL     1      32.774 -17.179 -24.846  0.00  0.00    -0.150 OA
ATOM      9  O   UNL     1      35.160 -16.742 -25.519  0.00  0.00    -0.150 OA
BRANCH   7  12
ATOM     10  O   UNL     1      32.957 -14.043 -25.606  0.00  0.00    -0.251 OA
ATOM     11  N   UNL     1      33.509 -12.871 -23.691  0.00  0.00    -0.289 N 
ATOM     12  N   UNL     1      34.015 -15.150 -23.842  0.00  0.00    -0.169 N 
ATOM     13  C   UNL     1      33.446 -14.003 -24.481  0.00  0.00    +0.319 C 
ATOM     14  H   UNL     1      33.922 -12.941 -22.801  0.00  0.00    +0.151 HD
ATOM     15  H   UNL     1      34.382 -15.028 -22.936  0.00  0.00    +0.178 HD
BRANCH  11  16
ATOM     16  C   UNL     1      32.995 -11.587 -24.115  0.00  0.00    +0.073 C 
ATOM     17  C   UNL     1      33.382 -11.292 -25.568  0.00  0.00    +0.020 C 
ATOM     18  C   UNL     1      33.461 -10.470 -23.177  0.00  0.00    +0.020 C 
ATOM     19  C   UNL     1      34.869 -10.976 -25.724  0.00  0.00    +0.002 C 
ATOM     20  C   UNL     1      34.949 -10.155 -23.337  0.00  0.00    +0.002 C 
ATOM     21  C   UNL     1      35.308  -9.852 -24.789  0.00  0.00    +0.000 C 
ENDBRANCH  11  16
ENDBRANCH   7  12
ENDBRANCH   1   7
BRANCH   2  22
ATOM     22  C   UNL     1      36.105 -19.898 -19.806  0.00  0.00    +0.048 C 
BRANCH  22  23
ATOM     23  C   UNL     1      35.545 -21.326 -19.749  0.00  0.00    +0.094 C 
BRANCH  23  25
ATOM     24  O   UNL     1      33.899 -23.584 -19.094  0.00  0.00    -0.270 OA
ATOM     25  N   UNL     1      35.006 -21.649 -18.456  0.00  0.00    -0.300 N 
ATOM     26  C   UNL     1      34.215 -22.769 -18.232  0.00  0.00    +0.249 C 
ATOM     27  H   UNL     1      35.203 -21.051 -17.698  0.00  0.00    +0.150 HD
BRANCH  26  29
ATOM     28 CL   UNL     1      30.155 -23.160 -15.073  0.00  0.00    -0.082 Cl
ATOM     29  C   UNL     1      33.712 -22.947 -16.845  0.00  0.00    +0.088 C 
ATOM     30  C   UNL     1      34.606 -23.088 -15.804  0.00  0.00    +0.143 C 
ATOM     31  C   UNL     1      32.345 -22.966 -16.648  0.00  0.00    +0.019 C 
ATOM     32  C   UNL     1      34.115 -23.255 -14.509  0.00  0.00    +0.038 C 
ATOM     33  C   UNL     1      31.854 -23.133 -15.353  0.00  0.00    +0.058 C 
ATOM     34  C   UNL     1      32.738 -23.277 -14.284  0.00  0.00    +0.015 C 
BRANCH  30  35
ATOM     35  O   UNL     1      35.955 -23.070 -16.003  0.00  0.00    -0.471 OA
ATOM     36  C   UNL     1      36.770 -22.738 -14.881  0.00  0.00    +0.252 C 
ENDBRANCH  30  35
ENDBRANCH  26  29
ENDBRANCH  23  25
ENDBRANCH  22  23
ENDBRANCH   2  22
TORSDOF 8
ENDMDL
MODEL 8
REMARK VINA RESULT:     -11.2      3.736     11.034
REMARK  Name = 3488
REMARK  8 active torsions:
REMARK  status: ('A' for Active; 'I' for Inactive)
REMARK    1  A    between atoms: C_1  and  S_7
REMARK    2  A    between atoms: C_2  and  C_22
REMARK    3  A    between atoms: S_7  and  N_12
REMARK    4  A    between atoms: N_11  and  C_16
REMARK    5  A    between atoms: C_22  and  C_23
REMARK    6  A    between atoms: C_23  and  N_25
REMARK    7  A    between atoms: C_26  and  C_29
REMARK    8  A    between atoms: C_30  and  O_35
REMARK                            x       y       z     vdW  Elec       q    Type
REMARK                         _______ _______ _______ _____ _____    ______ ____
ROOT
ATOM      1  C   UNL     1      34.679 -17.996 -23.217  0.00  0.00    +0.125 C 
ATOM      2  C   UNL     1      35.635 -19.313 -20.976  0.00  0.00    -0.020 C 
ATOM      3  C   UNL     1      33.885 -18.949 -22.604  0.00  0.00    +0.020 C 
ATOM      4  C   UNL     1      35.940 -17.685 -22.737  0.00  0.00    +0.020 C 
ATOM      5  C   UNL     1      34.367 -19.613 -21.474  0.00  0.00    -0.003 C 
ATOM      6  C   UNL     1      36.421 -18.347 -21.607  0.00  0.00    -0.003 C 
ENDROOT
BRANCH   1   7
ATOM      7  S   UNL     1      34.070 -17.156 -24.647  0.00  0.00    +0.077 S 
ATOM      8  O   UNL     1      33.037 -17.979 -25.247  0.00  0.00    -0.150 OA
ATOM      9  O   UNL     1      35.226 -16.748 -25.419  0.00  0.00    -0.150 OA
BRANCH   7  12
ATOM     10  O   UNL     1      35.257 -14.811 -22.992  0.00  0.00    -0.251 OA
ATOM     11  N   UNL     1      33.206 -13.775 -22.735  0.00  0.00    -0.289 N 
ATOM     12  N   UNL     1      33.351 -15.777 -23.936  0.00  0.00    -0.169 N 
ATOM     13  C   UNL     1      34.046 -14.773 -23.190  0.00  0.00    +0.319 C 
ATOM     14  H   UNL     1      32.247 -13.835 -22.946  0.00  0.00    +0.151 HD
ATOM     15  H   UNL     1      32.379 -15.665 -24.049  0.00  0.00    +0.178 HD
BRANCH  11  16
ATOM     16  C   UNL     1      33.674 -12.646 -21.961  0.00  0.00    +0.073 C 
ATOM     17  C   UNL     1      33.664 -12.964 -20.462  0.00  0.00    +0.020 C 
ATOM     18  C   UNL     1      32.853 -11.390 -22.268  0.00  0.00    +0.020 C 
ATOM     19  C   UNL     1      32.249 -13.032 -19.888  0.00  0.00    +0.002 C 
ATOM     20  C   UNL     1      31.439 -11.459 -21.691  0.00  0.00    +0.002 C 
ATOM     21  C   UNL     1      31.455 -11.765 -20.196  0.00  0.00    +0.000 C 
ENDBRANCH  11  16
ENDBRANCH   7  12
ENDBRANCH   1   7
BRANCH   2  22
ATOM     22  C   UNL     1      36.150 -20.022 -19.770  0.00  0.00    +0.048 C 
BRANCH  22  23
ATOM     23  C   UNL     1      35.680 -21.479 -19.668  0.00  0.00    +0.094 C 
BRANCH  23  25
ATOM     24  O   UNL     1      33.815 -23.585 -19.101  0.00  0.00    -0.270 OA
ATOM     25  N   UNL     1      35.074 -21.769 -18.397  0.00  0.00    -0.300 N 
ATOM     26  C   UNL     1      34.177 -22.815 -18.215  0.00  0.00    +0.249 C 
ATOM     27  H   UNL     1      35.303 -21.204 -17.623  0.00  0.00    +0.150 HD
BRANCH  26  29
ATOM     28 CL   UNL     1      29.993 -23.063 -15.209  0.00  0.00    -0.082 Cl
ATOM     29  C   UNL     1      33.618 -22.966 -16.847  0.00  0.00    +0.088 C 
ATOM     30  C   UNL     1      34.468 -23.122 -15.772  0.00  0.00    +0.143 C 
ATOM     31  C   UNL     1      32.245 -22.944 -16.701  0.00  0.00    +0.019 C 
ATOM     32  C   UNL     1      33.924 -23.263 -14.495  0.00  0.00    +0.038 C 
ATOM     33  C   UNL     1      31.701 -23.086 -15.424  0.00  0.00    +0.058 C 
ATOM     34  C   UNL     1      32.540 -23.244 -14.322  0.00  0.00    +0.015 C 
BRANCH  30  35
ATOM     35  O   UNL     1      35.823 -23.143 -15.920  0.00  0.00    -0.471 OA
ATOM     36  C   UNL     1      36.594 -23.504 -14.776  0.00  0.00    +0.252 C 
ENDBRANCH  30  35
ENDBRANCH  26  29
ENDBRANCH  23  25
ENDBRANCH  22  23
ENDBRANCH   2  22
TORSDOF 8
ENDMDL
MODEL 9
REMARK VINA RESULT:     -11.1      3.324      5.366
REMARK  Name = 3488
REMARK  8 active torsions:
REMARK  status: ('A' for Active; 'I' for Inactive)
REMARK    1  A    between atoms: C_1  and  S_7
REMARK    2  A    between atoms: C_2  and  C_22
REMARK    3  A    between atoms: S_7  and  N_12
REMARK    4  A    between atoms: N_11  and  C_16
REMARK    5  A    between atoms: C_22  and  C_23
REMARK    6  A    between atoms: C_23  and  N_25
REMARK    7  A    between atoms: C_26  and  C_29
REMARK    8  A    between atoms: C_30  and  O_35
REMARK                            x       y       z     vdW  Elec       q    Type
REMARK                         _______ _______ _______ _____ _____    ______ ____
ROOT
ATOM      1  C   UNL     1      36.062 -23.451 -14.900  0.00  0.00    +0.125 C 
ATOM      2  C   UNL     1      36.468 -21.749 -17.045  0.00  0.00    -0.020 C 
ATOM      3  C   UNL     1      35.025 -23.223 -15.786  0.00  0.00    +0.020 C 
ATOM      4  C   UNL     1      37.298 -22.849 -15.059  0.00  0.00    +0.020 C 
ATOM      5  C   UNL     1      35.229 -22.365 -16.868  0.00  0.00    -0.003 C 
ATOM      6  C   UNL     1      37.503 -21.992 -16.141  0.00  0.00    -0.003 C 
ENDROOT
BRANCH   1   7
ATOM      7  S   UNL     1      35.803 -24.538 -13.529  0.00  0.00    +0.077 S 
ATOM      8  O   UNL     1      35.863 -23.751 -12.312  0.00  0.00    -0.150 OA
ATOM      9  O   UNL     1      36.689 -25.670 -13.718  0.00  0.00    -0.150 OA
BRANCH   7  12
ATOM     10  O   UNL     1      33.084 -23.419 -12.526  0.00  0.00    -0.251 OA
ATOM     11  N   UNL     1      31.856 -25.020 -13.654  0.00  0.00    -0.289 N 
ATOM     12  N   UNL     1      34.189 -25.032 -13.804  0.00  0.00    -0.169 N 
ATOM     13  C   UNL     1      33.026 -24.402 -13.259  0.00  0.00    +0.319 C 
ATOM     14  H   UNL     1      31.913 -25.805 -14.245  0.00  0.00    +0.151 HD
ATOM     15  H   UNL     1      34.050 -25.814 -14.386  0.00  0.00    +0.178 HD
BRANCH  11  16
ATOM     16  C   UNL     1      30.547 -24.565 -13.238  0.00  0.00    +0.073 C 
ATOM     17  C   UNL     1      29.441 -25.423 -13.862  0.00  0.00    +0.020 C 
ATOM     18  C   UNL     1      30.350 -23.081 -13.565  0.00  0.00    +0.020 C 
ATOM     19  C   UNL     1      29.278 -25.167 -15.360  0.00  0.00    +0.002 C 
ATOM     20  C   UNL     1      30.186 -22.829 -15.064  0.00  0.00    +0.002 C 
ATOM     21  C   UNL     1      29.072 -23.685 -15.659  0.00  0.00    +0.000 C 
ENDBRANCH  11  16
ENDBRANCH   7  12
ENDBRANCH   1   7
BRANCH   2  22
ATOM     22  C   UNL     1      36.687 -20.831 -18.200  0.00  0.00    +0.048 C 
BRANCH  22  23
ATOM     23  C   UNL     1      35.836 -21.179 -19.429  0.00  0.00    +0.094 C 
BRANCH  23  25
ATOM     24  O   UNL     1      37.505 -19.080 -20.452  0.00  0.00    -0.270 OA
ATOM     25  N   UNL     1      35.403 -20.008 -20.141  0.00  0.00    -0.300 N 
ATOM     26  C   UNL     1      36.287 -19.040 -20.601  0.00  0.00    +0.249 C 
ATOM     27  H   UNL     1      34.440 -19.886 -20.310  0.00  0.00    +0.150 HD
BRANCH  26  29
ATOM     28 CL   UNL     1      34.749 -14.122 -20.358  0.00  0.00    -0.082 Cl
ATOM     29  C   UNL     1      35.678 -17.876 -21.296  0.00  0.00    +0.088 C 
ATOM     30  C   UNL     1      35.288 -17.991 -22.615  0.00  0.00    +0.143 C 
ATOM     31  C   UNL     1      35.524 -16.703 -20.584  0.00  0.00    +0.019 C 
ATOM     32  C   UNL     1      34.719 -16.887 -23.249  0.00  0.00    +0.038 C 
ATOM     33  C   UNL     1      34.955 -15.599 -21.219  0.00  0.00    +0.058 C 
ATOM     34  C   UNL     1      34.552 -15.691 -22.551  0.00  0.00    +0.015 C 
BRANCH  30  35
ATOM     35  O   UNL     1      35.442 -19.151 -23.314  0.00  0.00    -0.471 OA
ATOM     36  C   UNL     1      34.439 -19.464 -24.277  0.00  0.00    +0.252 C 
ENDBRANCH  30  35
ENDBRANCH  26  29
ENDBRANCH  23  25
ENDBRANCH  22  23
ENDBRANCH   2  22
TORSDOF 8
ENDMDL
