MODEL 1
REMARK VINA RESULT:     -11.5      0.000      0.000
REMARK  Name = 21874557
REMARK  4 active torsions:
REMARK  status: ('A' for Active; 'I' for Inactive)
REMARK    1  A    between atoms: N_1  and  C_18
REMARK    2  A    between atoms: C_9  and  C_14
REMARK    3  A    between atoms: C_18  and  C_19
REMARK    4  A    between atoms: C_23  and  N_26
REMARK                            x       y       z     vdW  Elec       q    Type
REMARK                         _______ _______ _______ _____ _____    ______ ____
ROOT
ATOM      1  N   UNL     1      35.403 -16.511 -21.558  0.00  0.00    -0.170 N 
ATOM      2  N   UNL     1      35.224 -16.069 -20.298  0.00  0.00    -0.042 NA
ATOM      3  N   UNL     1      34.445 -14.990 -20.357  0.00  0.00    -0.137 NA
ATOM      4  N   UNL     1      34.687 -15.848 -23.786  0.00  0.00    -0.310 NA
ATOM      5  N   UNL     1      33.274 -13.857 -23.673  0.00  0.00    -0.324 NA
ATOM      6  N   UNL     1      33.785 -14.882 -25.719  0.00  0.00    -0.283 N 
ATOM      7  C   UNL     1      34.744 -15.726 -22.453  0.00  0.00    +0.238 C 
ATOM      8  C   UNL     1      34.140 -14.763 -21.670  0.00  0.00    +0.181 C 
ATOM      9  C   UNL     1      33.380 -13.800 -22.323  0.00  0.00    +0.202 C 
ATOM     10  C   UNL     1      33.924 -14.862 -24.312  0.00  0.00    +0.198 C 
ATOM     11  H   UNL     1      34.230 -15.583 -26.248  0.00  0.00    +0.156 HD
ATOM     12  H   UNL     1      33.244 -14.194 -26.170  0.00  0.00    +0.156 HD
ENDROOT
BRANCH   9  14
ATOM     13  O   UNL     1      32.765 -11.528 -22.205  0.00  0.00    -0.448 OA
ATOM     14  C   UNL     1      32.709 -12.754 -21.619  0.00  0.00    +0.178 C 
ATOM     15  C   UNL     1      31.995 -12.696 -20.446  0.00  0.00    +0.043 C 
ATOM     16  C   UNL     1      31.585 -11.349 -20.300  0.00  0.00    +0.044 C 
ATOM     17  C   UNL     1      32.078 -10.679 -21.397  0.00  0.00    +0.180 C 
ENDBRANCH   9  14
BRANCH   1  18
ATOM     18  C   UNL     1      36.224 -17.697 -21.822  0.00  0.00    +0.145 C 
BRANCH  18  19
ATOM     19  C   UNL     1      35.845 -18.842 -20.945  0.00  0.00    -0.001 C 
ATOM     20  C   UNL     1      34.506 -19.212 -20.818  0.00  0.00    -0.006 C 
ATOM     21  C   UNL     1      34.153 -20.284 -19.998  0.00  0.00    -0.009 C 
ATOM     22  C   UNL     1      36.831 -19.543 -20.249  0.00  0.00    -0.001 C 
ATOM     23  C   UNL     1      35.139 -20.985 -19.303  0.00  0.00    +0.037 C 
ATOM     24  C   UNL     1      36.478 -20.615 -19.428  0.00  0.00    +0.013 C 
ATOM     25  C   UNL     1      32.711 -20.658 -19.881  0.00  0.00    +0.032 C 
BRANCH  23  26
ATOM     26  N   UNL     1      34.800 -22.071 -18.469  0.00  0.00    -0.357 N 
ATOM     27  H   UNL     1      34.793 -21.958 -17.490  0.00  0.00    +0.142 HD
ATOM     28  H   UNL     1      34.571 -22.943 -18.864  0.00  0.00    +0.142 HD
ENDBRANCH  23  26
ENDBRANCH  18  19
ENDBRANCH   1  18
TORSDOF 4
ENDMDL
MODEL 2
REMARK VINA RESULT:     -10.6      0.854      1.606
REMARK  Name = 21874557
REMARK  4 active torsions:
REMARK  status: ('A' for Active; 'I' for Inactive)
REMARK    1  A    between atoms: N_1  and  C_18
REMARK    2  A    between atoms: C_9  and  C_14
REMARK    3  A    between atoms: C_18  and  C_19
REMARK    4  A    between atoms: C_23  and  N_26
REMARK                            x       y       z     vdW  Elec       q    Type
REMARK                         _______ _______ _______ _____ _____    ______ ____
ROOT
ATOM      1  N   UNL     1      35.313 -16.689 -21.277  0.00  0.00    -0.170 N 
ATOM      2  N   UNL     1      35.127 -16.064 -20.098  0.00  0.00    -0.042 NA
ATOM      3  N   UNL     1      34.437 -14.950 -20.336  0.00  0.00    -0.137 NA
ATOM      4  N   UNL     1      34.723 -16.291 -23.603  0.00  0.00    -0.310 NA
ATOM      5  N   UNL     1      33.466 -14.207 -23.823  0.00  0.00    -0.324 NA
ATOM      6  N   UNL     1      33.963 -15.540 -25.686  0.00  0.00    -0.283 N 
ATOM      7  C   UNL     1      34.747 -15.990 -22.298  0.00  0.00    +0.238 C 
ATOM      8  C   UNL     1      34.193 -14.886 -21.679  0.00  0.00    +0.181 C 
ATOM      9  C   UNL     1      33.533 -13.971 -22.490  0.00  0.00    +0.202 C 
ATOM     10  C   UNL     1      34.057 -15.336 -24.290  0.00  0.00    +0.198 C 
ATOM     11  H   UNL     1      34.368 -16.338 -26.095  0.00  0.00    +0.156 HD
ATOM     12  H   UNL     1      33.491 -14.883 -26.249  0.00  0.00    +0.156 HD
ENDROOT
BRANCH   9  14
ATOM     13  O   UNL     1      32.002 -13.000 -20.984  0.00  0.00    -0.448 OA
ATOM     14  C   UNL     1      32.922 -12.791 -21.963  0.00  0.00    +0.178 C 
ATOM     15  C   UNL     1      33.053 -11.448 -22.226  0.00  0.00    +0.043 C 
ATOM     16  C   UNL     1      32.156 -10.787 -21.352  0.00  0.00    +0.044 C 
ATOM     17  C   UNL     1      31.541 -11.775 -20.618  0.00  0.00    +0.180 C 
ENDBRANCH   9  14
BRANCH   1  18
ATOM     18  C   UNL     1      36.047 -17.957 -21.342  0.00  0.00    +0.145 C 
BRANCH  18  19
ATOM     19  C   UNL     1      35.298 -19.067 -20.686  0.00  0.00    -0.001 C 
ATOM     20  C   UNL     1      35.959 -19.941 -19.823  0.00  0.00    -0.006 C 
ATOM     21  C   UNL     1      35.257 -20.979 -19.209  0.00  0.00    -0.009 C 
ATOM     22  C   UNL     1      33.935 -19.232 -20.937  0.00  0.00    -0.001 C 
ATOM     23  C   UNL     1      33.895 -21.144 -19.460  0.00  0.00    +0.037 C 
ATOM     24  C   UNL     1      33.234 -20.271 -20.324  0.00  0.00    +0.013 C 
ATOM     25  C   UNL     1      35.990 -21.900 -18.289  0.00  0.00    +0.032 C 
BRANCH  23  26
ATOM     26  N   UNL     1      33.169 -22.188 -18.848  0.00  0.00    -0.357 N 
ATOM     27  H   UNL     1      32.190 -22.230 -18.946  0.00  0.00    +0.142 HD
ATOM     28  H   UNL     1      33.640 -22.875 -18.324  0.00  0.00    +0.142 HD
ENDBRANCH  23  26
ENDBRANCH  18  19
ENDBRANCH   1  18
TORSDOF 4
ENDMDL
MODEL 3
REMARK VINA RESULT:     -10.2      4.132      8.808
REMARK  Name = 21874557
REMARK  4 active torsions:
REMARK  status: ('A' for Active; 'I' for Inactive)
REMARK    1  A    between atoms: N_1  and  C_18
REMARK    2  A    between atoms: C_9  and  C_14
REMARK    3  A    between atoms: C_18  and  C_19
REMARK    4  A    between atoms: C_23  and  N_26
REMARK                            x       y       z     vdW  Elec       q    Type
REMARK                         _______ _______ _______ _____ _____    ______ ____
ROOT
ATOM      1  N   UNL     1      34.637 -21.365 -19.161  0.00  0.00    -0.170 N 
ATOM      2  N   UNL     1      33.391 -21.153 -19.625  0.00  0.00    -0.042 NA
ATOM      3  N   UNL     1      32.537 -21.654 -18.735  0.00  0.00    -0.137 NA
ATOM      4  N   UNL     1      35.643 -22.389 -17.196  0.00  0.00    -0.310 NA
ATOM      5  N   UNL     1      33.914 -23.242 -15.696  0.00  0.00    -0.324 NA
ATOM      6  N   UNL     1      36.192 -23.451 -15.183  0.00  0.00    -0.283 N 
ATOM      7  C   UNL     1      34.611 -22.008 -17.962  0.00  0.00    +0.238 C 
ATOM      8  C   UNL     1      33.265 -22.184 -17.707  0.00  0.00    +0.181 C 
ATOM      9  C   UNL     1      32.924 -22.828 -16.524  0.00  0.00    +0.202 C 
ATOM     10  C   UNL     1      35.193 -23.001 -16.077  0.00  0.00    +0.198 C 
ATOM     11  H   UNL     1      37.142 -23.310 -15.395  0.00  0.00    +0.156 HD
ATOM     12  H   UNL     1      35.936 -23.906 -14.348  0.00  0.00    +0.156 HD
ENDROOT
BRANCH   9  14
ATOM     13  O   UNL     1      30.645 -22.283 -16.777  0.00  0.00    -0.448 OA
ATOM     14  C   UNL     1      31.565 -23.067 -16.153  0.00  0.00    +0.178 C 
ATOM     15  C   UNL     1      30.949 -23.934 -15.282  0.00  0.00    +0.043 C 
ATOM     16  C   UNL     1      29.562 -23.668 -15.376  0.00  0.00    +0.044 C 
ATOM     17  C   UNL     1      29.429 -22.656 -16.299  0.00  0.00    +0.180 C 
ENDBRANCH   9  14
BRANCH   1  18
ATOM     18  C   UNL     1      35.805 -20.921 -19.928  0.00  0.00    +0.145 C 
BRANCH  18  19
ATOM     19  C   UNL     1      35.515 -19.692 -20.721  0.00  0.00    -0.001 C 
ATOM     20  C   UNL     1      34.929 -19.797 -21.982  0.00  0.00    -0.006 C 
ATOM     21  C   UNL     1      34.658 -18.646 -22.723  0.00  0.00    -0.009 C 
ATOM     22  C   UNL     1      35.830 -18.436 -20.200  0.00  0.00    -0.001 C 
ATOM     23  C   UNL     1      34.972 -17.391 -22.203  0.00  0.00    +0.037 C 
ATOM     24  C   UNL     1      35.558 -17.285 -20.941  0.00  0.00    +0.013 C 
ATOM     25  C   UNL     1      34.030 -18.788 -24.072  0.00  0.00    +0.032 C 
BRANCH  23  26
ATOM     26  N   UNL     1      34.705 -16.216 -22.938  0.00  0.00    -0.357 N 
ATOM     27  H   UNL     1      34.114 -15.524 -22.561  0.00  0.00    +0.142 HD
ATOM     28  H   UNL     1      35.108 -16.088 -23.827  0.00  0.00    +0.142 HD
ENDBRANCH  23  26
ENDBRANCH  18  19
ENDBRANCH   1  18
TORSDOF 4
ENDMDL
MODEL 4
REMARK VINA RESULT:     -10.1      5.958     11.045
REMARK  Name = 21874557
REMARK  4 active torsions:
REMARK  status: ('A' for Active; 'I' for Inactive)
REMARK    1  A    between atoms: N_1  and  C_18
REMARK    2  A    between atoms: C_9  and  C_14
REMARK    3  A    between atoms: C_18  and  C_19
REMARK    4  A    between atoms: C_23  and  N_26
REMARK                            x       y       z     vdW  Elec       q    Type
REMARK                         _______ _______ _______ _____ _____    ______ ____
ROOT
ATOM      1  N   UNL     1      34.021 -23.027 -16.614  0.00  0.00    -0.170 N 
ATOM      2  N   UNL     1      35.350 -22.860 -16.746  0.00  0.00    -0.042 NA
ATOM      3  N   UNL     1      35.908 -23.109 -15.563  0.00  0.00    -0.137 NA
ATOM      4  N   UNL     1      32.482 -23.640 -14.832  0.00  0.00    -0.310 NA
ATOM      5  N   UNL     1      33.700 -24.053 -12.754  0.00  0.00    -0.324 NA
ATOM      6  N   UNL     1      31.368 -24.257 -12.868  0.00  0.00    -0.283 N 
ATOM      7  C   UNL     1      33.694 -23.387 -15.343  0.00  0.00    +0.238 C 
ATOM      8  C   UNL     1      34.909 -23.434 -14.688  0.00  0.00    +0.181 C 
ATOM      9  C   UNL     1      34.891 -23.782 -13.343  0.00  0.00    +0.202 C 
ATOM     10  C   UNL     1      32.586 -23.966 -13.524  0.00  0.00    +0.198 C 
ATOM     11  H   UNL     1      30.519 -24.214 -13.364  0.00  0.00    +0.156 HD
ATOM     12  H   UNL     1      31.369 -24.502 -11.914  0.00  0.00    +0.156 HD
ENDROOT
BRANCH   9  14
ATOM     13  O   UNL     1      36.852 -24.962 -12.784  0.00  0.00    -0.448 OA
ATOM     14  C   UNL     1      36.084 -23.862 -12.562  0.00  0.00    +0.178 C 
ATOM     15  C   UNL     1      36.657 -23.059 -11.605  0.00  0.00    +0.043 C 
ATOM     16  C   UNL     1      37.854 -23.706 -11.212  0.00  0.00    +0.044 C 
ATOM     17  C   UNL     1      37.927 -24.859 -11.959  0.00  0.00    +0.180 C 
ENDBRANCH   9  14
BRANCH   1  18
ATOM     18  C   UNL     1      33.126 -22.823 -17.758  0.00  0.00    +0.145 C 
BRANCH  18  19
ATOM     19  C   UNL     1      33.630 -21.763 -18.677  0.00  0.00    -0.001 C 
ATOM     20  C   UNL     1      35.002 -21.535 -18.794  0.00  0.00    -0.006 C 
ATOM     21  C   UNL     1      35.473 -20.544 -19.655  0.00  0.00    -0.009 C 
ATOM     22  C   UNL     1      32.730 -20.999 -19.420  0.00  0.00    -0.001 C 
ATOM     23  C   UNL     1      34.573 -19.780 -20.398  0.00  0.00    +0.037 C 
ATOM     24  C   UNL     1      33.202 -20.007 -20.282  0.00  0.00    +0.013 C 
ATOM     25  C   UNL     1      36.947 -20.321 -19.760  0.00  0.00    +0.032 C 
BRANCH  23  26
ATOM     26  N   UNL     1      35.031 -18.773 -21.275  0.00  0.00    -0.357 N 
ATOM     27  H   UNL     1      35.891 -18.882 -21.743  0.00  0.00    +0.142 HD
ATOM     28  H   UNL     1      34.493 -17.962 -21.419  0.00  0.00    +0.142 HD
ENDBRANCH  23  26
ENDBRANCH  18  19
ENDBRANCH   1  18
TORSDOF 4
ENDMDL
MODEL 5
REMARK VINA RESULT:     -10.0      5.228      9.973
REMARK  Name = 21874557
REMARK  4 active torsions:
REMARK  status: ('A' for Active; 'I' for Inactive)
REMARK    1  A    between atoms: N_1  and  C_18
REMARK    2  A    between atoms: C_9  and  C_14
REMARK    3  A    between atoms: C_18  and  C_19
REMARK    4  A    between atoms: C_23  and  N_26
REMARK                            x       y       z     vdW  Elec       q    Type
REMARK                         _______ _______ _______ _____ _____    ______ ____
ROOT
ATOM      1  N   UNL     1      34.426 -22.420 -17.718  0.00  0.00    -0.170 N 
ATOM      2  N   UNL     1      33.295 -22.534 -18.441  0.00  0.00    -0.042 NA
ATOM      3  N   UNL     1      32.334 -22.958 -17.622  0.00  0.00    -0.137 NA
ATOM      4  N   UNL     1      35.095 -22.785 -15.407  0.00  0.00    -0.310 NA
ATOM      5  N   UNL     1      33.194 -23.558 -14.079  0.00  0.00    -0.324 NA
ATOM      6  N   UNL     1      35.314 -23.255 -13.124  0.00  0.00    -0.283 N 
ATOM      7  C   UNL     1      34.217 -22.770 -16.420  0.00  0.00    +0.238 C 
ATOM      8  C   UNL     1      32.878 -23.109 -16.378  0.00  0.00    +0.181 C 
ATOM      9  C   UNL     1      32.367 -23.517 -15.152  0.00  0.00    +0.202 C 
ATOM     10  C   UNL     1      34.488 -23.195 -14.270  0.00  0.00    +0.198 C 
ATOM     11  H   UNL     1      36.264 -23.006 -13.189  0.00  0.00    +0.156 HD
ATOM     12  H   UNL     1      34.938 -23.545 -12.262  0.00  0.00    +0.156 HD
ENDROOT
BRANCH   9  14
ATOM     13  O   UNL     1      30.792 -25.057 -14.316  0.00  0.00    -0.448 OA
ATOM     14  C   UNL     1      30.998 -23.893 -14.986  0.00  0.00    +0.178 C 
ATOM     15  C   UNL     1      29.800 -23.332 -15.360  0.00  0.00    +0.043 C 
ATOM     16  C   UNL     1      28.792 -24.207 -14.890  0.00  0.00    +0.044 C 
ATOM     17  C   UNL     1      29.447 -25.241 -14.261  0.00  0.00    +0.180 C 
ENDBRANCH   9  14
BRANCH   1  18
ATOM     18  C   UNL     1      35.671 -21.969 -18.347  0.00  0.00    +0.145 C 
BRANCH  18  19
ATOM     19  C   UNL     1      35.426 -20.917 -19.375  0.00  0.00    -0.001 C 
ATOM     20  C   UNL     1      36.498 -20.212 -19.923  0.00  0.00    -0.006 C 
ATOM     21  C   UNL     1      36.267 -19.229 -20.885  0.00  0.00    -0.009 C 
ATOM     22  C   UNL     1      34.123 -20.638 -19.790  0.00  0.00    -0.001 C 
ATOM     23  C   UNL     1      34.964 -18.951 -21.300  0.00  0.00    +0.037 C 
ATOM     24  C   UNL     1      33.892 -19.655 -20.752  0.00  0.00    +0.013 C 
ATOM     25  C   UNL     1      37.434 -18.490 -21.455  0.00  0.00    +0.032 C 
BRANCH  23  26
ATOM     26  N   UNL     1      34.712 -17.960 -22.273  0.00  0.00    -0.357 N 
ATOM     27  H   UNL     1      34.660 -18.206 -23.225  0.00  0.00    +0.142 HD
ATOM     28  H   UNL     1      34.587 -17.022 -22.000  0.00  0.00    +0.142 HD
ENDBRANCH  23  26
ENDBRANCH  18  19
ENDBRANCH   1  18
TORSDOF 4
ENDMDL
MODEL 6
REMARK VINA RESULT:      -9.9      3.531      7.962
REMARK  Name = 21874557
REMARK  4 active torsions:
REMARK  status: ('A' for Active; 'I' for Inactive)
REMARK    1  A    between atoms: N_1  and  C_18
REMARK    2  A    between atoms: C_9  and  C_14
REMARK    3  A    between atoms: C_18  and  C_19
REMARK    4  A    between atoms: C_23  and  N_26
REMARK                            x       y       z     vdW  Elec       q    Type
REMARK                         _______ _______ _______ _____ _____    ______ ____
ROOT
ATOM      1  N   UNL     1      36.302 -19.033 -20.991  0.00  0.00    -0.170 N 
ATOM      2  N   UNL     1      37.503 -19.016 -20.382  0.00  0.00    -0.042 NA
ATOM      3  N   UNL     1      37.428 -19.817 -19.320  0.00  0.00    -0.137 NA
ATOM      4  N   UNL     1      34.151 -20.116 -20.638  0.00  0.00    -0.310 NA
ATOM      5  N   UNL     1      34.226 -21.534 -18.649  0.00  0.00    -0.324 NA
ATOM      6  N   UNL     1      32.280 -21.339 -19.943  0.00  0.00    -0.283 N 
ATOM      7  C   UNL     1      35.429 -19.845 -20.335  0.00  0.00    +0.238 C 
ATOM      8  C   UNL     1      36.164 -20.336 -19.274  0.00  0.00    +0.181 C 
ATOM      9  C   UNL     1      35.520 -21.212 -18.409  0.00  0.00    +0.202 C 
ATOM     10  C   UNL     1      33.630 -20.974 -19.732  0.00  0.00    +0.198 C 
ATOM     11  H   UNL     1      31.785 -20.971 -20.709  0.00  0.00    +0.156 HD
ATOM     12  H   UNL     1      31.836 -21.961 -19.322  0.00  0.00    +0.156 HD
ENDROOT
BRANCH   9  14
ATOM     13  O   UNL     1      35.498 -22.781 -16.651  0.00  0.00    -0.448 OA
ATOM     14  C   UNL     1      36.178 -21.783 -17.276  0.00  0.00    +0.178 C 
ATOM     15  C   UNL     1      37.379 -21.550 -16.650  0.00  0.00    +0.043 C 
ATOM     16  C   UNL     1      37.443 -22.462 -15.569  0.00  0.00    +0.044 C 
ATOM     17  C   UNL     1      36.276 -23.189 -15.613  0.00  0.00    +0.180 C 
ENDBRANCH   9  14
BRANCH   1  18
ATOM     18  C   UNL     1      36.069 -18.241 -22.203  0.00  0.00    +0.145 C 
BRANCH  18  19
ATOM     19  C   UNL     1      35.426 -16.931 -21.897  0.00  0.00    -0.001 C 
ATOM     20  C   UNL     1      34.972 -16.117 -22.935  0.00  0.00    -0.006 C 
ATOM     21  C   UNL     1      34.369 -14.891 -22.647  0.00  0.00    -0.009 C 
ATOM     22  C   UNL     1      35.278 -16.520 -20.572  0.00  0.00    -0.001 C 
ATOM     23  C   UNL     1      34.222 -14.481 -21.322  0.00  0.00    +0.037 C 
ATOM     24  C   UNL     1      34.676 -15.295 -20.284  0.00  0.00    +0.013 C 
ATOM     25  C   UNL     1      33.893 -14.039 -23.777  0.00  0.00    +0.032 C 
BRANCH  23  26
ATOM     26  N   UNL     1      33.614 -13.245 -21.012  0.00  0.00    -0.357 N 
ATOM     27  H   UNL     1      34.131 -12.410 -21.088  0.00  0.00    +0.142 HD
ATOM     28  H   UNL     1      32.675 -13.217 -20.720  0.00  0.00    +0.142 HD
ENDBRANCH  23  26
ENDBRANCH  18  19
ENDBRANCH   1  18
TORSDOF 4
ENDMDL
MODEL 7
REMARK VINA RESULT:      -9.9      5.697     10.664
REMARK  Name = 21874557
REMARK  4 active torsions:
REMARK  status: ('A' for Active; 'I' for Inactive)
REMARK    1  A    between atoms: N_1  and  C_18
REMARK    2  A    between atoms: C_9  and  C_14
REMARK    3  A    between atoms: C_18  and  C_19
REMARK    4  A    between atoms: C_23  and  N_26
REMARK                            x       y       z     vdW  Elec       q    Type
REMARK                         _______ _______ _______ _____ _____    ______ ____
ROOT
ATOM      1  N   UNL     1      34.124 -22.744 -17.123  0.00  0.00    -0.170 N 
ATOM      2  N   UNL     1      35.453 -22.746 -16.907  0.00  0.00    -0.042 NA
ATOM      3  N   UNL     1      35.659 -23.179 -15.664  0.00  0.00    -0.137 NA
ATOM      4  N   UNL     1      32.123 -23.310 -15.859  0.00  0.00    -0.310 NA
ATOM      5  N   UNL     1      32.718 -24.078 -13.616  0.00  0.00    -0.324 NA
ATOM      6  N   UNL     1      30.484 -23.954 -14.317  0.00  0.00    -0.283 N 
ATOM      7  C   UNL     1      33.446 -23.176 -16.025  0.00  0.00    +0.238 C 
ATOM      8  C   UNL     1      34.441 -23.448 -15.106  0.00  0.00    +0.181 C 
ATOM      9  C   UNL     1      34.041 -23.916 -13.860  0.00  0.00    +0.202 C 
ATOM     10  C   UNL     1      31.853 -23.770 -14.616  0.00  0.00    +0.198 C 
ATOM     11  H   UNL     1      29.800 -23.750 -14.995  0.00  0.00    +0.156 HD
ATOM     12  H   UNL     1      30.214 -24.287 -13.430  0.00  0.00    +0.156 HD
ENDROOT
BRANCH   9  14
ATOM     13  O   UNL     1      34.663 -23.762 -11.592  0.00  0.00    -0.448 OA
ATOM     14  C   UNL     1      34.979 -24.230 -12.829  0.00  0.00    +0.178 C 
ATOM     15  C   UNL     1      36.168 -24.920 -12.795  0.00  0.00    +0.043 C 
ATOM     16  C   UNL     1      36.612 -24.873 -11.452  0.00  0.00    +0.044 C 
ATOM     17  C   UNL     1      35.662 -24.158 -10.760  0.00  0.00    +0.180 C 
ENDBRANCH   9  14
BRANCH   1  18
ATOM     18  C   UNL     1      33.579 -22.314 -18.415  0.00  0.00    +0.145 C 
BRANCH  18  19
ATOM     19  C   UNL     1      34.492 -21.366 -19.116  0.00  0.00    -0.001 C 
ATOM     20  C   UNL     1      33.991 -20.512 -20.098  0.00  0.00    -0.006 C 
ATOM     21  C   UNL     1      34.846 -19.625 -20.753  0.00  0.00    -0.009 C 
ATOM     22  C   UNL     1      35.848 -21.335 -18.790  0.00  0.00    -0.001 C 
ATOM     23  C   UNL     1      36.202 -19.593 -20.426  0.00  0.00    +0.037 C 
ATOM     24  C   UNL     1      36.703 -20.448 -19.445  0.00  0.00    +0.013 C 
ATOM     25  C   UNL     1      34.282 -18.721 -21.801  0.00  0.00    +0.032 C 
BRANCH  23  26
ATOM     26  N   UNL     1      37.081 -18.703 -21.078  0.00  0.00    -0.357 N 
ATOM     27  H   UNL     1      36.936 -17.731 -21.013  0.00  0.00    +0.142 HD
ATOM     28  H   UNL     1      37.840 -19.052 -21.598  0.00  0.00    +0.142 HD
ENDBRANCH  23  26
ENDBRANCH  18  19
ENDBRANCH   1  18
TORSDOF 4
ENDMDL
MODEL 8
REMARK VINA RESULT:      -9.8      5.118      9.897
REMARK  Name = 21874557
REMARK  4 active torsions:
REMARK  status: ('A' for Active; 'I' for Inactive)
REMARK    1  A    between atoms: N_1  and  C_18
REMARK    2  A    between atoms: C_9  and  C_14
REMARK    3  A    between atoms: C_18  and  C_19
REMARK    4  A    between atoms: C_23  and  N_26
REMARK                            x       y       z     vdW  Elec       q    Type
REMARK                         _______ _______ _______ _____ _____    ______ ____
ROOT
ATOM      1  N   UNL     1      33.849 -21.941 -18.374  0.00  0.00    -0.170 N 
ATOM      2  N   UNL     1      35.176 -22.116 -18.227  0.00  0.00    -0.042 NA
ATOM      3  N   UNL     1      35.373 -22.765 -17.081  0.00  0.00    -0.137 NA
ATOM      4  N   UNL     1      31.840 -22.497 -17.120  0.00  0.00    -0.310 NA
ATOM      5  N   UNL     1      32.417 -23.679 -15.060  0.00  0.00    -0.324 NA
ATOM      6  N   UNL     1      30.190 -23.212 -15.621  0.00  0.00    -0.283 N 
ATOM      7  C   UNL     1      33.164 -22.474 -17.327  0.00  0.00    +0.238 C 
ATOM      8  C   UNL     1      34.151 -22.994 -16.513  0.00  0.00    +0.181 C 
ATOM      9  C   UNL     1      33.742 -23.616 -15.340  0.00  0.00    +0.202 C 
ATOM     10  C   UNL     1      31.561 -23.124 -15.954  0.00  0.00    +0.198 C 
ATOM     11  H   UNL     1      29.511 -22.831 -16.224  0.00  0.00    +0.156 HD
ATOM     12  H   UNL     1      29.914 -23.656 -14.787  0.00  0.00    +0.156 HD
ENDROOT
BRANCH   9  14
ATOM     13  O   UNL     1      35.554 -25.074 -14.958  0.00  0.00    -0.448 OA
ATOM     14  C   UNL     1      34.672 -24.190 -14.419  0.00  0.00    +0.178 C 
ATOM     15  C   UNL     1      34.891 -24.052 -13.069  0.00  0.00    +0.043 C 
ATOM     16  C   UNL     1      35.977 -24.905 -12.757  0.00  0.00    +0.044 C 
ATOM     17  C   UNL     1      36.344 -25.504 -13.940  0.00  0.00    +0.180 C 
ENDBRANCH   9  14
BRANCH   1  18
ATOM     18  C   UNL     1      33.314 -21.251 -19.553  0.00  0.00    +0.145 C 
BRANCH  18  19
ATOM     19  C   UNL     1      34.341 -20.394 -20.210  0.00  0.00    -0.001 C 
ATOM     20  C   UNL     1      34.015 -19.667 -21.355  0.00  0.00    -0.006 C 
ATOM     21  C   UNL     1      34.977 -18.864 -21.969  0.00  0.00    -0.009 C 
ATOM     22  C   UNL     1      35.630 -20.319 -19.680  0.00  0.00    -0.001 C 
ATOM     23  C   UNL     1      36.265 -18.789 -21.438  0.00  0.00    +0.037 C 
ATOM     24  C   UNL     1      36.592 -19.517 -20.294  0.00  0.00    +0.013 C 
ATOM     25  C   UNL     1      34.600 -18.096 -23.194  0.00  0.00    +0.032 C 
BRANCH  23  26
ATOM     26  N   UNL     1      37.251 -17.983 -22.046  0.00  0.00    -0.357 N 
ATOM     27  H   UNL     1      37.125 -17.007 -22.099  0.00  0.00    +0.142 HD
ATOM     28  H   UNL     1      38.065 -18.394 -22.417  0.00  0.00    +0.142 HD
ENDBRANCH  23  26
ENDBRANCH  18  19
ENDBRANCH   1  18
TORSDOF 4
ENDMDL
MODEL 9
REMARK VINA RESULT:      -9.8      2.652      7.261
REMARK  Name = 21874557
REMARK  4 active torsions:
REMARK  status: ('A' for Active; 'I' for Inactive)
REMARK    1  A    between atoms: N_1  and  C_18
REMARK    2  A    between atoms: C_9  and  C_14
REMARK    3  A    between atoms: C_18  and  C_19
REMARK    4  A    between atoms: C_23  and  N_26
REMARK                            x       y       z     vdW  Elec       q    Type
REMARK                         _______ _______ _______ _____ _____    ______ ____
ROOT
ATOM      1  N   UNL     1      34.942 -15.645 -21.883  0.00  0.00    -0.170 N 
ATOM      2  N   UNL     1      35.242 -15.635 -20.570  0.00  0.00    -0.042 NA
ATOM      3  N   UNL     1      35.282 -16.900 -20.156  0.00  0.00    -0.137 NA
ATOM      4  N   UNL     1      34.481 -17.325 -23.582  0.00  0.00    -0.310 NA
ATOM      5  N   UNL     1      34.604 -19.568 -22.621  0.00  0.00    -0.324 NA
ATOM      6  N   UNL     1      34.101 -19.232 -24.885  0.00  0.00    -0.283 N 
ATOM      7  C   UNL     1      34.782 -16.916 -22.341  0.00  0.00    +0.238 C 
ATOM      8  C   UNL     1      35.003 -17.702 -21.227  0.00  0.00    +0.181 C 
ATOM      9  C   UNL     1      34.905 -19.078 -21.393  0.00  0.00    +0.202 C 
ATOM     10  C   UNL     1      34.413 -18.675 -23.624  0.00  0.00    +0.198 C 
ATOM     11  H   UNL     1      33.950 -18.643 -25.659  0.00  0.00    +0.156 HD
ATOM     12  H   UNL     1      34.035 -20.209 -24.989  0.00  0.00    +0.156 HD
ENDROOT
BRANCH   9  14
ATOM     13  O   UNL     1      36.386 -20.062 -19.847  0.00  0.00    -0.448 OA
ATOM     14  C   UNL     1      35.111 -19.991 -20.314  0.00  0.00    +0.178 C 
ATOM     15  C   UNL     1      34.292 -20.844 -19.613  0.00  0.00    +0.043 C 
ATOM     16  C   UNL     1      35.115 -21.481 -18.653  0.00  0.00    +0.044 C 
ATOM     17  C   UNL     1      36.380 -20.970 -18.837  0.00  0.00    +0.180 C 
ENDBRANCH   9  14
BRANCH   1  18
ATOM     18  C   UNL     1      34.826 -14.389 -22.631  0.00  0.00    +0.145 C 
BRANCH  18  19
ATOM     19  C   UNL     1      33.801 -13.482 -22.039  0.00  0.00    -0.001 C 
ATOM     20  C   UNL     1      33.619 -12.200 -22.560  0.00  0.00    -0.006 C 
ATOM     21  C   UNL     1      32.659 -11.352 -22.006  0.00  0.00    -0.009 C 
ATOM     22  C   UNL     1      33.024 -13.915 -20.964  0.00  0.00    -0.001 C 
ATOM     23  C   UNL     1      31.883 -11.786 -20.931  0.00  0.00    +0.037 C 
ATOM     24  C   UNL     1      32.065 -13.066 -20.410  0.00  0.00    +0.013 C 
ATOM     25  C   UNL     1      32.486  -9.985 -22.583  0.00  0.00    +0.032 C 
BRANCH  23  26
ATOM     26  N   UNL     1      30.907 -10.942 -20.358  0.00  0.00    -0.357 N 
ATOM     27  H   UNL     1      31.027  -9.964 -20.381  0.00  0.00    +0.142 HD
ATOM     28  H   UNL     1      30.107 -11.329 -19.936  0.00  0.00    +0.142 HD
ENDBRANCH  23  26
ENDBRANCH  18  19
ENDBRANCH   1  18
TORSDOF 4
ENDMDL
