MODEL 1
REMARK VINA RESULT:     -11.4      0.000      0.000
REMARK  Name = 151194
REMARK  3 active torsions:
REMARK  status: ('A' for Active; 'I' for Inactive)
REMARK    1  A    between atoms: N_1  and  C_14
REMARK    2  A    between atoms: C_6  and  C_20
REMARK    3  A    between atoms: C_20  and  C_22
REMARK                            x       y       z     vdW  Elec       q    Type
REMARK                         _______ _______ _______ _____ _____    ______ ____
ROOT
ATOM      1  N   UNL     1      35.003 -20.058 -20.968  0.00  0.00    -0.297 N 
ATOM      2  N   UNL     1      35.478 -16.540 -20.294  0.00  0.00    -0.151 NA
ATOM      3  N   UNL     1      35.421 -17.889 -20.139  0.00  0.00    -0.133 NA
ATOM      4  C   UNL     1      34.764 -16.750 -22.589  0.00  0.00    +0.018 A 
ATOM      5  C   UNL     1      34.705 -18.143 -22.429  0.00  0.00    +0.035 A 
ATOM      6  C   UNL     1      35.156 -15.997 -21.488  0.00  0.00    +0.085 A 
ATOM      7  C   UNL     1      35.045 -18.659 -21.184  0.00  0.00    +0.154 A 
ATOM      8  C   UNL     1      34.430 -16.177 -23.828  0.00  0.00    +0.001 C 
ATOM      9  C   UNL     1      34.314 -18.950 -23.511  0.00  0.00    +0.003 C 
ATOM     10  C   UNL     1      34.043 -16.988 -24.896  0.00  0.00    +0.000 C 
ATOM     11  C   UNL     1      33.985 -18.372 -24.737  0.00  0.00    +0.000 C 
ATOM     12  H   UNL     1      35.189 -20.589 -21.776  0.00  0.00    +0.154 HD
ENDROOT
BRANCH   1  14
ATOM     13 CL   UNL     1      33.926 -23.334 -16.156  0.00  0.00    -0.082 Cl
ATOM     14  C   UNL     1      34.747 -20.834 -19.827  0.00  0.00    +0.049 C 
ATOM     15  C   UNL     1      33.434 -21.157 -19.475  0.00  0.00    +0.016 C 
ATOM     16  C   UNL     1      35.806 -21.289 -19.035  0.00  0.00    +0.016 C 
ATOM     17  C   UNL     1      33.180 -21.929 -18.342  0.00  0.00    +0.013 C 
ATOM     18  C   UNL     1      35.552 -22.061 -17.900  0.00  0.00    +0.013 C 
ATOM     19  C   UNL     1      34.239 -22.381 -17.554  0.00  0.00    +0.058 C 
ENDBRANCH   1  14
BRANCH   6  20
ATOM     20  C   UNL     1      35.254 -14.507 -21.547  0.00  0.00    +0.074 C 
BRANCH  20  22
ATOM     21  N   UNL     1      31.521 -12.497 -20.916  0.00  0.00    -0.242 NA
ATOM     22  C   UNL     1      33.935 -13.798 -21.324  0.00  0.00    -0.013 C 
ATOM     23  C   UNL     1      33.198 -14.083 -20.195  0.00  0.00    +0.017 C 
ATOM     24  C   UNL     1      33.498 -12.879 -22.256  0.00  0.00    +0.017 C 
ATOM     25  C   UNL     1      31.999 -13.407 -20.037  0.00  0.00    +0.099 C 
ATOM     26  C   UNL     1      32.285 -12.256 -22.005  0.00  0.00    +0.099 C 
ENDBRANCH  20  22
ENDBRANCH   6  20
TORSDOF 3
ENDMDL
MODEL 2
REMARK VINA RESULT:     -10.9      0.758      1.222
REMARK  Name = 151194
REMARK  3 active torsions:
REMARK  status: ('A' for Active; 'I' for Inactive)
REMARK    1  A    between atoms: N_1  and  C_14
REMARK    2  A    between atoms: C_6  and  C_20
REMARK    3  A    between atoms: C_20  and  C_22
REMARK                            x       y       z     vdW  Elec       q    Type
REMARK                         _______ _______ _______ _____ _____    ______ ____
ROOT
ATOM      1  N   UNL     1      34.984 -19.389 -21.371  0.00  0.00    -0.297 N 
ATOM      2  N   UNL     1      35.273 -15.945 -20.319  0.00  0.00    -0.151 NA
ATOM      3  N   UNL     1      35.259 -17.304 -20.303  0.00  0.00    -0.133 NA
ATOM      4  C   UNL     1      34.728 -15.944 -22.669  0.00  0.00    +0.018 A 
ATOM      5  C   UNL     1      34.713 -17.347 -22.653  0.00  0.00    +0.035 A 
ATOM      6  C   UNL     1      35.014 -15.294 -21.474  0.00  0.00    +0.085 A 
ATOM      7  C   UNL     1      34.986 -17.975 -21.444  0.00  0.00    +0.154 A 
ATOM      8  C   UNL     1      34.458 -15.260 -23.867  0.00  0.00    +0.001 C 
ATOM      9  C   UNL     1      34.430 -18.052 -23.835  0.00  0.00    +0.003 C 
ATOM     10  C   UNL     1      34.178 -15.970 -25.035  0.00  0.00    +0.000 C 
ATOM     11  C   UNL     1      34.164 -17.364 -25.019  0.00  0.00    +0.000 C 
ATOM     12  H   UNL     1      35.247 -19.829 -22.212  0.00  0.00    +0.154 HD
ENDROOT
BRANCH   1  14
ATOM     13 CL   UNL     1      33.706 -23.170 -16.997  0.00  0.00    -0.082 Cl
ATOM     14  C   UNL     1      34.682 -20.286 -20.333  0.00  0.00    +0.049 C 
ATOM     15  C   UNL     1      33.365 -20.426 -19.887  0.00  0.00    +0.016 C 
ATOM     16  C   UNL     1      35.696 -21.042 -19.740  0.00  0.00    +0.016 C 
ATOM     17  C   UNL     1      33.063 -21.317 -18.857  0.00  0.00    +0.013 C 
ATOM     18  C   UNL     1      35.395 -21.934 -18.709  0.00  0.00    +0.013 C 
ATOM     19  C   UNL     1      34.079 -22.071 -18.268  0.00  0.00    +0.058 C 
ENDBRANCH   1  14
BRANCH   6  20
ATOM     20  C   UNL     1      35.056 -13.804 -21.378  0.00  0.00    +0.074 C 
BRANCH  20  22
ATOM     21  N   UNL     1      31.194 -11.979 -21.015  0.00  0.00    -0.242 NA
ATOM     22  C   UNL     1      33.692 -13.159 -21.250  0.00  0.00    -0.013 C 
ATOM     23  C   UNL     1      33.369 -12.096 -22.066  0.00  0.00    +0.017 C 
ATOM     24  C   UNL     1      32.799 -13.648 -20.319  0.00  0.00    +0.017 C 
ATOM     25  C   UNL     1      32.109 -11.542 -21.910  0.00  0.00    +0.099 C 
ATOM     26  C   UNL     1      31.565 -13.024 -20.241  0.00  0.00    +0.099 C 
ENDBRANCH  20  22
ENDBRANCH   6  20
TORSDOF 3
ENDMDL
MODEL 3
REMARK VINA RESULT:     -10.8      4.874      9.440
REMARK  Name = 151194
REMARK  3 active torsions:
REMARK  status: ('A' for Active; 'I' for Inactive)
REMARK    1  A    between atoms: N_1  and  C_14
REMARK    2  A    between atoms: C_6  and  C_20
REMARK    3  A    between atoms: C_20  and  C_22
REMARK                            x       y       z     vdW  Elec       q    Type
REMARK                         _______ _______ _______ _____ _____    ______ ____
ROOT
ATOM      1  N   UNL     1      35.268 -22.236 -17.943  0.00  0.00    -0.297 N 
ATOM      2  N   UNL     1      32.078 -23.094 -16.479  0.00  0.00    -0.151 NA
ATOM      3  N   UNL     1      33.024 -22.667 -17.356  0.00  0.00    -0.133 NA
ATOM      4  C   UNL     1      33.783 -23.579 -14.842  0.00  0.00    +0.018 A 
ATOM      5  C   UNL     1      34.760 -23.137 -15.749  0.00  0.00    +0.035 A 
ATOM      6  C   UNL     1      32.458 -23.535 -15.260  0.00  0.00    +0.085 A 
ATOM      7  C   UNL     1      34.324 -22.692 -16.991  0.00  0.00    +0.154 A 
ATOM      8  C   UNL     1      34.171 -24.038 -13.572  0.00  0.00    +0.001 C 
ATOM      9  C   UNL     1      36.114 -23.161 -15.375  0.00  0.00    +0.003 C 
ATOM     10  C   UNL     1      35.519 -24.057 -13.212  0.00  0.00    +0.000 C 
ATOM     11  C   UNL     1      36.489 -23.619 -14.113  0.00  0.00    +0.000 C 
ATOM     12  H   UNL     1      36.147 -22.672 -17.870  0.00  0.00    +0.154 HD
ENDROOT
BRANCH   1  14
ATOM     13 CL   UNL     1      34.946 -18.219 -22.281  0.00  0.00    -0.082 Cl
ATOM     14  C   UNL     1      35.192 -21.283 -18.973  0.00  0.00    +0.049 C 
ATOM     15  C   UNL     1      33.951 -20.917 -19.502  0.00  0.00    +0.016 C 
ATOM     16  C   UNL     1      36.357 -20.696 -19.474  0.00  0.00    +0.016 C 
ATOM     17  C   UNL     1      33.875 -19.971 -20.523  0.00  0.00    +0.013 C 
ATOM     18  C   UNL     1      36.281 -19.749 -20.496  0.00  0.00    +0.013 C 
ATOM     19  C   UNL     1      35.041 -19.387 -21.021  0.00  0.00    +0.058 C 
ENDBRANCH   1  14
BRANCH   6  20
ATOM     20  C   UNL     1      31.339 -23.981 -14.376  0.00  0.00    +0.074 C 
BRANCH  20  22
ATOM     21  N   UNL     1      27.444 -23.161 -15.966  0.00  0.00    -0.242 NA
ATOM     22  C   UNL     1      29.962 -23.692 -14.938  0.00  0.00    -0.013 C 
ATOM     23  C   UNL     1      29.344 -22.500 -14.625  0.00  0.00    +0.017 C 
ATOM     24  C   UNL     1      29.355 -24.626 -15.750  0.00  0.00    +0.017 C 
ATOM     25  C   UNL     1      28.086 -22.282 -15.164  0.00  0.00    +0.099 C 
ATOM     26  C   UNL     1      28.097 -24.314 -16.239  0.00  0.00    +0.099 C 
ENDBRANCH  20  22
ENDBRANCH   6  20
TORSDOF 3
ENDMDL
MODEL 4
REMARK VINA RESULT:     -10.1      3.616      7.807
REMARK  Name = 151194
REMARK  3 active torsions:
REMARK  status: ('A' for Active; 'I' for Inactive)
REMARK    1  A    between atoms: N_1  and  C_14
REMARK    2  A    between atoms: C_6  and  C_20
REMARK    3  A    between atoms: C_20  and  C_22
REMARK                            x       y       z     vdW  Elec       q    Type
REMARK                         _______ _______ _______ _____ _____    ______ ____
ROOT
ATOM      1  N   UNL     1      32.472 -12.981 -22.064  0.00  0.00    -0.297 N 
ATOM      2  N   UNL     1      34.851 -15.244 -20.555  0.00  0.00    -0.151 NA
ATOM      3  N   UNL     1      33.938 -14.251 -20.720  0.00  0.00    -0.133 NA
ATOM      4  C   UNL     1      34.711 -15.793 -22.900  0.00  0.00    +0.018 A 
ATOM      5  C   UNL     1      33.769 -14.767 -23.071  0.00  0.00    +0.035 A 
ATOM      6  C   UNL     1      35.219 -15.988 -21.621  0.00  0.00    +0.085 A 
ATOM      7  C   UNL     1      33.419 -14.028 -21.947  0.00  0.00    +0.154 A 
ATOM      8  C   UNL     1      35.100 -16.571 -24.004  0.00  0.00    +0.001 C 
ATOM      9  C   UNL     1      33.225 -14.530 -24.344  0.00  0.00    +0.003 C 
ATOM     10  C   UNL     1      34.553 -16.326 -25.264  0.00  0.00    +0.000 C 
ATOM     11  C   UNL     1      33.617 -15.307 -25.434  0.00  0.00    +0.000 C 
ATOM     12  H   UNL     1      31.803 -13.128 -22.770  0.00  0.00    +0.154 HD
ENDROOT
BRANCH   1  14
ATOM     13 CL   UNL     1      31.756  -7.891 -19.124  0.00  0.00    -0.082 Cl
ATOM     14  C   UNL     1      32.303 -11.774 -21.366  0.00  0.00    +0.049 C 
ATOM     15  C   UNL     1      32.448 -10.552 -22.029  0.00  0.00    +0.016 C 
ATOM     16  C   UNL     1      31.989 -11.787 -20.004  0.00  0.00    +0.016 C 
ATOM     17  C   UNL     1      32.278  -9.353 -21.337  0.00  0.00    +0.013 C 
ATOM     18  C   UNL     1      31.819 -10.588 -19.311  0.00  0.00    +0.013 C 
ATOM     19  C   UNL     1      31.964  -9.371 -19.978  0.00  0.00    +0.058 C 
ENDBRANCH   1  14
BRANCH   6  20
ATOM     20  C   UNL     1      36.227 -17.051 -21.326  0.00  0.00    +0.074 C 
BRANCH  20  22
ATOM     21  N   UNL     1      34.515 -20.721 -19.922  0.00  0.00    -0.242 NA
ATOM     22  C   UNL     1      35.622 -18.348 -20.829  0.00  0.00    -0.013 C 
ATOM     23  C   UNL     1      34.268 -18.560 -20.976  0.00  0.00    +0.017 C 
ATOM     24  C   UNL     1      36.439 -19.291 -20.241  0.00  0.00    +0.017 C 
ATOM     25  C   UNL     1      33.764 -19.762 -20.506  0.00  0.00    +0.099 C 
ATOM     26  C   UNL     1      35.837 -20.460 -19.804  0.00  0.00    +0.099 C 
ENDBRANCH  20  22
ENDBRANCH   6  20
TORSDOF 3
ENDMDL
MODEL 5
REMARK VINA RESULT:     -10.0      4.236      8.767
REMARK  Name = 151194
REMARK  3 active torsions:
REMARK  status: ('A' for Active; 'I' for Inactive)
REMARK    1  A    between atoms: N_1  and  C_14
REMARK    2  A    between atoms: C_6  and  C_20
REMARK    3  A    between atoms: C_20  and  C_22
REMARK                            x       y       z     vdW  Elec       q    Type
REMARK                         _______ _______ _______ _____ _____    ______ ____
ROOT
ATOM      1  N   UNL     1      36.128 -20.931 -19.166  0.00  0.00    -0.297 N 
ATOM      2  N   UNL     1      33.324 -22.953 -18.115  0.00  0.00    -0.151 NA
ATOM      3  N   UNL     1      34.140 -22.165 -18.864  0.00  0.00    -0.133 NA
ATOM      4  C   UNL     1      34.906 -22.902 -16.295  0.00  0.00    +0.018 A 
ATOM      5  C   UNL     1      35.749 -22.088 -17.068  0.00  0.00    +0.035 A 
ATOM      6  C   UNL     1      33.706 -23.305 -16.868  0.00  0.00    +0.085 A 
ATOM      7  C   UNL     1      35.316 -21.750 -18.344  0.00  0.00    +0.154 A 
ATOM      8  C   UNL     1      35.296 -23.272 -14.997  0.00  0.00    +0.001 C 
ATOM      9  C   UNL     1      36.973 -21.653 -16.534  0.00  0.00    +0.003 C 
ATOM     10  C   UNL     1      36.515 -22.835 -14.477  0.00  0.00    +0.000 C 
ATOM     11  C   UNL     1      37.352 -22.026 -15.244  0.00  0.00    +0.000 C 
ATOM     12  H   UNL     1      37.092 -21.031 -18.996  0.00  0.00    +0.154 HD
ENDROOT
BRANCH   1  14
ATOM     13 CL   UNL     1      34.849 -17.030 -23.433  0.00  0.00    -0.082 Cl
ATOM     14  C   UNL     1      35.824 -20.006 -20.178  0.00  0.00    +0.049 C 
ATOM     15  C   UNL     1      36.774 -19.061 -20.575  0.00  0.00    +0.016 C 
ATOM     16  C   UNL     1      34.569 -20.023 -20.793  0.00  0.00    +0.016 C 
ATOM     17  C   UNL     1      36.474 -18.142 -21.581  0.00  0.00    +0.013 C 
ATOM     18  C   UNL     1      34.267 -19.105 -21.799  0.00  0.00    +0.013 C 
ATOM     19  C   UNL     1      35.220 -18.164 -22.192  0.00  0.00    +0.058 C 
ENDBRANCH   1  14
BRANCH   6  20
ATOM     20  C   UNL     1      32.734 -24.173 -16.136  0.00  0.00    +0.074 C 
BRANCH  20  22
ATOM     21  N   UNL     1      29.368 -22.051 -14.545  0.00  0.00    -0.242 NA
ATOM     22  C   UNL     1      31.545 -23.423 -15.574  0.00  0.00    -0.013 C 
ATOM     23  C   UNL     1      30.478 -23.136 -16.398  0.00  0.00    +0.017 C 
ATOM     24  C   UNL     1      31.553 -23.042 -14.248  0.00  0.00    +0.017 C 
ATOM     25  C   UNL     1      29.415 -22.448 -15.836  0.00  0.00    +0.099 C 
ATOM     26  C   UNL     1      30.442 -22.358 -13.782  0.00  0.00    +0.099 C 
ENDBRANCH  20  22
ENDBRANCH   6  20
TORSDOF 3
ENDMDL
MODEL 6
REMARK VINA RESULT:      -9.6      4.703      8.912
REMARK  Name = 151194
REMARK  3 active torsions:
REMARK  status: ('A' for Active; 'I' for Inactive)
REMARK    1  A    between atoms: N_1  and  C_14
REMARK    2  A    between atoms: C_6  and  C_20
REMARK    3  A    between atoms: C_20  and  C_22
REMARK                            x       y       z     vdW  Elec       q    Type
REMARK                         _______ _______ _______ _____ _____    ______ ____
ROOT
ATOM      1  N   UNL     1      34.925 -25.144 -14.099  0.00  0.00    -0.297 N 
ATOM      2  N   UNL     1      34.105 -23.367 -17.136  0.00  0.00    -0.151 NA
ATOM      3  N   UNL     1      34.768 -24.117 -16.217  0.00  0.00    -0.133 NA
ATOM      4  C   UNL     1      32.252 -23.099 -15.614  0.00  0.00    +0.018 A 
ATOM      5  C   UNL     1      32.937 -23.873 -14.665  0.00  0.00    +0.035 A 
ATOM      6  C   UNL     1      32.883 -22.877 -16.833  0.00  0.00    +0.085 A 
ATOM      7  C   UNL     1      34.191 -24.357 -15.019  0.00  0.00    +0.154 A 
ATOM      8  C   UNL     1      30.981 -22.585 -15.306  0.00  0.00    +0.001 C 
ATOM      9  C   UNL     1      32.343 -24.127 -13.417  0.00  0.00    +0.003 C 
ATOM     10  C   UNL     1      30.401 -22.844 -14.063  0.00  0.00    +0.000 C 
ATOM     11  C   UNL     1      31.081 -23.613 -13.120  0.00  0.00    +0.000 C 
ATOM     12  H   UNL     1      34.360 -25.672 -13.490  0.00  0.00    +0.154 HD
ENDROOT
BRANCH   1  14
ATOM     13 CL   UNL     1      40.733 -25.873 -13.206  0.00  0.00    -0.082 Cl
ATOM     14  C   UNL     1      36.303 -25.317 -13.887  0.00  0.00    +0.049 C 
ATOM     15  C   UNL     1      36.982 -26.369 -14.505  0.00  0.00    +0.016 C 
ATOM     16  C   UNL     1      37.002 -24.438 -13.055  0.00  0.00    +0.016 C 
ATOM     17  C   UNL     1      38.351 -26.541 -14.296  0.00  0.00    +0.013 C 
ATOM     18  C   UNL     1      38.371 -24.609 -12.844  0.00  0.00    +0.013 C 
ATOM     19  C   UNL     1      39.045 -25.661 -13.465  0.00  0.00    +0.058 C 
ENDBRANCH   1  14
BRANCH   6  20
ATOM     20  C   UNL     1      32.245 -22.068 -17.914  0.00  0.00    +0.074 C 
BRANCH  20  22
ATOM     21  N   UNL     1      35.047 -20.093 -20.487  0.00  0.00    -0.242 NA
ATOM     22  C   UNL     1      33.235 -21.370 -18.823  0.00  0.00    -0.013 C 
ATOM     23  C   UNL     1      32.774 -20.456 -19.747  0.00  0.00    +0.017 C 
ATOM     24  C   UNL     1      34.578 -21.664 -18.709  0.00  0.00    +0.017 C 
ATOM     25  C   UNL     1      33.720 -19.845 -20.554  0.00  0.00    +0.099 C 
ATOM     26  C   UNL     1      35.442 -20.999 -19.563  0.00  0.00    +0.099 C 
ENDBRANCH  20  22
ENDBRANCH   6  20
TORSDOF 3
ENDMDL
MODEL 7
REMARK VINA RESULT:      -9.5      5.360      9.072
REMARK  Name = 151194
REMARK  3 active torsions:
REMARK  status: ('A' for Active; 'I' for Inactive)
REMARK    1  A    between atoms: N_1  and  C_14
REMARK    2  A    between atoms: C_6  and  C_20
REMARK    3  A    between atoms: C_20  and  C_22
REMARK                            x       y       z     vdW  Elec       q    Type
REMARK                         _______ _______ _______ _____ _____    ______ ____
ROOT
ATOM      1  N   UNL     1      32.463 -11.936 -22.364  0.00  0.00    -0.297 N 
ATOM      2  N   UNL     1      34.056  -8.853 -23.369  0.00  0.00    -0.151 NA
ATOM      3  N   UNL     1      33.646 -10.148 -23.349  0.00  0.00    -0.133 NA
ATOM      4  C   UNL     1      32.866  -8.420 -21.316  0.00  0.00    +0.018 A 
ATOM      5  C   UNL     1      32.442  -9.758 -21.296  0.00  0.00    +0.035 A 
ATOM      6  C   UNL     1      33.671  -8.021 -22.377  0.00  0.00    +0.085 A 
ATOM      7  C   UNL     1      32.862 -10.577 -22.336  0.00  0.00    +0.154 A 
ATOM      8  C   UNL     1      32.470  -7.549 -20.287  0.00  0.00    +0.001 C 
ATOM      9  C   UNL     1      31.626 -10.211 -20.245  0.00  0.00    +0.003 C 
ATOM     10  C   UNL     1      31.659  -8.010 -19.249  0.00  0.00    +0.000 C 
ATOM     11  C   UNL     1      31.238  -9.339 -19.228  0.00  0.00    +0.000 C 
ATOM     12  H   UNL     1      31.588 -12.100 -21.945  0.00  0.00    +0.154 HD
ENDROOT
BRANCH   1  14
ATOM     13 CL   UNL     1      35.039 -16.814 -24.515  0.00  0.00    -0.082 Cl
ATOM     14  C   UNL     1      33.074 -13.093 -22.874  0.00  0.00    +0.049 C 
ATOM     15  C   UNL     1      32.791 -13.524 -24.173  0.00  0.00    +0.016 C 
ATOM     16  C   UNL     1      33.968 -13.822 -22.085  0.00  0.00    +0.016 C 
ATOM     17  C   UNL     1      33.397 -14.672 -24.680  0.00  0.00    +0.013 C 
ATOM     18  C   UNL     1      34.576 -14.971 -22.592  0.00  0.00    +0.013 C 
ATOM     19  C   UNL     1      34.290 -15.396 -23.889  0.00  0.00    +0.058 C 
ENDBRANCH   1  14
BRANCH   6  20
ATOM     20  C   UNL     1      34.178  -6.621 -22.499  0.00  0.00    +0.074 C 
BRANCH  20  22
ATOM     21  N   UNL     1      32.336  -4.375 -25.650  0.00  0.00    -0.242 NA
ATOM     22  C   UNL     1      33.527  -5.828 -23.612  0.00  0.00    -0.013 C 
ATOM     23  C   UNL     1      32.191  -5.501 -23.515  0.00  0.00    +0.017 C 
ATOM     24  C   UNL     1      34.284  -5.448 -24.701  0.00  0.00    +0.017 C 
ATOM     25  C   UNL     1      31.643  -4.774 -24.560  0.00  0.00    +0.099 C 
ATOM     26  C   UNL     1      33.642  -4.724 -25.692  0.00  0.00    +0.099 C 
ENDBRANCH  20  22
ENDBRANCH   6  20
TORSDOF 3
ENDMDL
MODEL 8
REMARK VINA RESULT:      -9.5      5.343      9.111
REMARK  Name = 151194
REMARK  3 active torsions:
REMARK  status: ('A' for Active; 'I' for Inactive)
REMARK    1  A    between atoms: N_1  and  C_14
REMARK    2  A    between atoms: C_6  and  C_20
REMARK    3  A    between atoms: C_20  and  C_22
REMARK                            x       y       z     vdW  Elec       q    Type
REMARK                         _______ _______ _______ _____ _____    ______ ____
ROOT
ATOM      1  N   UNL     1      32.472 -11.959 -22.373  0.00  0.00    -0.297 N 
ATOM      2  N   UNL     1      34.064  -8.872 -23.369  0.00  0.00    -0.151 NA
ATOM      3  N   UNL     1      33.656 -10.169 -23.352  0.00  0.00    -0.133 NA
ATOM      4  C   UNL     1      32.866  -8.444 -21.319  0.00  0.00    +0.018 A 
ATOM      5  C   UNL     1      32.445  -9.782 -21.302  0.00  0.00    +0.035 A 
ATOM      6  C   UNL     1      33.675  -8.043 -22.377  0.00  0.00    +0.085 A 
ATOM      7  C   UNL     1      32.869 -10.600 -22.342  0.00  0.00    +0.154 A 
ATOM      8  C   UNL     1      32.466  -7.575 -20.290  0.00  0.00    +0.001 C 
ATOM      9  C   UNL     1      31.626 -10.238 -20.254  0.00  0.00    +0.003 C 
ATOM     10  C   UNL     1      31.653  -8.039 -19.255  0.00  0.00    +0.000 C 
ATOM     11  C   UNL     1      31.234  -9.368 -19.237  0.00  0.00    +0.000 C 
ATOM     12  H   UNL     1      31.596 -12.126 -21.957  0.00  0.00    +0.154 HD
ENDROOT
BRANCH   1  14
ATOM     13 CL   UNL     1      35.059 -16.833 -24.520  0.00  0.00    -0.082 Cl
ATOM     14  C   UNL     1      33.086 -13.115 -22.883  0.00  0.00    +0.049 C 
ATOM     15  C   UNL     1      33.962 -13.856 -22.085  0.00  0.00    +0.016 C 
ATOM     16  C   UNL     1      32.825 -13.531 -24.191  0.00  0.00    +0.016 C 
ATOM     17  C   UNL     1      34.571 -15.004 -22.590  0.00  0.00    +0.013 C 
ATOM     18  C   UNL     1      33.434 -14.680 -24.698  0.00  0.00    +0.013 C 
ATOM     19  C   UNL     1      34.307 -15.416 -23.897  0.00  0.00    +0.058 C 
ENDBRANCH   1  14
BRANCH   6  20
ATOM     20  C   UNL     1      34.180  -6.642 -22.495  0.00  0.00    +0.074 C 
BRANCH  20  22
ATOM     21  N   UNL     1      32.376  -4.411 -25.680  0.00  0.00    -0.242 NA
ATOM     22  C   UNL     1      33.543  -5.853 -23.620  0.00  0.00    -0.013 C 
ATOM     23  C   UNL     1      34.311  -5.484 -24.704  0.00  0.00    +0.017 C 
ATOM     24  C   UNL     1      32.207  -5.520 -23.538  0.00  0.00    +0.017 C 
ATOM     25  C   UNL     1      33.681  -4.765 -25.707  0.00  0.00    +0.099 C 
ATOM     26  C   UNL     1      31.671  -4.799 -24.593  0.00  0.00    +0.099 C 
ENDBRANCH  20  22
ENDBRANCH   6  20
TORSDOF 3
ENDMDL
MODEL 9
REMARK VINA RESULT:      -9.5      2.347      3.739
REMARK  Name = 151194
REMARK  3 active torsions:
REMARK  status: ('A' for Active; 'I' for Inactive)
REMARK    1  A    between atoms: N_1  and  C_14
REMARK    2  A    between atoms: C_6  and  C_20
REMARK    3  A    between atoms: C_20  and  C_22
REMARK                            x       y       z     vdW  Elec       q    Type
REMARK                         _______ _______ _______ _____ _____    ______ ____
ROOT
ATOM      1  N   UNL     1      35.537 -16.980 -22.462  0.00  0.00    -0.297 N 
ATOM      2  N   UNL     1      33.826 -14.180 -20.951  0.00  0.00    -0.151 NA
ATOM      3  N   UNL     1      34.566 -15.308 -21.110  0.00  0.00    -0.133 NA
ATOM      4  C   UNL     1      33.468 -14.050 -23.333  0.00  0.00    +0.018 A 
ATOM      5  C   UNL     1      34.233 -15.215 -23.498  0.00  0.00    +0.035 A 
ATOM      6  C   UNL     1      33.297 -13.576 -22.038  0.00  0.00    +0.085 A 
ATOM      7  C   UNL     1      34.758 -15.802 -22.353  0.00  0.00    +0.154 A 
ATOM      8  C   UNL     1      32.915 -13.417 -24.459  0.00  0.00    +0.001 C 
ATOM      9  C   UNL     1      34.437 -15.735 -24.787  0.00  0.00    +0.003 C 
ATOM     10  C   UNL     1      33.123 -13.942 -25.735  0.00  0.00    +0.000 C 
ATOM     11  C   UNL     1      33.883 -15.100 -25.899  0.00  0.00    +0.000 C 
ATOM     12  H   UNL     1      36.034 -17.049 -23.309  0.00  0.00    +0.154 HD
ENDROOT
BRANCH   1  14
ATOM     13 CL   UNL     1      36.390 -21.562 -18.811  0.00  0.00    -0.082 Cl
ATOM     14  C   UNL     1      35.739 -18.067 -21.596  0.00  0.00    +0.049 C 
ATOM     15  C   UNL     1      37.019 -18.353 -21.114  0.00  0.00    +0.016 C 
ATOM     16  C   UNL     1      34.661 -18.870 -21.213  0.00  0.00    +0.016 C 
ATOM     17  C   UNL     1      37.220 -19.432 -20.254  0.00  0.00    +0.013 C 
ATOM     18  C   UNL     1      34.862 -19.950 -20.352  0.00  0.00    +0.013 C 
ATOM     19  C   UNL     1      36.141 -20.231 -19.873  0.00  0.00    +0.058 C 
ENDBRANCH   1  14
BRANCH   6  20
ATOM     20  C   UNL     1      32.502 -12.344 -21.748  0.00  0.00    +0.074 C 
BRANCH  20  22
ATOM     21  N   UNL     1      34.076  -8.796 -23.565  0.00  0.00    -0.242 NA
ATOM     22  C   UNL     1      33.058 -11.091 -22.389  0.00  0.00    -0.013 C 
ATOM     23  C   UNL     1      34.217 -11.171 -23.133  0.00  0.00    +0.017 C 
ATOM     24  C   UNL     1      32.394  -9.894 -22.218  0.00  0.00    +0.017 C 
ATOM     25  C   UNL     1      34.684  -9.996 -23.699  0.00  0.00    +0.099 C 
ATOM     26  C   UNL     1      32.943  -8.777 -22.826  0.00  0.00    +0.099 C 
ENDBRANCH  20  22
ENDBRANCH   6  20
TORSDOF 3
ENDMDL
