MODEL 1
REMARK VINA RESULT:     -12.1      0.000      0.000
REMARK  Name = 44129603
REMARK  3 active torsions:
REMARK  status: ('A' for Active; 'I' for Inactive)
REMARK    1  A    between atoms: N_5  and  C_17
REMARK    2  A    between atoms: C_12  and  C_24
REMARK    3  A    between atoms: C_24  and  O_25
REMARK                            x       y       z     vdW  Elec       q    Type
REMARK                         _______ _______ _______ _____ _____    ______ ____
ROOT
ATOM      1  N   UNL     1      36.663 -22.775 -14.745  0.00  0.00    -0.246 N 
ATOM      2  N   UNL     1      37.639 -22.854 -13.817  0.00  0.00    -0.163 NA
ATOM      3  N   UNL     1      34.067 -22.694 -16.181  0.00  0.00    -0.336 NA
ATOM      4  N   UNL     1      31.758 -23.400 -16.200  0.00  0.00    -0.170 NA
ATOM      5  N   UNL     1      32.676 -22.216 -18.007  0.00  0.00    -0.247 N 
ATOM      6  C   UNL     1      34.512 -23.996 -12.109  0.00  0.00    +0.035 C 
ATOM      7  C   UNL     1      35.637 -23.536 -12.966  0.00  0.00    +0.024 A 
ATOM      8  C   UNL     1      33.356 -24.590 -12.960  0.00  0.00    +0.035 C 
ATOM      9  C   UNL     1      35.448 -23.179 -14.283  0.00  0.00    +0.106 A 
ATOM     10  C   UNL     1      33.137 -23.903 -14.292  0.00  0.00    +0.030 C 
ATOM     11  C   UNL     1      34.177 -23.258 -14.965  0.00  0.00    +0.158 C 
ATOM     12  C   UNL     1      37.004 -23.316 -12.732  0.00  0.00    +0.174 A 
ATOM     13  C   UNL     1      31.939 -23.950 -14.979  0.00  0.00    +0.110 C 
ATOM     14  C   UNL     1      36.997 -22.271 -16.057  0.00  0.00    +0.154 C 
ATOM     15  C   UNL     1      32.843 -22.799 -16.732  0.00  0.00    +0.149 C 
ATOM     16  H   UNL     1      31.766 -22.314 -18.371  0.00  0.00    +0.165 HD
ENDROOT
BRANCH   5  17
ATOM     17  C   UNL     1      33.553 -21.520 -18.859  0.00  0.00    +0.058 C 
ATOM     18  C   UNL     1      33.060 -20.539 -19.718  0.00  0.00    +0.015 C 
ATOM     19  C   UNL     1      34.917 -21.813 -18.843  0.00  0.00    +0.015 C 
ATOM     20  C   UNL     1      33.930 -19.849 -20.562  0.00  0.00    +0.001 C 
ATOM     21  C   UNL     1      35.788 -21.123 -19.688  0.00  0.00    +0.001 C 
ATOM     22  C   UNL     1      35.294 -20.141 -20.547  0.00  0.00    +0.000 C 
ENDBRANCH   5  17
BRANCH  12  24
ATOM     23  O   UNL     1      37.676 -24.549 -10.796  0.00  0.00    -0.243 OA
ATOM     24  C   UNL     1      37.738 -23.535 -11.519  0.00  0.00    +0.357 C 
BRANCH  24  25
ATOM     25  O   UNL     1      38.560 -22.492 -11.189  0.00  0.00    -0.476 OA
ATOM     26  H   UNL     1      38.568 -22.160 -10.312  0.00  0.00    +0.295 HD
ENDBRANCH  24  25
ENDBRANCH  12  24
TORSDOF 3
ENDMDL
MODEL 2
REMARK VINA RESULT:     -10.4     11.629     14.638
REMARK  Name = 44129603
REMARK  3 active torsions:
REMARK  status: ('A' for Active; 'I' for Inactive)
REMARK    1  A    between atoms: N_5  and  C_17
REMARK    2  A    between atoms: C_12  and  C_24
REMARK    3  A    between atoms: C_24  and  O_25
REMARK                            x       y       z     vdW  Elec       q    Type
REMARK                         _______ _______ _______ _____ _____    ______ ____
ROOT
ATOM      1  N   UNL     1      33.506 -11.794 -23.743  0.00  0.00    -0.246 N 
ATOM      2  N   UNL     1      34.042 -12.890 -24.316  0.00  0.00    -0.163 NA
ATOM      3  N   UNL     1      32.419  -9.784 -21.849  0.00  0.00    -0.336 NA
ATOM      4  N   UNL     1      31.325  -9.407 -19.728  0.00  0.00    -0.170 NA
ATOM      5  N   UNL     1      31.751  -7.631 -21.204  0.00  0.00    -0.247 N 
ATOM      6  C   UNL     1      33.163 -13.891 -20.819  0.00  0.00    +0.035 C 
ATOM      7  C   UNL     1      33.416 -13.308 -22.164  0.00  0.00    +0.024 A 
ATOM      8  C   UNL     1      32.034 -13.128 -20.073  0.00  0.00    +0.035 C 
ATOM      9  C   UNL     1      33.110 -11.998 -22.457  0.00  0.00    +0.106 A 
ATOM     10  C   UNL     1      32.004 -11.636 -20.332  0.00  0.00    +0.030 C 
ATOM     11  C   UNL     1      32.483 -11.089 -21.525  0.00  0.00    +0.158 C 
ATOM     12  C   UNL     1      33.988 -13.811 -23.344  0.00  0.00    +0.174 A 
ATOM     13  C   UNL     1      31.418 -10.730 -19.470  0.00  0.00    +0.110 C 
ATOM     14  C   UNL     1      33.437 -10.575 -24.516  0.00  0.00    +0.154 C 
ATOM     15  C   UNL     1      31.836  -9.011 -20.913  0.00  0.00    +0.149 C 
ATOM     16  H   UNL     1      31.321  -7.103 -20.493  0.00  0.00    +0.165 HD
ENDROOT
BRANCH   5  17
ATOM     17  C   UNL     1      32.162  -6.863 -22.308  0.00  0.00    +0.058 C 
ATOM     18  C   UNL     1      31.239  -6.500 -23.287  0.00  0.00    +0.015 C 
ATOM     19  C   UNL     1      33.494  -6.466 -22.423  0.00  0.00    +0.015 C 
ATOM     20  C   UNL     1      31.646  -5.737 -24.383  0.00  0.00    +0.001 C 
ATOM     21  C   UNL     1      33.902  -5.703 -23.519  0.00  0.00    +0.001 C 
ATOM     22  C   UNL     1      32.978  -5.339 -24.498  0.00  0.00    +0.000 C 
ENDBRANCH   5  17
BRANCH  12  24
ATOM     23  O   UNL     1      33.926 -16.006 -24.292  0.00  0.00    -0.243 OA
ATOM     24  C   UNL     1      34.479 -15.136 -23.592  0.00  0.00    +0.357 C 
BRANCH  24  25
ATOM     25  O   UNL     1      35.669 -15.396 -22.967  0.00  0.00    -0.476 OA
ATOM     26  H   UNL     1      36.330 -14.733 -22.923  0.00  0.00    +0.295 HD
ENDBRANCH  24  25
ENDBRANCH  12  24
TORSDOF 3
ENDMDL
MODEL 3
REMARK VINA RESULT:     -10.2      7.878     11.353
REMARK  Name = 44129603
REMARK  3 active torsions:
REMARK  status: ('A' for Active; 'I' for Inactive)
REMARK    1  A    between atoms: N_5  and  C_17
REMARK    2  A    between atoms: C_12  and  C_24
REMARK    3  A    between atoms: C_24  and  O_25
REMARK                            x       y       z     vdW  Elec       q    Type
REMARK                         _______ _______ _______ _____ _____    ______ ____
ROOT
ATOM      1  N   UNL     1      34.948 -15.653 -20.692  0.00  0.00    -0.246 N 
ATOM      2  N   UNL     1      35.502 -16.723 -20.088  0.00  0.00    -0.163 NA
ATOM      3  N   UNL     1      33.591 -13.798 -22.570  0.00  0.00    -0.336 NA
ATOM      4  N   UNL     1      33.066 -13.301 -24.875  0.00  0.00    -0.170 NA
ATOM      5  N   UNL     1      32.482 -11.817 -23.152  0.00  0.00    -0.247 N 
ATOM      6  C   UNL     1      34.959 -17.727 -23.652  0.00  0.00    +0.035 C 
ATOM      7  C   UNL     1      35.110 -17.134 -22.296  0.00  0.00    +0.024 A 
ATOM      8  C   UNL     1      34.902 -16.629 -24.748  0.00  0.00    +0.035 C 
ATOM      9  C   UNL     1      34.702 -15.849 -22.016  0.00  0.00    +0.106 A 
ATOM     10  C   UNL     1      34.192 -15.358 -24.333  0.00  0.00    +0.030 C 
ATOM     11  C   UNL     1      34.141 -14.950 -22.998  0.00  0.00    +0.158 C 
ATOM     12  C   UNL     1      35.595 -17.626 -21.073  0.00  0.00    +0.174 A 
ATOM     13  C   UNL     1      33.639 -14.471 -25.235  0.00  0.00    +0.110 C 
ATOM     14  C   UNL     1      34.669 -14.479 -19.896  0.00  0.00    +0.154 C 
ATOM     15  C   UNL     1      33.077 -13.033 -23.552  0.00  0.00    +0.149 C 
ATOM     16  H   UNL     1      32.117 -11.290 -23.900  0.00  0.00    +0.165 HD
ENDROOT
BRANCH   5  17
ATOM     17  C   UNL     1      32.306 -11.209 -21.896  0.00  0.00    +0.058 C 
ATOM     18  C   UNL     1      32.120 -11.997 -20.760  0.00  0.00    +0.015 C 
ATOM     19  C   UNL     1      32.319  -9.819 -21.786  0.00  0.00    +0.015 C 
ATOM     20  C   UNL     1      31.947 -11.394 -19.513  0.00  0.00    +0.001 C 
ATOM     21  C   UNL     1      32.147  -9.216 -20.539  0.00  0.00    +0.001 C 
ATOM     22  C   UNL     1      31.960 -10.003 -19.404  0.00  0.00    +0.000 C 
ENDBRANCH   5  17
BRANCH  12  24
ATOM     23  O   UNL     1      35.518 -19.989 -20.710  0.00  0.00    -0.243 OA
ATOM     24  C   UNL     1      36.152 -18.920 -20.802  0.00  0.00    +0.357 C 
BRANCH  24  25
ATOM     25  O   UNL     1      37.512 -18.899 -20.641  0.00  0.00    -0.476 OA
ATOM     26  H   UNL     1      38.027 -19.634 -20.911  0.00  0.00    +0.295 HD
ENDBRANCH  24  25
ENDBRANCH  12  24
TORSDOF 3
ENDMDL
MODEL 4
REMARK VINA RESULT:     -10.0      3.603      6.710
REMARK  Name = 44129603
REMARK  3 active torsions:
REMARK  status: ('A' for Active; 'I' for Inactive)
REMARK    1  A    between atoms: N_5  and  C_17
REMARK    2  A    between atoms: C_12  and  C_24
REMARK    3  A    between atoms: C_24  and  O_25
REMARK                            x       y       z     vdW  Elec       q    Type
REMARK                         _______ _______ _______ _____ _____    ______ ____
ROOT
ATOM      1  N   UNL     1      36.453 -21.610 -17.618  0.00  0.00    -0.246 N 
ATOM      2  N   UNL     1      36.820 -20.838 -18.661  0.00  0.00    -0.163 NA
ATOM      3  N   UNL     1      35.028 -23.419 -15.747  0.00  0.00    -0.336 NA
ATOM      4  N   UNL     1      32.888 -24.243 -14.986  0.00  0.00    -0.170 NA
ATOM      5  N   UNL     1      34.879 -24.877 -13.917  0.00  0.00    -0.247 N 
ATOM      6  C   UNL     1      33.185 -21.569 -19.162  0.00  0.00    +0.035 C 
ATOM      7  C   UNL     1      34.609 -21.378 -18.775  0.00  0.00    +0.024 A 
ATOM      8  C   UNL     1      32.303 -21.905 -17.929  0.00  0.00    +0.035 C 
ATOM      9  C   UNL     1      35.136 -21.952 -17.640  0.00  0.00    +0.106 A 
ATOM     10  C   UNL     1      32.983 -22.761 -16.881  0.00  0.00    +0.030 C 
ATOM     11  C   UNL     1      34.368 -22.742 -16.705  0.00  0.00    +0.158 C 
ATOM     12  C   UNL     1      35.690 -20.703 -19.366  0.00  0.00    +0.174 A 
ATOM     13  C   UNL     1      32.290 -23.532 -15.968  0.00  0.00    +0.110 C 
ATOM     14  C   UNL     1      37.458 -21.988 -16.651  0.00  0.00    +0.154 C 
ATOM     15  C   UNL     1      34.233 -24.142 -14.934  0.00  0.00    +0.149 C 
ATOM     16  H   UNL     1      34.262 -25.392 -13.348  0.00  0.00    +0.165 HD
ENDROOT
BRANCH   5  17
ATOM     17  C   UNL     1      36.232 -25.019 -13.556  0.00  0.00    +0.058 C 
ATOM     18  C   UNL     1      37.046 -25.918 -14.245  0.00  0.00    +0.015 C 
ATOM     19  C   UNL     1      36.757 -24.261 -12.510  0.00  0.00    +0.015 C 
ATOM     20  C   UNL     1      38.388 -26.058 -13.888  0.00  0.00    +0.001 C 
ATOM     21  C   UNL     1      38.099 -24.401 -12.153  0.00  0.00    +0.001 C 
ATOM     22  C   UNL     1      38.914 -25.299 -12.842  0.00  0.00    +0.000 C 
ENDBRANCH   5  17
BRANCH  12  24
ATOM     23  O   UNL     1      34.876 -20.022 -21.509  0.00  0.00    -0.243 OA
ATOM     24  C   UNL     1      35.692 -19.926 -20.572  0.00  0.00    +0.357 C 
BRANCH  24  25
ATOM     25  O   UNL     1      36.713 -19.017 -20.626  0.00  0.00    -0.476 OA
ATOM     26  H   UNL     1      37.264 -18.886 -19.880  0.00  0.00    +0.295 HD
ENDBRANCH  24  25
ENDBRANCH  12  24
TORSDOF 3
ENDMDL
MODEL 5
REMARK VINA RESULT:     -10.0      8.423     12.034
REMARK  Name = 44129603
REMARK  3 active torsions:
REMARK  status: ('A' for Active; 'I' for Inactive)
REMARK    1  A    between atoms: N_5  and  C_17
REMARK    2  A    between atoms: C_12  and  C_24
REMARK    3  A    between atoms: C_24  and  O_25
REMARK                            x       y       z     vdW  Elec       q    Type
REMARK                         _______ _______ _______ _____ _____    ______ ____
ROOT
ATOM      1  N   UNL     1      33.297 -13.895 -20.991  0.00  0.00    -0.246 N 
ATOM      2  N   UNL     1      32.865 -12.794 -20.342  0.00  0.00    -0.163 NA
ATOM      3  N   UNL     1      34.357 -15.823 -22.982  0.00  0.00    -0.336 NA
ATOM      4  N   UNL     1      34.624 -16.351 -25.323  0.00  0.00    -0.170 NA
ATOM      5  N   UNL     1      35.291 -17.865 -23.658  0.00  0.00    -0.247 N 
ATOM      6  C   UNL     1      33.109 -11.825 -23.948  0.00  0.00    +0.035 C 
ATOM      7  C   UNL     1      33.060 -12.408 -22.580  0.00  0.00    +0.024 A 
ATOM      8  C   UNL     1      32.996 -12.925 -25.038  0.00  0.00    +0.035 C 
ATOM      9  C   UNL     1      33.422 -13.713 -22.333  0.00  0.00    +0.106 A 
ATOM     10  C   UNL     1      33.673 -14.233 -24.686  0.00  0.00    +0.030 C 
ATOM     11  C   UNL     1      33.832 -14.643 -23.360  0.00  0.00    +0.158 C 
ATOM     12  C   UNL     1      32.726 -11.888 -21.319  0.00  0.00    +0.174 A 
ATOM     13  C   UNL     1      34.084 -15.152 -25.633  0.00  0.00    +0.110 C 
ATOM     14  C   UNL     1      33.588 -15.081 -20.219  0.00  0.00    +0.154 C 
ATOM     15  C   UNL     1      34.728 -16.617 -24.004  0.00  0.00    +0.149 C 
ATOM     16  H   UNL     1      35.550 -18.411 -24.434  0.00  0.00    +0.165 HD
ENDROOT
BRANCH   5  17
ATOM     17  C   UNL     1      35.556 -18.480 -22.420  0.00  0.00    +0.058 C 
ATOM     18  C   UNL     1      34.577 -19.259 -21.805  0.00  0.00    +0.015 C 
ATOM     19  C   UNL     1      36.799 -18.311 -21.810  0.00  0.00    +0.015 C 
ATOM     20  C   UNL     1      34.840 -19.870 -20.579  0.00  0.00    +0.001 C 
ATOM     21  C   UNL     1      37.062 -18.922 -20.583  0.00  0.00    +0.001 C 
ATOM     22  C   UNL     1      36.082 -19.701 -19.968  0.00  0.00    +0.000 C 
ENDBRANCH   5  17
BRANCH  12  24
ATOM     23  O   UNL     1      32.309  -9.574 -21.757  0.00  0.00    -0.243 OA
ATOM     24  C   UNL     1      32.271 -10.565 -21.002  0.00  0.00    +0.357 C 
BRANCH  24  25
ATOM     25  O   UNL     1      31.761 -10.458 -19.736  0.00  0.00    -0.476 OA
ATOM     26  H   UNL     1      30.859 -10.656 -19.576  0.00  0.00    +0.295 HD
ENDBRANCH  24  25
ENDBRANCH  12  24
TORSDOF 3
ENDMDL
MODEL 6
REMARK VINA RESULT:      -9.7      1.766      4.514
REMARK  Name = 44129603
REMARK  3 active torsions:
REMARK  status: ('A' for Active; 'I' for Inactive)
REMARK    1  A    between atoms: N_5  and  C_17
REMARK    2  A    between atoms: C_12  and  C_24
REMARK    3  A    between atoms: C_24  and  O_25
REMARK                            x       y       z     vdW  Elec       q    Type
REMARK                         _______ _______ _______ _____ _____    ______ ____
ROOT
ATOM      1  N   UNL     1      35.061 -23.667 -13.175  0.00  0.00    -0.246 N 
ATOM      2  N   UNL     1      36.016 -23.932 -12.259  0.00  0.00    -0.163 NA
ATOM      3  N   UNL     1      33.547 -23.119 -15.667  0.00  0.00    -0.336 NA
ATOM      4  N   UNL     1      33.625 -22.231 -17.912  0.00  0.00    -0.170 NA
ATOM      5  N   UNL     1      31.602 -22.952 -16.966  0.00  0.00    -0.247 N 
ATOM      6  C   UNL     1      37.836 -23.026 -15.400  0.00  0.00    +0.035 C 
ATOM      7  C   UNL     1      36.935 -23.333 -14.258  0.00  0.00    +0.024 A 
ATOM      8  C   UNL     1      37.134 -22.121 -16.449  0.00  0.00    +0.035 C 
ATOM      9  C   UNL     1      35.564 -23.298 -14.384  0.00  0.00    +0.106 A 
ATOM     10  C   UNL     1      35.656 -22.394 -16.630  0.00  0.00    +0.030 C 
ATOM     11  C   UNL     1      34.876 -22.921 -15.597  0.00  0.00    +0.158 C 
ATOM     12  C   UNL     1      37.158 -23.730 -12.929  0.00  0.00    +0.174 A 
ATOM     13  C   UNL     1      34.958 -22.054 -17.772  0.00  0.00    +0.110 C 
ATOM     14  C   UNL     1      33.677 -23.821 -12.792  0.00  0.00    +0.154 C 
ATOM     15  C   UNL     1      32.995 -22.757 -16.841  0.00  0.00    +0.149 C 
ATOM     16  H   UNL     1      31.240 -22.677 -17.839  0.00  0.00    +0.165 HD
ENDROOT
BRANCH   5  17
ATOM     17  C   UNL     1      30.629 -23.464 -16.087  0.00  0.00    +0.058 C 
ATOM     18  C   UNL     1      29.342 -22.928 -16.084  0.00  0.00    +0.015 C 
ATOM     19  C   UNL     1      30.953 -24.508 -15.221  0.00  0.00    +0.015 C 
ATOM     20  C   UNL     1      28.377 -23.436 -15.213  0.00  0.00    +0.001 C 
ATOM     21  C   UNL     1      29.988 -25.016 -14.351  0.00  0.00    +0.001 C 
ATOM     22  C   UNL     1      28.701 -24.480 -14.347  0.00  0.00    +0.000 C 
ENDBRANCH   5  17
BRANCH  12  24
ATOM     23  O   UNL     1      39.342 -24.660 -12.640  0.00  0.00    -0.243 OA
ATOM     24  C   UNL     1      38.415 -23.917 -12.264  0.00  0.00    +0.357 C 
BRANCH  24  25
ATOM     25  O   UNL     1      38.534 -23.180 -11.116  0.00  0.00    -0.476 OA
ATOM     26  H   UNL     1      39.028 -22.383 -11.120  0.00  0.00    +0.295 HD
ENDBRANCH  24  25
ENDBRANCH  12  24
TORSDOF 3
ENDMDL
MODEL 7
REMARK VINA RESULT:      -9.5      2.582      4.422
REMARK  Name = 44129603
REMARK  3 active torsions:
REMARK  status: ('A' for Active; 'I' for Inactive)
REMARK    1  A    between atoms: N_5  and  C_17
REMARK    2  A    between atoms: C_12  and  C_24
REMARK    3  A    between atoms: C_24  and  O_25
REMARK                            x       y       z     vdW  Elec       q    Type
REMARK                         _______ _______ _______ _____ _____    ______ ____
ROOT
ATOM      1  N   UNL     1      32.284 -22.990 -16.040  0.00  0.00    -0.246 N 
ATOM      2  N   UNL     1      31.170 -23.557 -15.534  0.00  0.00    -0.163 NA
ATOM      3  N   UNL     1      35.077 -22.275 -16.741  0.00  0.00    -0.336 NA
ATOM      4  N   UNL     1      37.391 -22.293 -16.046  0.00  0.00    -0.170 NA
ATOM      5  N   UNL     1      36.732 -21.233 -18.034  0.00  0.00    -0.247 N 
ATOM      6  C   UNL     1      34.017 -24.938 -13.537  0.00  0.00    +0.035 C 
ATOM      7  C   UNL     1      33.031 -24.264 -14.424  0.00  0.00    +0.024 A 
ATOM      8  C   UNL     1      35.330 -24.117 -13.421  0.00  0.00    +0.035 C 
ATOM      9  C   UNL     1      33.421 -23.377 -15.403  0.00  0.00    +0.106 A 
ATOM     10  C   UNL     1      35.736 -23.394 -14.687  0.00  0.00    +0.030 C 
ATOM     11  C   UNL     1      34.793 -22.984 -15.633  0.00  0.00    +0.158 C 
ATOM     12  C   UNL     1      31.634 -24.338 -14.550  0.00  0.00    +0.174 A 
ATOM     13  C   UNL     1      37.033 -23.000 -14.951  0.00  0.00    +0.110 C 
ATOM     14  C   UNL     1      32.151 -22.093 -17.166  0.00  0.00    +0.154 C 
ATOM     15  C   UNL     1      36.382 -21.970 -16.882  0.00  0.00    +0.149 C 
ATOM     16  H   UNL     1      37.694 -21.033 -18.099  0.00  0.00    +0.165 HD
ENDROOT
BRANCH   5  17
ATOM     17  C   UNL     1      35.977 -20.727 -19.108  0.00  0.00    +0.058 C 
ATOM     18  C   UNL     1      34.644 -21.106 -19.262  0.00  0.00    +0.015 C 
ATOM     19  C   UNL     1      36.563 -19.846 -20.017  0.00  0.00    +0.015 C 
ATOM     20  C   UNL     1      33.895 -20.603 -20.327  0.00  0.00    +0.001 C 
ATOM     21  C   UNL     1      35.813 -19.344 -21.082  0.00  0.00    +0.001 C 
ATOM     22  C   UNL     1      34.480 -19.722 -21.237  0.00  0.00    +0.000 C 
ENDBRANCH   5  17
BRANCH  12  24
ATOM     23  O   UNL     1      29.836 -25.878 -14.207  0.00  0.00    -0.243 OA
ATOM     24  C   UNL     1      30.718 -25.115 -13.766  0.00  0.00    +0.357 C 
BRANCH  24  25
ATOM     25  O   UNL     1      30.887 -24.950 -12.417  0.00  0.00    -0.476 OA
ATOM     26  H   UNL     1      30.247 -25.287 -11.820  0.00  0.00    +0.295 HD
ENDBRANCH  24  25
ENDBRANCH  12  24
TORSDOF 3
ENDMDL
MODEL 8
REMARK VINA RESULT:      -9.1      3.328      6.461
REMARK  Name = 44129603
REMARK  3 active torsions:
REMARK  status: ('A' for Active; 'I' for Inactive)
REMARK    1  A    between atoms: N_5  and  C_17
REMARK    2  A    between atoms: C_12  and  C_24
REMARK    3  A    between atoms: C_24  and  O_25
REMARK                            x       y       z     vdW  Elec       q    Type
REMARK                         _______ _______ _______ _____ _____    ______ ____
ROOT
ATOM      1  N   UNL     1      34.013 -22.072 -17.962  0.00  0.00    -0.246 N 
ATOM      2  N   UNL     1      34.368 -21.418 -19.087  0.00  0.00    -0.163 NA
ATOM      3  N   UNL     1      33.877 -23.215 -15.227  0.00  0.00    -0.336 NA
ATOM      4  N   UNL     1      35.121 -23.953 -13.294  0.00  0.00    -0.170 NA
ATOM      5  N   UNL     1      32.792 -24.220 -13.408  0.00  0.00    -0.247 N 
ATOM      6  C   UNL     1      37.395 -21.386 -16.887  0.00  0.00    +0.035 C 
ATOM      7  C   UNL     1      36.104 -21.524 -17.613  0.00  0.00    +0.024 A 
ATOM      8  C   UNL     1      37.567 -22.499 -15.818  0.00  0.00    +0.035 C 
ATOM      9  C   UNL     1      35.022 -22.167 -17.054  0.00  0.00    +0.106 A 
ATOM     10  C   UNL     1      36.285 -22.913 -15.126  0.00  0.00    +0.030 C 
ATOM     11  C   UNL     1      35.043 -22.799 -15.755  0.00  0.00    +0.158 C 
ATOM     12  C   UNL     1      35.646 -21.082 -18.865  0.00  0.00    +0.174 A 
ATOM     13  C   UNL     1      36.256 -23.518 -13.885  0.00  0.00    +0.110 C 
ATOM     14  C   UNL     1      32.657 -22.557 -17.845  0.00  0.00    +0.154 C 
ATOM     15  C   UNL     1      33.990 -23.774 -14.007  0.00  0.00    +0.149 C 
ATOM     16  H   UNL     1      32.920 -24.620 -12.517  0.00  0.00    +0.165 HD
ENDROOT
BRANCH   5  17
ATOM     17  C   UNL     1      31.451 -24.205 -13.833  0.00  0.00    +0.058 C 
ATOM     18  C   UNL     1      30.708 -25.385 -13.839  0.00  0.00    +0.015 C 
ATOM     19  C   UNL     1      30.865 -23.009 -14.246  0.00  0.00    +0.015 C 
ATOM     20  C   UNL     1      29.378 -25.370 -14.260  0.00  0.00    +0.001 C 
ATOM     21  C   UNL     1      29.534 -22.994 -14.667  0.00  0.00    +0.001 C 
ATOM     22  C   UNL     1      28.791 -24.174 -14.674  0.00  0.00    +0.000 C 
ENDBRANCH   5  17
BRANCH  12  24
ATOM     23  O   UNL     1      37.578 -20.037 -19.810  0.00  0.00    -0.243 OA
ATOM     24  C   UNL     1      36.376 -20.359 -19.866  0.00  0.00    +0.357 C 
BRANCH  24  25
ATOM     25  O   UNL     1      35.615 -20.028 -20.955  0.00  0.00    -0.476 OA
ATOM     26  H   UNL     1      34.962 -19.359 -20.884  0.00  0.00    +0.295 HD
ENDBRANCH  24  25
ENDBRANCH  12  24
TORSDOF 3
ENDMDL
