MODEL 1
REMARK VINA RESULT:     -12.3      0.000      0.000
REMARK  Name = 25114442
REMARK  7 active torsions:
REMARK  status: ('A' for Active; 'I' for Inactive)
REMARK    1  A    between atoms: C_3  and  C_15
REMARK    2  A    between atoms: C_3  and  C_18
REMARK    3  A    between atoms: C_6  and  C_8
REMARK    4  A    between atoms: C_15  and  O_16
REMARK    5  A    between atoms: C_18  and  O_19
REMARK    6  A    between atoms: O_19  and  C_20
REMARK    7  A    between atoms: C_28  and  O_30
REMARK                            x       y       z     vdW  Elec       q    Type
REMARK                         _______ _______ _______ _____ _____    ______ ____
ROOT
ATOM      1  O   UNL     1      32.185 -22.971 -12.088  0.00  0.00    -0.270 OA
ATOM      2  N   UNL     1      33.584 -23.825 -13.703  0.00  0.00    -0.275 N 
ATOM      3  C   UNL     1      35.406 -23.795 -14.632  0.00  0.00    +0.166 C 
ATOM      4  C   UNL     1      34.043 -24.425 -14.942  0.00  0.00    +0.110 C 
ATOM      5  C   UNL     1      34.918 -23.560 -13.198  0.00  0.00    +0.110 C 
ATOM      6  C   UNL     1      32.360 -23.483 -13.190  0.00  0.00    +0.249 C 
ENDROOT
BRANCH   6   8
ATOM      7  F   UNL     1      27.885 -24.430 -16.428  0.00  0.00    -0.204 F 
ATOM      8  C   UNL     1      31.183 -23.734 -14.043  0.00  0.00    +0.054 C 
ATOM      9  C   UNL     1      30.416 -24.883 -13.854  0.00  0.00    +0.007 C 
ATOM     10  C   UNL     1      30.835 -22.818 -15.037  0.00  0.00    +0.007 C 
ATOM     11  C   UNL     1      29.302 -25.119 -14.660  0.00  0.00    +0.030 C 
ATOM     12  C   UNL     1      29.721 -23.054 -15.843  0.00  0.00    +0.030 C 
ATOM     13  C   UNL     1      28.955 -24.204 -15.654  0.00  0.00    +0.140 C 
ENDBRANCH   6   8
BRANCH   3  15
ATOM     14  O   UNL     1      36.617 -25.942 -14.893  0.00  0.00    -0.250 OA
ATOM     15  C   UNL     1      36.641 -24.717 -14.797  0.00  0.00    +0.320 C 
BRANCH  15  16
ATOM     16  O   UNL     1      37.809 -24.018 -14.829  0.00  0.00    -0.480 OA
ATOM     17  H   UNL     1      38.544 -24.311 -14.329  0.00  0.00    +0.295 HD
ENDBRANCH  15  16
ENDBRANCH   3  15
BRANCH   3  18
ATOM     18  C   UNL     1      35.607 -22.490 -15.377  0.00  0.00    +0.219 C 
BRANCH  18  19
ATOM     19  O   UNL     1      36.139 -22.780 -16.670  0.00  0.00    -0.475 OA
BRANCH  19  20
ATOM     20  C   UNL     1      35.668 -22.043 -17.713  0.00  0.00    +0.139 C 
ATOM     21  C   UNL     1      36.523 -21.179 -18.396  0.00  0.00    +0.037 C 
ATOM     22  C   UNL     1      34.334 -22.151 -18.095  0.00  0.00    +0.037 C 
ATOM     23  C   UNL     1      36.053 -20.411 -19.475  0.00  0.00    +0.003 C 
ATOM     24  C   UNL     1      34.697 -20.520 -19.864  0.00  0.00    +0.003 C 
ATOM     25  C   UNL     1      33.850 -21.395 -19.164  0.00  0.00    +0.003 C 
ATOM     26  C   UNL     1      36.901 -19.536 -20.175  0.00  0.00    +0.003 C 
ATOM     27  C   UNL     1      34.228 -19.752 -20.942  0.00  0.00    +0.037 C 
ATOM     28  C   UNL     1      35.083 -18.889 -21.626  0.00  0.00    +0.139 C 
ATOM     29  C   UNL     1      36.417 -18.780 -21.244  0.00  0.00    +0.037 C 
BRANCH  28  30
ATOM     30  O   UNL     1      34.612 -18.149 -22.668  0.00  0.00    -0.471 OA
ATOM     31  C   UNL     1      35.149 -16.838 -22.828  0.00  0.00    +0.252 C 
ENDBRANCH  28  30
ENDBRANCH  19  20
ENDBRANCH  18  19
ENDBRANCH   3  18
TORSDOF 7
ENDMDL
MODEL 2
REMARK VINA RESULT:     -10.8      5.127      9.729
REMARK  Name = 25114442
REMARK  7 active torsions:
REMARK  status: ('A' for Active; 'I' for Inactive)
REMARK    1  A    between atoms: C_3  and  C_15
REMARK    2  A    between atoms: C_3  and  C_18
REMARK    3  A    between atoms: C_6  and  C_8
REMARK    4  A    between atoms: C_15  and  O_16
REMARK    5  A    between atoms: C_18  and  O_19
REMARK    6  A    between atoms: O_19  and  C_20
REMARK    7  A    between atoms: C_28  and  O_30
REMARK                            x       y       z     vdW  Elec       q    Type
REMARK                         _______ _______ _______ _____ _____    ______ ____
ROOT
ATOM      1  O   UNL     1      37.445 -19.352 -20.274  0.00  0.00    -0.270 OA
ATOM      2  N   UNL     1      35.771 -18.674 -21.701  0.00  0.00    -0.275 N 
ATOM      3  C   UNL     1      34.955 -17.202 -22.864  0.00  0.00    +0.166 C 
ATOM      4  C   UNL     1      34.468 -18.553 -22.326  0.00  0.00    +0.110 C 
ATOM      5  C   UNL     1      36.382 -17.624 -22.496  0.00  0.00    +0.110 C 
ATOM      6  C   UNL     1      36.277 -19.397 -20.653  0.00  0.00    +0.249 C 
ENDROOT
BRANCH   6   8
ATOM      7  F   UNL     1      32.700 -22.707 -17.886  0.00  0.00    -0.204 F 
ATOM      8  C   UNL     1      35.335 -20.267 -19.923  0.00  0.00    +0.054 C 
ATOM      9  C   UNL     1      33.961 -20.107 -20.097  0.00  0.00    +0.007 C 
ATOM     10  C   UNL     1      35.820 -21.252 -19.063  0.00  0.00    +0.007 C 
ATOM     11  C   UNL     1      33.071 -20.931 -19.409  0.00  0.00    +0.030 C 
ATOM     12  C   UNL     1      34.929 -22.076 -18.374  0.00  0.00    +0.030 C 
ATOM     13  C   UNL     1      33.555 -21.916 -18.547  0.00  0.00    +0.140 C 
ENDBRANCH   6   8
BRANCH   3  15
ATOM     14  O   UNL     1      33.833 -17.476 -25.057  0.00  0.00    -0.250 OA
ATOM     15  C   UNL     1      34.685 -16.924 -24.365  0.00  0.00    +0.320 C 
BRANCH  15  16
ATOM     16  O   UNL     1      35.513 -15.969 -24.872  0.00  0.00    -0.480 OA
ATOM     17  H   UNL     1      36.194 -16.208 -25.469  0.00  0.00    +0.295 HD
ENDBRANCH  15  16
ENDBRANCH   3  15
BRANCH   3  18
ATOM     18  C   UNL     1      34.473 -16.047 -22.008  0.00  0.00    +0.219 C 
BRANCH  18  19
ATOM     19  O   UNL     1      34.775 -14.825 -22.680  0.00  0.00    -0.475 OA
BRANCH  19  20
ATOM     20  C   UNL     1      34.026 -13.737 -22.352  0.00  0.00    +0.139 C 
ATOM     21  C   UNL     1      34.125 -12.570 -23.110  0.00  0.00    +0.037 C 
ATOM     22  C   UNL     1      33.164 -13.788 -21.261  0.00  0.00    +0.037 C 
ATOM     23  C   UNL     1      33.359 -11.437 -22.785  0.00  0.00    +0.003 C 
ATOM     24  C   UNL     1      32.482 -11.489 -21.676  0.00  0.00    +0.003 C 
ATOM     25  C   UNL     1      32.396 -12.673 -20.924  0.00  0.00    +0.003 C 
ATOM     26  C   UNL     1      33.446 -10.255 -23.538  0.00  0.00    +0.003 C 
ATOM     27  C   UNL     1      31.718 -10.357 -21.351  0.00  0.00    +0.037 C 
ATOM     28  C   UNL     1      31.816  -9.191 -22.109  0.00  0.00    +0.139 C 
ATOM     29  C   UNL     1      32.679  -9.138 -23.200  0.00  0.00    +0.037 C 
BRANCH  28  30
ATOM     30  O   UNL     1      31.069  -8.101 -21.779  0.00  0.00    -0.471 OA
ATOM     31  C   UNL     1      30.706  -7.219 -22.840  0.00  0.00    +0.252 C 
ENDBRANCH  28  30
ENDBRANCH  19  20
ENDBRANCH  18  19
ENDBRANCH   3  18
TORSDOF 7
ENDMDL
MODEL 3
REMARK VINA RESULT:     -10.6      5.270     10.092
REMARK  Name = 25114442
REMARK  7 active torsions:
REMARK  status: ('A' for Active; 'I' for Inactive)
REMARK    1  A    between atoms: C_3  and  C_15
REMARK    2  A    between atoms: C_3  and  C_18
REMARK    3  A    between atoms: C_6  and  C_8
REMARK    4  A    between atoms: C_15  and  O_16
REMARK    5  A    between atoms: C_18  and  O_19
REMARK    6  A    between atoms: O_19  and  C_20
REMARK    7  A    between atoms: C_28  and  O_30
REMARK                            x       y       z     vdW  Elec       q    Type
REMARK                         _______ _______ _______ _____ _____    ______ ____
ROOT
ATOM      1  O   UNL     1      37.359 -18.763 -20.609  0.00  0.00    -0.270 OA
ATOM      2  N   UNL     1      35.678 -18.224 -22.086  0.00  0.00    -0.275 N 
ATOM      3  C   UNL     1      34.790 -16.831 -23.292  0.00  0.00    +0.166 C 
ATOM      4  C   UNL     1      34.385 -18.204 -22.742  0.00  0.00    +0.110 C 
ATOM      5  C   UNL     1      36.234 -17.147 -22.883  0.00  0.00    +0.110 C 
ATOM      6  C   UNL     1      36.207 -18.894 -21.014  0.00  0.00    +0.249 C 
ENDROOT
BRANCH   6   8
ATOM      7  F   UNL     1      32.799 -22.395 -18.267  0.00  0.00    -0.204 F 
ATOM      8  C   UNL     1      35.310 -19.817 -20.292  0.00  0.00    +0.054 C 
ATOM      9  C   UNL     1      35.845 -20.815 -19.477  0.00  0.00    +0.007 C 
ATOM     10  C   UNL     1      33.927 -19.689 -20.422  0.00  0.00    +0.007 C 
ATOM     11  C   UNL     1      34.997 -21.685 -18.793  0.00  0.00    +0.030 C 
ATOM     12  C   UNL     1      33.079 -20.560 -19.738  0.00  0.00    +0.030 C 
ATOM     13  C   UNL     1      33.614 -21.558 -18.924  0.00  0.00    +0.140 C 
ENDBRANCH   6   8
BRANCH   3  15
ATOM     14  O   UNL     1      35.265 -15.960 -25.564  0.00  0.00    -0.250 OA
ATOM     15  C   UNL     1      34.538 -16.595 -24.803  0.00  0.00    +0.320 C 
BRANCH  15  16
ATOM     16  O   UNL     1      33.387 -17.182 -25.234  0.00  0.00    -0.480 OA
ATOM     17  H   UNL     1      33.407 -18.048 -25.590  0.00  0.00    +0.295 HD
ENDBRANCH  15  16
ENDBRANCH   3  15
BRANCH   3  18
ATOM     18  C   UNL     1      34.209 -15.699 -22.467  0.00  0.00    +0.219 C 
BRANCH  18  19
ATOM     19  O   UNL     1      33.412 -14.877 -23.319  0.00  0.00    -0.475 OA
BRANCH  19  20
ATOM     20  C   UNL     1      33.208 -13.591 -22.924  0.00  0.00    +0.139 C 
ATOM     21  C   UNL     1      32.611 -13.329 -21.690  0.00  0.00    +0.037 C 
ATOM     22  C   UNL     1      33.591 -12.539 -23.750  0.00  0.00    +0.037 C 
ATOM     23  C   UNL     1      32.393 -12.007 -21.267  0.00  0.00    +0.003 C 
ATOM     24  C   UNL     1      32.783 -10.937 -22.107  0.00  0.00    +0.003 C 
ATOM     25  C   UNL     1      33.382 -11.220 -23.346  0.00  0.00    +0.003 C 
ATOM     26  C   UNL     1      31.795 -11.725 -20.028  0.00  0.00    +0.003 C 
ATOM     27  C   UNL     1      32.565  -9.617 -21.683  0.00  0.00    +0.037 C 
ATOM     28  C   UNL     1      31.969  -9.354 -20.450  0.00  0.00    +0.139 C 
ATOM     29  C   UNL     1      31.584 -10.405 -19.623  0.00  0.00    +0.037 C 
BRANCH  28  30
ATOM     30  O   UNL     1      31.762  -8.067 -20.055  0.00  0.00    -0.471 OA
ATOM     31  C   UNL     1      32.913  -7.235 -19.928  0.00  0.00    +0.252 C 
ENDBRANCH  28  30
ENDBRANCH  19  20
ENDBRANCH  18  19
ENDBRANCH   3  18
TORSDOF 7
ENDMDL
MODEL 4
REMARK VINA RESULT:     -10.1      1.442      1.889
REMARK  Name = 25114442
REMARK  7 active torsions:
REMARK  status: ('A' for Active; 'I' for Inactive)
REMARK    1  A    between atoms: C_3  and  C_15
REMARK    2  A    between atoms: C_3  and  C_18
REMARK    3  A    between atoms: C_6  and  C_8
REMARK    4  A    between atoms: C_15  and  O_16
REMARK    5  A    between atoms: C_18  and  O_19
REMARK    6  A    between atoms: O_19  and  C_20
REMARK    7  A    between atoms: C_28  and  O_30
REMARK                            x       y       z     vdW  Elec       q    Type
REMARK                         _______ _______ _______ _____ _____    ______ ____
ROOT
ATOM      1  O   UNL     1      34.443 -23.443 -11.447  0.00  0.00    -0.270 OA
ATOM      2  N   UNL     1      35.480 -24.605 -13.141  0.00  0.00    -0.275 N 
ATOM      3  C   UNL     1      37.166 -24.952 -14.247  0.00  0.00    +0.166 C 
ATOM      4  C   UNL     1      35.685 -25.326 -14.383  0.00  0.00    +0.110 C 
ATOM      5  C   UNL     1      36.887 -24.575 -12.787  0.00  0.00    +0.110 C 
ATOM      6  C   UNL     1      34.402 -24.020 -12.530  0.00  0.00    +0.249 C 
ENDROOT
BRANCH   6   8
ATOM      7  F   UNL     1      29.506 -24.235 -15.249  0.00  0.00    -0.204 F 
ATOM      8  C   UNL     1      33.113 -24.078 -13.246  0.00  0.00    +0.054 C 
ATOM      9  C   UNL     1      32.214 -25.111 -12.983  0.00  0.00    +0.007 C 
ATOM     10  C   UNL     1      32.794 -23.097 -14.186  0.00  0.00    +0.007 C 
ATOM     11  C   UNL     1      30.995 -25.164 -13.659  0.00  0.00    +0.030 C 
ATOM     12  C   UNL     1      31.575 -23.151 -14.863  0.00  0.00    +0.030 C 
ATOM     13  C   UNL     1      30.676 -24.184 -14.599  0.00  0.00    +0.140 C 
ENDBRANCH   6   8
BRANCH   3  15
ATOM     14  O   UNL     1      38.018 -27.279 -14.199  0.00  0.00    -0.250 OA
ATOM     15  C   UNL     1      38.187 -26.095 -14.480  0.00  0.00    +0.320 C 
BRANCH  15  16
ATOM     16  O   UNL     1      39.340 -25.650 -15.051  0.00  0.00    -0.480 OA
ATOM     17  H   UNL     1      39.571 -24.744 -14.996  0.00  0.00    +0.295 HD
ENDBRANCH  15  16
ENDBRANCH   3  15
BRANCH   3  18
ATOM     18  C   UNL     1      37.520 -23.736 -15.082  0.00  0.00    +0.219 C 
BRANCH  18  19
ATOM     19  O   UNL     1      36.410 -22.839 -15.073  0.00  0.00    -0.475 OA
BRANCH  19  20
ATOM     20  C   UNL     1      35.974 -22.382 -16.278  0.00  0.00    +0.139 C 
ATOM     21  C   UNL     1      36.767 -21.506 -17.020  0.00  0.00    +0.037 C 
ATOM     22  C   UNL     1      34.736 -22.788 -16.770  0.00  0.00    +0.037 C 
ATOM     23  C   UNL     1      36.331 -21.026 -18.266  0.00  0.00    +0.003 C 
ATOM     24  C   UNL     1      35.073 -21.438 -18.766  0.00  0.00    +0.003 C 
ATOM     25  C   UNL     1      34.288 -22.320 -18.005  0.00  0.00    +0.003 C 
ATOM     26  C   UNL     1      37.117 -20.144 -19.026  0.00  0.00    +0.003 C 
ATOM     27  C   UNL     1      34.638 -20.957 -20.011  0.00  0.00    +0.037 C 
ATOM     28  C   UNL     1      35.431 -20.082 -20.753  0.00  0.00    +0.139 C 
ATOM     29  C   UNL     1      36.668 -19.675 -20.262  0.00  0.00    +0.037 C 
BRANCH  28  30
ATOM     30  O   UNL     1      34.993 -19.623 -21.958  0.00  0.00    -0.471 OA
ATOM     31  C   UNL     1      35.632 -18.459 -22.480  0.00  0.00    +0.252 C 
ENDBRANCH  28  30
ENDBRANCH  19  20
ENDBRANCH  18  19
ENDBRANCH   3  18
TORSDOF 7
ENDMDL
MODEL 5
REMARK VINA RESULT:     -10.1      4.280      9.908
REMARK  Name = 25114442
REMARK  7 active torsions:
REMARK  status: ('A' for Active; 'I' for Inactive)
REMARK    1  A    between atoms: C_3  and  C_15
REMARK    2  A    between atoms: C_3  and  C_18
REMARK    3  A    between atoms: C_6  and  C_8
REMARK    4  A    between atoms: C_15  and  O_16
REMARK    5  A    between atoms: C_18  and  O_19
REMARK    6  A    between atoms: O_19  and  C_20
REMARK    7  A    between atoms: C_28  and  O_30
REMARK                            x       y       z     vdW  Elec       q    Type
REMARK                         _______ _______ _______ _____ _____    ______ ____
ROOT
ATOM      1  O   UNL     1      34.193 -16.883 -25.064  0.00  0.00    -0.270 OA
ATOM      2  N   UNL     1      35.279 -17.047 -23.042  0.00  0.00    -0.275 N 
ATOM      3  C   UNL     1      35.920 -18.217 -21.491  0.00  0.00    +0.166 C 
ATOM      4  C   UNL     1      35.780 -16.708 -21.723  0.00  0.00    +0.110 C 
ATOM      5  C   UNL     1      35.758 -18.416 -23.002  0.00  0.00    +0.110 C 
ATOM      6  C   UNL     1      34.513 -16.405 -23.980  0.00  0.00    +0.249 C 
ENDROOT
BRANCH   6   8
ATOM      7  F   UNL     1      32.679 -11.271 -22.681  0.00  0.00    -0.204 F 
ATOM      8  C   UNL     1      34.029 -15.054 -23.637  0.00  0.00    +0.054 C 
ATOM      9  C   UNL     1      34.147 -14.581 -22.330  0.00  0.00    +0.007 C 
ATOM     10  C   UNL     1      33.456 -14.248 -24.621  0.00  0.00    +0.007 C 
ATOM     11  C   UNL     1      33.691 -13.304 -22.007  0.00  0.00    +0.030 C 
ATOM     12  C   UNL     1      32.999 -12.970 -24.298  0.00  0.00    +0.030 C 
ATOM     13  C   UNL     1      33.117 -12.498 -22.991  0.00  0.00    +0.140 C 
ENDBRANCH   6   8
BRANCH   3  15
ATOM     14  O   UNL     1      38.347 -18.718 -21.444  0.00  0.00    -0.250 OA
ATOM     15  C   UNL     1      37.259 -18.695 -20.873  0.00  0.00    +0.320 C 
BRANCH  15  16
ATOM     16  O   UNL     1      37.116 -19.106 -19.583  0.00  0.00    -0.480 OA
ATOM     17  H   UNL     1      36.392 -18.803 -19.072  0.00  0.00    +0.295 HD
ENDBRANCH  15  16
ENDBRANCH   3  15
BRANCH   3  18
ATOM     18  C   UNL     1      34.742 -18.781 -20.721  0.00  0.00    +0.219 C 
BRANCH  18  19
ATOM     19  O   UNL     1      34.762 -20.203 -20.834  0.00  0.00    -0.475 OA
BRANCH  19  20
ATOM     20  C   UNL     1      34.465 -20.917 -19.713  0.00  0.00    +0.139 C 
ATOM     21  C   UNL     1      35.478 -21.255 -18.815  0.00  0.00    +0.037 C 
ATOM     22  C   UNL     1      33.153 -21.310 -19.466  0.00  0.00    +0.037 C 
ATOM     23  C   UNL     1      35.188 -21.992 -17.654  0.00  0.00    +0.003 C 
ATOM     24  C   UNL     1      33.854 -22.391 -17.402  0.00  0.00    +0.003 C 
ATOM     25  C   UNL     1      32.848 -22.042 -18.318  0.00  0.00    +0.003 C 
ATOM     26  C   UNL     1      36.195 -22.340 -16.738  0.00  0.00    +0.003 C 
ATOM     27  C   UNL     1      33.566 -23.128 -16.241  0.00  0.00    +0.037 C 
ATOM     28  C   UNL     1      34.578 -23.465 -15.343  0.00  0.00    +0.139 C 
ATOM     29  C   UNL     1      35.890 -23.074 -15.590  0.00  0.00    +0.037 C 
BRANCH  28  30
ATOM     30  O   UNL     1      34.281 -24.182 -14.224  0.00  0.00    -0.471 OA
ATOM     31  C   UNL     1      35.205 -24.103 -13.140  0.00  0.00    +0.252 C 
ENDBRANCH  28  30
ENDBRANCH  19  20
ENDBRANCH  18  19
ENDBRANCH   3  18
TORSDOF 7
ENDMDL
MODEL 6
REMARK VINA RESULT:      -9.5      7.451     12.977
REMARK  Name = 25114442
REMARK  7 active torsions:
REMARK  status: ('A' for Active; 'I' for Inactive)
REMARK    1  A    between atoms: C_3  and  C_15
REMARK    2  A    between atoms: C_3  and  C_18
REMARK    3  A    between atoms: C_6  and  C_8
REMARK    4  A    between atoms: C_15  and  O_16
REMARK    5  A    between atoms: C_18  and  O_19
REMARK    6  A    between atoms: O_19  and  C_20
REMARK    7  A    between atoms: C_28  and  O_30
REMARK                            x       y       z     vdW  Elec       q    Type
REMARK                         _______ _______ _______ _____ _____    ______ ____
ROOT
ATOM      1  O   UNL     1      30.632 -10.727 -20.254  0.00  0.00    -0.270 OA
ATOM      2  N   UNL     1      31.972 -11.033 -22.100  0.00  0.00    -0.275 N 
ATOM      3  C   UNL     1      33.156 -12.274 -23.215  0.00  0.00    +0.166 C 
ATOM      4  C   UNL     1      32.905 -10.762 -23.177  0.00  0.00    +0.110 C 
ATOM      5  C   UNL     1      31.891 -12.457 -22.369  0.00  0.00    +0.110 C 
ATOM      6  C   UNL     1      31.427 -10.293 -21.083  0.00  0.00    +0.249 C 
ENDROOT
BRANCH   6   8
ATOM      7  F   UNL     1      33.042  -4.942 -20.678  0.00  0.00    -0.204 F 
ATOM      8  C   UNL     1      31.853  -8.885 -20.978  0.00  0.00    +0.054 C 
ATOM      9  C   UNL     1      31.397  -7.947 -21.904  0.00  0.00    +0.007 C 
ATOM     10  C   UNL     1      32.710  -8.491 -19.949  0.00  0.00    +0.007 C 
ATOM     11  C   UNL     1      31.799  -6.615 -21.803  0.00  0.00    +0.030 C 
ATOM     12  C   UNL     1      33.112  -7.159 -19.849  0.00  0.00    +0.030 C 
ATOM     13  C   UNL     1      32.656  -6.221 -20.775  0.00  0.00    +0.140 C 
ENDBRANCH   6   8
BRANCH   3  15
ATOM     14  O   UNL     1      33.528 -12.410 -25.662  0.00  0.00    -0.250 OA
ATOM     15  C   UNL     1      33.150 -12.935 -24.617  0.00  0.00    +0.320 C 
BRANCH  15  16
ATOM     16  O   UNL     1      32.668 -14.208 -24.586  0.00  0.00    -0.480 OA
ATOM     17  H   UNL     1      32.815 -14.782 -25.311  0.00  0.00    +0.295 HD
ENDBRANCH  15  16
ENDBRANCH   3  15
BRANCH   3  18
ATOM     18  C   UNL     1      34.405 -12.658 -22.445  0.00  0.00    +0.219 C 
BRANCH  18  19
ATOM     19  O   UNL     1      35.003 -13.786 -23.081  0.00  0.00    -0.475 OA
BRANCH  19  20
ATOM     20  C   UNL     1      35.021 -14.954 -22.381  0.00  0.00    +0.139 C 
ATOM     21  C   UNL     1      35.077 -16.171 -23.060  0.00  0.00    +0.037 C 
ATOM     22  C   UNL     1      34.982 -14.932 -20.990  0.00  0.00    +0.037 C 
ATOM     23  C   UNL     1      35.096 -17.385 -22.354  0.00  0.00    +0.003 C 
ATOM     24  C   UNL     1      35.057 -17.364 -20.939  0.00  0.00    +0.003 C 
ATOM     25  C   UNL     1      35.001 -16.129 -20.272  0.00  0.00    +0.003 C 
ATOM     26  C   UNL     1      35.153 -18.620 -23.021  0.00  0.00    +0.003 C 
ATOM     27  C   UNL     1      35.076 -18.578 -20.234  0.00  0.00    +0.037 C 
ATOM     28  C   UNL     1      35.132 -19.795 -20.912  0.00  0.00    +0.139 C 
ATOM     29  C   UNL     1      35.170 -19.817 -22.303  0.00  0.00    +0.037 C 
BRANCH  28  30
ATOM     30  O   UNL     1      35.147 -20.963 -20.212  0.00  0.00    -0.471 OA
ATOM     31  C   UNL     1      36.184 -21.127 -19.246  0.00  0.00    +0.252 C 
ENDBRANCH  28  30
ENDBRANCH  19  20
ENDBRANCH  18  19
ENDBRANCH   3  18
TORSDOF 7
ENDMDL
MODEL 7
REMARK VINA RESULT:      -9.4      4.289      9.780
REMARK  Name = 25114442
REMARK  7 active torsions:
REMARK  status: ('A' for Active; 'I' for Inactive)
REMARK    1  A    between atoms: C_3  and  C_15
REMARK    2  A    between atoms: C_3  and  C_18
REMARK    3  A    between atoms: C_6  and  C_8
REMARK    4  A    between atoms: C_15  and  O_16
REMARK    5  A    between atoms: C_18  and  O_19
REMARK    6  A    between atoms: O_19  and  C_20
REMARK    7  A    between atoms: C_28  and  O_30
REMARK                            x       y       z     vdW  Elec       q    Type
REMARK                         _______ _______ _______ _____ _____    ______ ____
ROOT
ATOM      1  O   UNL     1      33.987 -15.383 -24.339  0.00  0.00    -0.270 OA
ATOM      2  N   UNL     1      35.003 -16.217 -22.449  0.00  0.00    -0.275 N 
ATOM      3  C   UNL     1      35.680 -17.836 -21.398  0.00  0.00    +0.166 C 
ATOM      4  C   UNL     1      35.420 -16.362 -21.068  0.00  0.00    +0.110 C 
ATOM      5  C   UNL     1      35.595 -17.469 -22.884  0.00  0.00    +0.110 C 
ATOM      6  C   UNL     1      34.222 -15.323 -23.135  0.00  0.00    +0.249 C 
ENDROOT
BRANCH   6   8
ATOM      7  F   UNL     1      31.895 -11.179 -20.165  0.00  0.00    -0.204 F 
ATOM      8  C   UNL     1      33.611 -14.231 -22.353  0.00  0.00    +0.054 C 
ATOM      9  C   UNL     1      33.252 -13.040 -22.982  0.00  0.00    +0.007 C 
ATOM     10  C   UNL     1      33.390 -14.393 -20.985  0.00  0.00    +0.007 C 
ATOM     11  C   UNL     1      32.672 -12.008 -22.244  0.00  0.00    +0.030 C 
ATOM     12  C   UNL     1      32.811 -13.361 -20.246  0.00  0.00    +0.030 C 
ATOM     13  C   UNL     1      32.452 -12.169 -20.875  0.00  0.00    +0.140 C 
ENDBRANCH   6   8
BRANCH   3  15
ATOM     14  O   UNL     1      38.029 -18.602 -21.602  0.00  0.00    -0.250 OA
ATOM     15  C   UNL     1      37.029 -18.422 -20.910  0.00  0.00    +0.320 C 
BRANCH  15  16
ATOM     16  O   UNL     1      37.009 -18.733 -19.584  0.00  0.00    -0.480 OA
ATOM     17  H   UNL     1      37.327 -18.118 -18.953  0.00  0.00    +0.295 HD
ENDBRANCH  15  16
ENDBRANCH   3  15
BRANCH   3  18
ATOM     18  C   UNL     1      34.525 -18.721 -20.973  0.00  0.00    +0.219 C 
BRANCH  18  19
ATOM     19  O   UNL     1      34.957 -20.081 -21.004  0.00  0.00    -0.475 OA
BRANCH  19  20
ATOM     20  C   UNL     1      34.788 -20.810 -19.867  0.00  0.00    +0.139 C 
ATOM     21  C   UNL     1      33.503 -21.050 -19.378  0.00  0.00    +0.037 C 
ATOM     22  C   UNL     1      35.896 -21.315 -19.192  0.00  0.00    +0.037 C 
ATOM     23  C   UNL     1      33.311 -21.800 -18.206  0.00  0.00    +0.003 C 
ATOM     24  C   UNL     1      34.438 -22.314 -17.520  0.00  0.00    +0.003 C 
ATOM     25  C   UNL     1      35.723 -22.063 -18.027  0.00  0.00    +0.003 C 
ATOM     26  C   UNL     1      32.025 -22.052 -17.700  0.00  0.00    +0.003 C 
ATOM     27  C   UNL     1      34.245 -23.064 -16.349  0.00  0.00    +0.037 C 
ATOM     28  C   UNL     1      32.961 -23.304 -15.860  0.00  0.00    +0.139 C 
ATOM     29  C   UNL     1      31.853 -22.799 -16.534  0.00  0.00    +0.037 C 
BRANCH  28  30
ATOM     30  O   UNL     1      32.792 -24.031 -14.721  0.00  0.00    -0.471 OA
ATOM     31  C   UNL     1      31.945 -23.475 -13.717  0.00  0.00    +0.252 C 
ENDBRANCH  28  30
ENDBRANCH  19  20
ENDBRANCH  18  19
ENDBRANCH   3  18
TORSDOF 7
ENDMDL
