MODEL 1
REMARK VINA RESULT:     -12.0      0.000      0.000
REMARK  Name = 24941248
REMARK  7 active torsions:
REMARK  status: ('A' for Active; 'I' for Inactive)
REMARK    1  A    between atoms: N_2  and  C_24
REMARK    2  A    between atoms: C_6  and  C_14
REMARK    3  A    between atoms: C_13  and  C_19
REMARK    4  A    between atoms: C_19  and  C_20
REMARK    5  A    between atoms: C_20  and  C_21
REMARK    6  A    between atoms: C_21  and  O_22
REMARK    7  A    between atoms: C_24  and  C_26
REMARK                            x       y       z     vdW  Elec       q    Type
REMARK                         _______ _______ _______ _____ _____    ______ ____
ROOT
ATOM      1  O   UNL     1      33.583 -15.667 -25.877  0.00  0.00    -0.352 OA
ATOM      2  N   UNL     1      35.521 -17.768 -21.260  0.00  0.00    -0.316 N 
ATOM      3  N   UNL     1      33.245 -14.369 -25.513  0.00  0.00    -0.077 NA
ATOM      4  N   UNL     1      35.014 -18.092 -23.565  0.00  0.00    -0.226 NA
ATOM      5  C   UNL     1      34.097 -15.469 -23.704  0.00  0.00    +0.062 A 
ATOM      6  C   UNL     1      33.558 -14.272 -24.217  0.00  0.00    +0.123 A 
ATOM      7  C   UNL     1      35.023 -17.262 -22.489  0.00  0.00    +0.129 C 
ATOM      8  C   UNL     1      34.582 -15.942 -22.484  0.00  0.00    +0.039 C 
ATOM      9  C   UNL     1      34.090 -16.319 -24.796  0.00  0.00    +0.196 A 
ATOM     10  C   UNL     1      34.542 -17.624 -24.746  0.00  0.00    +0.140 C 
ATOM     11  H   UNL     1      35.533 -17.175 -20.474  0.00  0.00    +0.148 HD
ENDROOT
BRANCH   6  14
ATOM     12 CL   UNL     1      34.326  -9.185 -23.894  0.00  0.00    -0.082 Cl
ATOM     13  C   UNL     1      32.363 -11.847 -21.645  0.00  0.00    -0.021 C 
ATOM     14  C   UNL     1      33.336 -13.041 -23.505  0.00  0.00    +0.021 C 
ATOM     15  C   UNL     1      32.580 -13.040 -22.334  0.00  0.00    -0.003 C 
ATOM     16  C   UNL     1      32.904 -10.655 -22.127  0.00  0.00    +0.007 C 
ATOM     17  C   UNL     1      33.876 -11.849 -23.988  0.00  0.00    +0.013 C 
ATOM     18  C   UNL     1      33.660 -10.656 -23.299  0.00  0.00    +0.057 C 
BRANCH  13  19
ATOM     19  C   UNL     1      31.554 -11.845 -20.392  0.00  0.00    +0.029 C 
BRANCH  19  20
ATOM     20  C   UNL     1      31.232 -10.425 -19.910  0.00  0.00    +0.036 C 
BRANCH  20  21
ATOM     21  C   UNL     1      31.961 -10.078 -18.619  0.00  0.00    +0.138 C 
BRANCH  21  22
ATOM     22  O   UNL     1      32.725  -8.898 -18.826  0.00  0.00    -0.382 OA
ATOM     23  H   UNL     1      32.986  -8.841 -19.758  0.00  0.00    +0.210 HD
ENDBRANCH  21  22
ENDBRANCH  20  21
ENDBRANCH  19  20
ENDBRANCH  13  19
ENDBRANCH   6  14
BRANCH   2  24
ATOM     24  C   UNL     1      36.004 -19.102 -21.118  0.00  0.00    +0.093 C 
ATOM     25  C   UNL     1      37.387 -19.076 -20.472  0.00  0.00    +0.026 C 
BRANCH  24  26
ATOM     26  C   UNL     1      35.007 -19.940 -20.347  0.00  0.00    -0.005 C 
ATOM     27  C   UNL     1      33.640 -19.724 -20.511  0.00  0.00    -0.003 C 
ATOM     28  C   UNL     1      35.457 -20.929 -19.471  0.00  0.00    -0.003 C 
ATOM     29  C   UNL     1      32.720 -20.496 -19.799  0.00  0.00    -0.000 C 
ATOM     30  C   UNL     1      34.538 -21.700 -18.760  0.00  0.00    -0.000 C 
ATOM     31  C   UNL     1      33.170 -21.485 -18.924  0.00  0.00    -0.000 C 
ENDBRANCH  24  26
ENDBRANCH   2  24
TORSDOF 7
ENDMDL
MODEL 2
REMARK VINA RESULT:     -11.3      1.658      2.326
REMARK  Name = 24941248
REMARK  7 active torsions:
REMARK  status: ('A' for Active; 'I' for Inactive)
REMARK    1  A    between atoms: N_2  and  C_24
REMARK    2  A    between atoms: C_6  and  C_14
REMARK    3  A    between atoms: C_13  and  C_19
REMARK    4  A    between atoms: C_19  and  C_20
REMARK    5  A    between atoms: C_20  and  C_21
REMARK    6  A    between atoms: C_21  and  O_22
REMARK    7  A    between atoms: C_24  and  C_26
REMARK                            x       y       z     vdW  Elec       q    Type
REMARK                         _______ _______ _______ _____ _____    ______ ____
ROOT
ATOM      1  O   UNL     1      33.646 -15.429 -25.871  0.00  0.00    -0.352 OA
ATOM      2  N   UNL     1      35.492 -17.685 -21.290  0.00  0.00    -0.316 N 
ATOM      3  N   UNL     1      33.275 -14.153 -25.465  0.00  0.00    -0.077 NA
ATOM      4  N   UNL     1      35.055 -17.922 -23.619  0.00  0.00    -0.226 NA
ATOM      5  C   UNL     1      34.096 -15.312 -23.678  0.00  0.00    +0.062 A 
ATOM      6  C   UNL     1      33.550 -14.104 -24.157  0.00  0.00    +0.123 A 
ATOM      7  C   UNL     1      35.019 -17.137 -22.511  0.00  0.00    +0.129 C 
ATOM      8  C   UNL     1      34.555 -15.826 -22.464  0.00  0.00    +0.039 C 
ATOM      9  C   UNL     1      34.134 -16.116 -24.804  0.00  0.00    +0.196 A 
ATOM     10  C   UNL     1      34.607 -17.414 -24.793  0.00  0.00    +0.140 C 
ATOM     11  H   UNL     1      35.472 -17.125 -20.480  0.00  0.00    +0.148 HD
ENDROOT
BRANCH   6  14
ATOM     12 CL   UNL     1      31.588 -11.928 -19.915  0.00  0.00    -0.082 Cl
ATOM     13  C   UNL     1      33.420 -10.506 -23.174  0.00  0.00    -0.021 C 
ATOM     14  C   UNL     1      33.286 -12.907 -23.403  0.00  0.00    +0.021 C 
ATOM     15  C   UNL     1      33.675 -11.666 -23.905  0.00  0.00    -0.003 C 
ATOM     16  C   UNL     1      32.775 -10.587 -21.940  0.00  0.00    +0.007 C 
ATOM     17  C   UNL     1      32.640 -12.988 -22.169  0.00  0.00    +0.013 C 
ATOM     18  C   UNL     1      32.385 -11.828 -21.437  0.00  0.00    +0.057 C 
BRANCH  13  19
ATOM     19  C   UNL     1      33.838  -9.179 -23.711  0.00  0.00    +0.029 C 
BRANCH  19  20
ATOM     20  C   UNL     1      33.055  -8.022 -23.075  0.00  0.00    +0.036 C 
BRANCH  20  21
ATOM     21  C   UNL     1      33.688  -6.670 -23.371  0.00  0.00    +0.138 C 
BRANCH  21  22
ATOM     22  O   UNL     1      33.338  -5.763 -22.335  0.00  0.00    -0.382 OA
ATOM     23  H   UNL     1      33.803  -6.008 -21.520  0.00  0.00    +0.210 HD
ENDBRANCH  21  22
ENDBRANCH  20  21
ENDBRANCH  19  20
ENDBRANCH  13  19
ENDBRANCH   6  14
BRANCH   2  24
ATOM     24  C   UNL     1      35.994 -19.016 -21.188  0.00  0.00    +0.093 C 
ATOM     25  C   UNL     1      37.394 -18.985 -20.579  0.00  0.00    +0.026 C 
BRANCH  24  26
ATOM     26  C   UNL     1      35.029 -19.881 -20.409  0.00  0.00    -0.005 C 
ATOM     27  C   UNL     1      33.655 -19.705 -20.561  0.00  0.00    -0.003 C 
ATOM     28  C   UNL     1      35.514 -20.857 -19.537  0.00  0.00    -0.003 C 
ATOM     29  C   UNL     1      32.764 -20.503 -19.842  0.00  0.00    -0.000 C 
ATOM     30  C   UNL     1      34.625 -21.654 -18.818  0.00  0.00    -0.000 C 
ATOM     31  C   UNL     1      33.249 -21.478 -18.971  0.00  0.00    -0.000 C 
ENDBRANCH  24  26
ENDBRANCH   2  24
TORSDOF 7
ENDMDL
MODEL 3
REMARK VINA RESULT:     -11.0      7.670     12.789
REMARK  Name = 24941248
REMARK  7 active torsions:
REMARK  status: ('A' for Active; 'I' for Inactive)
REMARK    1  A    between atoms: N_2  and  C_24
REMARK    2  A    between atoms: C_6  and  C_14
REMARK    3  A    between atoms: C_13  and  C_19
REMARK    4  A    between atoms: C_19  and  C_20
REMARK    5  A    between atoms: C_20  and  C_21
REMARK    6  A    between atoms: C_21  and  O_22
REMARK    7  A    between atoms: C_24  and  C_26
REMARK                            x       y       z     vdW  Elec       q    Type
REMARK                         _______ _______ _______ _____ _____    ______ ____
ROOT
ATOM      1  O   UNL     1      31.361 -23.926 -14.612  0.00  0.00    -0.352 OA
ATOM      2  N   UNL     1      34.449 -21.803 -18.541  0.00  0.00    -0.316 N 
ATOM      3  N   UNL     1      32.295 -24.367 -13.683  0.00  0.00    -0.077 NA
ATOM      4  N   UNL     1      32.259 -22.291 -17.741  0.00  0.00    -0.226 NA
ATOM      5  C   UNL     1      33.375 -23.420 -15.457  0.00  0.00    +0.062 A 
ATOM      6  C   UNL     1      33.486 -24.058 -14.205  0.00  0.00    +0.123 A 
ATOM      7  C   UNL     1      33.602 -22.346 -17.540  0.00  0.00    +0.129 C 
ATOM      8  C   UNL     1      34.230 -22.893 -16.426  0.00  0.00    +0.039 C 
ATOM      9  C   UNL     1      32.008 -23.363 -15.667  0.00  0.00    +0.196 A 
ATOM     10  C   UNL     1      31.436 -22.805 -16.795  0.00  0.00    +0.140 C 
ATOM     11  H   UNL     1      35.424 -21.836 -18.406  0.00  0.00    +0.148 HD
ENDROOT
BRANCH   6  14
ATOM     12 CL   UNL     1      36.118 -24.021  -9.772  0.00  0.00    -0.082 Cl
ATOM     13  C   UNL     1      36.930 -25.296 -13.475  0.00  0.00    -0.021 C 
ATOM     14  C   UNL     1      34.697 -24.377 -13.494  0.00  0.00    +0.021 C 
ATOM     15  C   UNL     1      35.758 -24.986 -14.164  0.00  0.00    -0.003 C 
ATOM     16  C   UNL     1      37.042 -24.998 -12.117  0.00  0.00    +0.007 C 
ATOM     17  C   UNL     1      34.808 -24.079 -12.136  0.00  0.00    +0.013 C 
ATOM     18  C   UNL     1      35.980 -24.390 -11.447  0.00  0.00    +0.057 C 
BRANCH  13  19
ATOM     19  C   UNL     1      38.065 -25.948 -14.191  0.00  0.00    +0.029 C 
BRANCH  19  20
ATOM     20  C   UNL     1      39.390 -25.805 -13.431  0.00  0.00    +0.036 C 
BRANCH  20  21
ATOM     21  C   UNL     1      40.533 -25.388 -14.345  0.00  0.00    +0.138 C 
BRANCH  21  22
ATOM     22  O   UNL     1      40.251 -25.832 -15.665  0.00  0.00    -0.382 OA
ATOM     23  H   UNL     1      40.968 -26.409 -15.972  0.00  0.00    +0.210 HD
ENDBRANCH  21  22
ENDBRANCH  20  21
ENDBRANCH  19  20
ENDBRANCH  13  19
ENDBRANCH   6  14
BRANCH   2  24
ATOM     24  C   UNL     1      33.945 -21.212 -19.737  0.00  0.00    +0.093 C 
ATOM     25  C   UNL     1      32.610 -20.531 -19.444  0.00  0.00    +0.026 C 
BRANCH  24  26
ATOM     26  C   UNL     1      34.971 -20.270 -20.328  0.00  0.00    -0.005 C 
ATOM     27  C   UNL     1      36.241 -20.176 -19.760  0.00  0.00    -0.003 C 
ATOM     28  C   UNL     1      34.648 -19.496 -21.443  0.00  0.00    -0.003 C 
ATOM     29  C   UNL     1      37.187 -19.308 -20.304  0.00  0.00    -0.000 C 
ATOM     30  C   UNL     1      35.593 -18.628 -21.987  0.00  0.00    -0.000 C 
ATOM     31  C   UNL     1      36.864 -18.534 -21.419  0.00  0.00    -0.000 C 
ENDBRANCH  24  26
ENDBRANCH   2  24
TORSDOF 7
ENDMDL
MODEL 4
REMARK VINA RESULT:      -9.9      7.607     12.372
REMARK  Name = 24941248
REMARK  7 active torsions:
REMARK  status: ('A' for Active; 'I' for Inactive)
REMARK    1  A    between atoms: N_2  and  C_24
REMARK    2  A    between atoms: C_6  and  C_14
REMARK    3  A    between atoms: C_13  and  C_19
REMARK    4  A    between atoms: C_19  and  C_20
REMARK    5  A    between atoms: C_20  and  C_21
REMARK    6  A    between atoms: C_21  and  O_22
REMARK    7  A    between atoms: C_24  and  C_26
REMARK                            x       y       z     vdW  Elec       q    Type
REMARK                         _______ _______ _______ _____ _____    ______ ____
ROOT
ATOM      1  O   UNL     1      31.896 -23.902 -14.900  0.00  0.00    -0.352 OA
ATOM      2  N   UNL     1      34.588 -21.535 -18.978  0.00  0.00    -0.316 N 
ATOM      3  N   UNL     1      32.916 -24.346 -14.067  0.00  0.00    -0.077 NA
ATOM      4  N   UNL     1      32.487 -22.124 -18.024  0.00  0.00    -0.226 NA
ATOM      5  C   UNL     1      33.818 -23.300 -15.883  0.00  0.00    +0.062 A 
ATOM      6  C   UNL     1      34.051 -23.979 -14.671  0.00  0.00    +0.123 A 
ATOM      7  C   UNL     1      33.842 -22.142 -17.934  0.00  0.00    +0.129 C 
ATOM      8  C   UNL     1      34.576 -22.710 -16.896  0.00  0.00    +0.039 C 
ATOM      9  C   UNL     1      32.438 -23.279 -15.980  0.00  0.00    +0.196 A 
ATOM     10  C   UNL     1      31.760 -22.699 -17.036  0.00  0.00    +0.140 C 
ATOM     11  H   UNL     1      35.571 -21.541 -18.923  0.00  0.00    +0.148 HD
ENDROOT
BRANCH   6  14
ATOM     12 CL   UNL     1      38.232 -26.993 -14.541  0.00  0.00    -0.082 Cl
ATOM     13  C   UNL     1      37.044 -23.798 -12.448  0.00  0.00    -0.021 C 
ATOM     14  C   UNL     1      35.324 -24.285 -14.073  0.00  0.00    +0.021 C 
ATOM     15  C   UNL     1      35.809 -23.502 -13.026  0.00  0.00    -0.003 C 
ATOM     16  C   UNL     1      37.793 -24.878 -12.917  0.00  0.00    +0.007 C 
ATOM     17  C   UNL     1      36.073 -25.365 -14.542  0.00  0.00    +0.013 C 
ATOM     18  C   UNL     1      37.307 -25.661 -13.964  0.00  0.00    +0.057 C 
BRANCH  13  19
ATOM     19  C   UNL     1      37.563 -22.960 -11.329  0.00  0.00    +0.029 C 
BRANCH  19  20
ATOM     20  C   UNL     1      36.734 -23.121 -10.049  0.00  0.00    +0.036 C 
BRANCH  20  21
ATOM     21  C   UNL     1      35.751 -24.279 -10.144  0.00  0.00    +0.138 C 
BRANCH  21  22
ATOM     22  O   UNL     1      35.333 -24.636  -8.833  0.00  0.00    -0.382 OA
ATOM     23  H   UNL     1      35.846 -25.400  -8.528  0.00  0.00    +0.210 HD
ENDBRANCH  21  22
ENDBRANCH  20  21
ENDBRANCH  19  20
ENDBRANCH  13  19
ENDBRANCH   6  14
BRANCH   2  24
ATOM     24  C   UNL     1      33.970 -20.917 -20.105  0.00  0.00    +0.093 C 
ATOM     25  C   UNL     1      32.671 -20.245 -19.668  0.00  0.00    +0.026 C 
BRANCH  24  26
ATOM     26  C   UNL     1      34.936 -19.961 -20.771  0.00  0.00    -0.005 C 
ATOM     27  C   UNL     1      34.584 -19.334 -21.966  0.00  0.00    -0.003 C 
ATOM     28  C   UNL     1      36.178 -19.705 -20.189  0.00  0.00    -0.003 C 
ATOM     29  C   UNL     1      35.474 -18.453 -22.581  0.00  0.00    -0.000 C 
ATOM     30  C   UNL     1      37.068 -18.825 -20.803  0.00  0.00    -0.000 C 
ATOM     31  C   UNL     1      36.716 -18.198 -21.998  0.00  0.00    -0.000 C 
ENDBRANCH  24  26
ENDBRANCH   2  24
TORSDOF 7
ENDMDL
MODEL 5
REMARK VINA RESULT:      -9.8      3.088      8.505
REMARK  Name = 24941248
REMARK  7 active torsions:
REMARK  status: ('A' for Active; 'I' for Inactive)
REMARK    1  A    between atoms: N_2  and  C_24
REMARK    2  A    between atoms: C_6  and  C_14
REMARK    3  A    between atoms: C_13  and  C_19
REMARK    4  A    between atoms: C_19  and  C_20
REMARK    5  A    between atoms: C_20  and  C_21
REMARK    6  A    between atoms: C_21  and  O_22
REMARK    7  A    between atoms: C_24  and  C_26
REMARK                            x       y       z     vdW  Elec       q    Type
REMARK                         _______ _______ _______ _____ _____    ______ ____
ROOT
ATOM      1  O   UNL     1      33.122 -16.982 -25.560  0.00  0.00    -0.352 OA
ATOM      2  N   UNL     1      34.541 -12.434 -22.957  0.00  0.00    -0.316 N 
ATOM      3  N   UNL     1      33.632 -17.984 -24.743  0.00  0.00    -0.077 NA
ATOM      4  N   UNL     1      33.458 -13.429 -24.830  0.00  0.00    -0.226 NA
ATOM      5  C   UNL     1      34.114 -15.944 -23.839  0.00  0.00    +0.062 A 
ATOM      6  C   UNL     1      34.219 -17.345 -23.725  0.00  0.00    +0.123 A 
ATOM      7  C   UNL     1      34.149 -13.595 -23.672  0.00  0.00    +0.129 C 
ATOM      8  C   UNL     1      34.511 -14.819 -23.116  0.00  0.00    +0.039 C 
ATOM      9  C   UNL     1      33.411 -15.769 -25.018  0.00  0.00    +0.196 A 
ATOM     10  C   UNL     1      33.076 -14.528 -25.525  0.00  0.00    +0.140 C 
ATOM     11  H   UNL     1      35.042 -12.542 -22.115  0.00  0.00    +0.148 HD
ENDROOT
BRANCH   6  14
ATOM     12 CL   UNL     1      38.564 -18.576 -21.239  0.00  0.00    -0.082 Cl
ATOM     13  C   UNL     1      34.729 -19.633 -20.822  0.00  0.00    -0.021 C 
ATOM     14  C   UNL     1      34.862 -18.089 -22.674  0.00  0.00    +0.021 C 
ATOM     15  C   UNL     1      34.107 -18.914 -21.841  0.00  0.00    -0.003 C 
ATOM     16  C   UNL     1      36.108 -19.529 -20.636  0.00  0.00    +0.007 C 
ATOM     17  C   UNL     1      36.241 -17.984 -22.488  0.00  0.00    +0.013 C 
ATOM     18  C   UNL     1      36.864 -18.704 -21.469  0.00  0.00    +0.057 C 
BRANCH  13  19
ATOM     19  C   UNL     1      33.922 -20.515 -19.930  0.00  0.00    +0.029 C 
BRANCH  19  20
ATOM     20  C   UNL     1      34.797 -21.476 -19.116  0.00  0.00    +0.036 C 
BRANCH  20  21
ATOM     21  C   UNL     1      33.967 -22.410 -18.246  0.00  0.00    +0.138 C 
BRANCH  21  22
ATOM     22  O   UNL     1      33.827 -23.657 -18.913  0.00  0.00    -0.382 OA
ATOM     23  H   UNL     1      33.253 -24.239 -18.392  0.00  0.00    +0.210 HD
ENDBRANCH  21  22
ENDBRANCH  20  21
ENDBRANCH  19  20
ENDBRANCH  13  19
ENDBRANCH   6  14
BRANCH   2  24
ATOM     24  C   UNL     1      34.241 -11.115 -23.408  0.00  0.00    +0.093 C 
ATOM     25  C   UNL     1      34.050 -11.127 -24.923  0.00  0.00    +0.026 C 
BRANCH  24  26
ATOM     26  C   UNL     1      33.041 -10.569 -22.665  0.00  0.00    -0.005 C 
ATOM     27  C   UNL     1      32.364 -11.371 -21.748  0.00  0.00    -0.003 C 
ATOM     28  C   UNL     1      32.613  -9.262 -22.898  0.00  0.00    -0.003 C 
ATOM     29  C   UNL     1      31.256 -10.868 -21.064  0.00  0.00    -0.000 C 
ATOM     30  C   UNL     1      31.507  -8.758 -22.214  0.00  0.00    -0.000 C 
ATOM     31  C   UNL     1      30.829  -9.561 -21.297  0.00  0.00    -0.000 C 
ENDBRANCH  24  26
ENDBRANCH   2  24
TORSDOF 7
ENDMDL
MODEL 6
REMARK VINA RESULT:      -9.5      4.134     10.226
REMARK  Name = 24941248
REMARK  7 active torsions:
REMARK  status: ('A' for Active; 'I' for Inactive)
REMARK    1  A    between atoms: N_2  and  C_24
REMARK    2  A    between atoms: C_6  and  C_14
REMARK    3  A    between atoms: C_13  and  C_19
REMARK    4  A    between atoms: C_19  and  C_20
REMARK    5  A    between atoms: C_20  and  C_21
REMARK    6  A    between atoms: C_21  and  O_22
REMARK    7  A    between atoms: C_24  and  C_26
REMARK                            x       y       z     vdW  Elec       q    Type
REMARK                         _______ _______ _______ _____ _____    ______ ____
ROOT
ATOM      1  O   UNL     1      31.502 -12.236 -19.793  0.00  0.00    -0.352 OA
ATOM      2  N   UNL     1      32.890  -8.054 -22.966  0.00  0.00    -0.316 N 
ATOM      3  N   UNL     1      32.043 -13.328 -20.459  0.00  0.00    -0.077 NA
ATOM      4  N   UNL     1      31.793  -8.808 -20.991  0.00  0.00    -0.226 NA
ATOM      5  C   UNL     1      32.505 -11.421 -21.624  0.00  0.00    +0.062 A 
ATOM      6  C   UNL     1      32.634 -12.822 -21.546  0.00  0.00    +0.123 A 
ATOM      7  C   UNL     1      32.505  -9.116 -22.106  0.00  0.00    +0.129 C 
ATOM      8  C   UNL     1      32.897 -10.396 -22.487  0.00  0.00    +0.039 C 
ATOM      9  C   UNL     1      31.780 -11.102 -20.490  0.00  0.00    +0.196 A 
ATOM     10  C   UNL     1      31.418  -9.810 -20.159  0.00  0.00    +0.140 C 
ATOM     11  H   UNL     1      33.407  -8.265 -23.777  0.00  0.00    +0.148 HD
ENDROOT
BRANCH   6  14
ATOM     12 CL   UNL     1      33.595 -14.101 -26.447  0.00  0.00    -0.082 Cl
ATOM     13  C   UNL     1      34.772 -15.559 -22.913  0.00  0.00    -0.021 C 
ATOM     14  C   UNL     1      33.306 -13.689 -22.479  0.00  0.00    +0.021 C 
ATOM     15  C   UNL     1      34.120 -14.720 -22.010  0.00  0.00    -0.003 C 
ATOM     16  C   UNL     1      34.609 -15.368 -24.286  0.00  0.00    +0.007 C 
ATOM     17  C   UNL     1      33.143 -13.498 -23.851  0.00  0.00    +0.013 C 
ATOM     18  C   UNL     1      33.795 -14.337 -24.754  0.00  0.00    +0.057 C 
BRANCH  13  19
ATOM     19  C   UNL     1      35.643 -16.661 -22.413  0.00  0.00    +0.029 C 
BRANCH  19  20
ATOM     20  C   UNL     1      35.318 -17.046 -20.964  0.00  0.00    +0.036 C 
BRANCH  20  21
ATOM     21  C   UNL     1      35.535 -18.530 -20.703  0.00  0.00    +0.138 C 
BRANCH  21  22
ATOM     22  O   UNL     1      36.729 -18.694 -19.950  0.00  0.00    -0.382 OA
ATOM     23  H   UNL     1      37.176 -17.838 -19.862  0.00  0.00    +0.210 HD
ENDBRANCH  21  22
ENDBRANCH  20  21
ENDBRANCH  19  20
ENDBRANCH  13  19
ENDBRANCH   6  14
BRANCH   2  24
ATOM     24  C   UNL     1      32.557  -6.693 -22.703  0.00  0.00    +0.093 C 
ATOM     25  C   UNL     1      33.175  -6.266 -21.374  0.00  0.00    +0.026 C 
BRANCH  24  26
ATOM     26  C   UNL     1      32.982  -5.817 -23.862  0.00  0.00    -0.005 C 
ATOM     27  C   UNL     1      34.336  -5.642 -24.143  0.00  0.00    -0.003 C 
ATOM     28  C   UNL     1      32.019  -5.186 -24.649  0.00  0.00    -0.003 C 
ATOM     29  C   UNL     1      34.729  -4.834 -25.211  0.00  0.00    -0.000 C 
ATOM     30  C   UNL     1      32.410  -4.378 -25.716  0.00  0.00    -0.000 C 
ATOM     31  C   UNL     1      33.765  -4.203 -25.998  0.00  0.00    -0.000 C 
ENDBRANCH  24  26
ENDBRANCH   2  24
TORSDOF 7
ENDMDL
MODEL 7
REMARK VINA RESULT:      -9.3      5.930     10.543
REMARK  Name = 24941248
REMARK  7 active torsions:
REMARK  status: ('A' for Active; 'I' for Inactive)
REMARK    1  A    between atoms: N_2  and  C_24
REMARK    2  A    between atoms: C_6  and  C_14
REMARK    3  A    between atoms: C_13  and  C_19
REMARK    4  A    between atoms: C_19  and  C_20
REMARK    5  A    between atoms: C_20  and  C_21
REMARK    6  A    between atoms: C_21  and  O_22
REMARK    7  A    between atoms: C_24  and  C_26
REMARK                            x       y       z     vdW  Elec       q    Type
REMARK                         _______ _______ _______ _____ _____    ______ ____
ROOT
ATOM      1  O   UNL     1      31.941 -21.891 -18.677  0.00  0.00    -0.352 OA
ATOM      2  N   UNL     1      36.083 -19.211 -20.944  0.00  0.00    -0.316 N 
ATOM      3  N   UNL     1      32.532 -22.518 -17.587  0.00  0.00    -0.077 NA
ATOM      4  N   UNL     1      33.767 -19.762 -21.001  0.00  0.00    -0.226 NA
ATOM      5  C   UNL     1      34.105 -21.309 -18.715  0.00  0.00    +0.062 A 
ATOM      6  C   UNL     1      33.819 -22.160 -17.628  0.00  0.00    +0.123 A 
ATOM      7  C   UNL     1      34.971 -19.893 -20.386  0.00  0.00    +0.129 C 
ATOM      8  C   UNL     1      35.215 -20.648 -19.242  0.00  0.00    +0.039 C 
ATOM      9  C   UNL     1      32.881 -21.172 -19.346  0.00  0.00    +0.196 A 
ATOM     10  C   UNL     1      32.695 -20.407 -20.482  0.00  0.00    +0.140 C 
ATOM     11  H   UNL     1      36.961 -19.298 -20.505  0.00  0.00    +0.148 HD
ENDROOT
BRANCH   6  14
ATOM     12 CL   UNL     1      38.669 -22.450 -15.902  0.00  0.00    -0.082 Cl
ATOM     13  C   UNL     1      35.162 -23.854 -14.586  0.00  0.00    -0.021 C 
ATOM     14  C   UNL     1      34.739 -22.638 -16.629  0.00  0.00    +0.021 C 
ATOM     15  C   UNL     1      34.271 -23.391 -15.554  0.00  0.00    -0.003 C 
ATOM     16  C   UNL     1      36.522 -23.562 -14.694  0.00  0.00    +0.007 C 
ATOM     17  C   UNL     1      36.099 -22.346 -16.737  0.00  0.00    +0.013 C 
ATOM     18  C   UNL     1      36.991 -22.808 -15.769  0.00  0.00    +0.057 C 
BRANCH  13  19
ATOM     19  C   UNL     1      34.661 -24.659 -13.434  0.00  0.00    +0.029 C 
BRANCH  19  20
ATOM     20  C   UNL     1      34.943 -23.983 -12.086  0.00  0.00    +0.036 C 
BRANCH  20  21
ATOM     21  C   UNL     1      35.925 -24.779 -11.239  0.00  0.00    +0.138 C 
BRANCH  21  22
ATOM     22  O   UNL     1      35.318 -25.075  -9.988  0.00  0.00    -0.382 OA
ATOM     23  H   UNL     1      35.506 -25.996  -9.749  0.00  0.00    +0.210 HD
ENDBRANCH  21  22
ENDBRANCH  20  21
ENDBRANCH  19  20
ENDBRANCH  13  19
ENDBRANCH   6  14
BRANCH   2  24
ATOM     24  C   UNL     1      35.982 -18.403 -22.114  0.00  0.00    +0.093 C 
ATOM     25  C   UNL     1      35.114 -19.115 -23.150  0.00  0.00    +0.026 C 
BRANCH  24  26
ATOM     26  C   UNL     1      35.465 -17.026 -21.757  0.00  0.00    -0.005 C 
ATOM     27  C   UNL     1      35.177 -16.107 -22.763  0.00  0.00    -0.003 C 
ATOM     28  C   UNL     1      35.277 -16.678 -20.419  0.00  0.00    -0.003 C 
ATOM     29  C   UNL     1      34.701 -14.836 -22.434  0.00  0.00    -0.000 C 
ATOM     30  C   UNL     1      34.802 -15.409 -20.089  0.00  0.00    -0.000 C 
ATOM     31  C   UNL     1      34.513 -14.488 -21.097  0.00  0.00    -0.000 C 
ENDBRANCH  24  26
ENDBRANCH   2  24
TORSDOF 7
ENDMDL
MODEL 8
REMARK VINA RESULT:      -9.3      5.936     10.478
REMARK  Name = 24941248
REMARK  7 active torsions:
REMARK  status: ('A' for Active; 'I' for Inactive)
REMARK    1  A    between atoms: N_2  and  C_24
REMARK    2  A    between atoms: C_6  and  C_14
REMARK    3  A    between atoms: C_13  and  C_19
REMARK    4  A    between atoms: C_19  and  C_20
REMARK    5  A    between atoms: C_20  and  C_21
REMARK    6  A    between atoms: C_21  and  O_22
REMARK    7  A    between atoms: C_24  and  C_26
REMARK                            x       y       z     vdW  Elec       q    Type
REMARK                         _______ _______ _______ _____ _____    ______ ____
ROOT
ATOM      1  O   UNL     1      37.083 -22.356 -16.922  0.00  0.00    -0.352 OA
ATOM      2  N   UNL     1      34.312 -19.947 -20.922  0.00  0.00    -0.316 N 
ATOM      3  N   UNL     1      36.079 -22.884 -16.119  0.00  0.00    -0.077 NA
ATOM      4  N   UNL     1      36.432 -20.477 -19.974  0.00  0.00    -0.226 NA
ATOM      5  C   UNL     1      35.142 -21.805 -17.897  0.00  0.00    +0.062 A 
ATOM      6  C   UNL     1      34.933 -22.545 -16.716  0.00  0.00    +0.123 A 
ATOM      7  C   UNL     1      35.078 -20.563 -19.898  0.00  0.00    +0.129 C 
ATOM      8  C   UNL     1      34.365 -21.209 -18.892  0.00  0.00    +0.039 C 
ATOM      9  C   UNL     1      36.520 -21.714 -17.980  0.00  0.00    +0.196 A 
ATOM     10  C   UNL     1      37.178 -21.059 -19.004  0.00  0.00    +0.140 C 
ATOM     11  H   UNL     1      33.330 -20.004 -20.877  0.00  0.00    +0.148 HD
ENDROOT
BRANCH   6  14
ATOM     12 CL   UNL     1      32.380 -25.029 -12.989  0.00  0.00    -0.082 Cl
ATOM     13  C   UNL     1      31.256 -22.926 -16.201  0.00  0.00    -0.021 C 
ATOM     14  C   UNL     1      33.671 -22.936 -16.145  0.00  0.00    +0.021 C 
ATOM     15  C   UNL     1      32.479 -22.548 -16.755  0.00  0.00    -0.003 C 
ATOM     16  C   UNL     1      31.226 -23.694 -15.036  0.00  0.00    +0.007 C 
ATOM     17  C   UNL     1      33.641 -23.704 -14.980  0.00  0.00    +0.013 C 
ATOM     18  C   UNL     1      32.418 -24.082 -14.426  0.00  0.00    +0.057 C 
BRANCH  13  19
ATOM     19  C   UNL     1      29.981 -22.510 -16.853  0.00  0.00    +0.029 C 
BRANCH  19  20
ATOM     20  C   UNL     1      28.797 -22.525 -15.877  0.00  0.00    +0.036 C 
BRANCH  20  21
ATOM     21  C   UNL     1      27.528 -23.061 -16.523  0.00  0.00    +0.138 C 
BRANCH  21  22
ATOM     22  O   UNL     1      27.752 -24.404 -16.931  0.00  0.00    -0.382 OA
ATOM     23  H   UNL     1      28.688 -24.627 -16.808  0.00  0.00    +0.210 HD
ENDBRANCH  21  22
ENDBRANCH  20  21
ENDBRANCH  19  20
ENDBRANCH  13  19
ENDBRANCH   6  14
BRANCH   2  24
ATOM     24  C   UNL     1      34.908 -19.249 -22.013  0.00  0.00    +0.093 C 
ATOM     25  C   UNL     1      34.184 -19.615 -23.306  0.00  0.00    +0.026 C 
BRANCH  24  26
ATOM     26  C   UNL     1      34.915 -17.761 -21.740  0.00  0.00    -0.005 C 
ATOM     27  C   UNL     1      34.965 -17.292 -20.428  0.00  0.00    -0.003 C 
ATOM     28  C   UNL     1      34.873 -16.857 -22.802  0.00  0.00    -0.003 C 
ATOM     29  C   UNL     1      34.971 -15.920 -20.176  0.00  0.00    -0.000 C 
ATOM     30  C   UNL     1      34.879 -15.485 -22.551  0.00  0.00    -0.000 C 
ATOM     31  C   UNL     1      34.929 -15.016 -21.238  0.00  0.00    -0.000 C 
ENDBRANCH  24  26
ENDBRANCH   2  24
TORSDOF 7
ENDMDL
