MODEL 1
REMARK VINA RESULT:     -11.7      0.000      0.000
REMARK  Name = 11314340
REMARK  7 active torsions:
REMARK  status: ('A' for Active; 'I' for Inactive)
REMARK    1  A    between atoms: C_2  and  C_10
REMARK    2  A    between atoms: C_3  and  O_18
REMARK    3  A    between atoms: O_18  and  C_19
REMARK    4  A    between atoms: C_19  and  C_20
REMARK    5  A    between atoms: C_20  and  N_21
REMARK    6  A    between atoms: C_20  and  C_25
REMARK    7  A    between atoms: C_25  and  C_26
REMARK                            x       y       z     vdW  Elec       q    Type
REMARK                         _______ _______ _______ _____ _____    ______ ____
ROOT
ATOM      1  N   UNL     1      33.678 -15.667 -25.485  0.00  0.00    -0.239 NA
ATOM      2  C   UNL     1      33.912 -13.850 -23.918  0.00  0.00    +0.022 C 
ATOM      3  C   UNL     1      34.950 -15.961 -23.451  0.00  0.00    +0.158 C 
ATOM      4  C   UNL     1      34.680 -14.647 -23.083  0.00  0.00    +0.040 C 
ATOM      5  C   UNL     1      33.437 -14.395 -25.095  0.00  0.00    +0.099 C 
ATOM      6  C   UNL     1      34.430 -16.419 -24.650  0.00  0.00    +0.136 C 
ENDROOT
BRANCH   2  10
ATOM      7  N   UNL     1      31.975  -8.979 -21.435  0.00  0.00    -0.280 N 
ATOM      8  N   UNL     1      32.727  -8.629 -22.497  0.00  0.00    -0.173 NA
ATOM      9  C   UNL     1      32.608 -10.883 -22.232  0.00  0.00    +0.032 A 
ATOM     10  C   UNL     1      33.612 -12.475 -23.562  0.00  0.00    +0.002 C 
ATOM     11  C   UNL     1      33.140  -9.798 -23.021  0.00  0.00    +0.102 A 
ATOM     12  C   UNL     1      32.797 -12.243 -22.437  0.00  0.00    +0.003 C 
ATOM     13  C   UNL     1      31.869 -10.324 -21.228  0.00  0.00    +0.053 A 
ATOM     14  C   UNL     1      34.164 -11.435 -24.375  0.00  0.00    +0.002 C 
ATOM     15  C   UNL     1      33.952 -10.058 -24.140  0.00  0.00    +0.021 C 
ATOM     16  C   UNL     1      31.087 -10.882 -20.112  0.00  0.00    +0.051 C 
ATOM     17  H   UNL     1      31.537  -8.316 -20.854  0.00  0.00    +0.189 HD
ENDBRANCH   2  10
BRANCH   3  18
ATOM     18  O   UNL     1      35.699 -16.767 -22.658  0.00  0.00    -0.476 OA
BRANCH  18  19
ATOM     19  C   UNL     1      35.438 -18.171 -22.719  0.00  0.00    +0.184 C 
BRANCH  19  20
ATOM     20  C   UNL     1      35.439 -18.773 -21.309  0.00  0.00    -0.017 C 
BRANCH  20  21
ATOM     21  N   UNL     1      35.666 -17.692 -20.345  0.00  0.00    +0.384 N 
ATOM     22  H   UNL     1      35.499 -16.793 -20.796  0.00  0.00    -0.089 HD
ATOM     23  H   UNL     1      36.630 -17.732 -20.011  0.00  0.00    -0.089 HD
ATOM     24  H   UNL     1      35.028 -17.801 -19.555  0.00  0.00    -0.089 HD
ENDBRANCH  20  21
BRANCH  20  25
ATOM     25  C   UNL     1      34.111 -19.472 -20.946  0.00  0.00    +0.008 C 
BRANCH  25  26
ATOM     26  C   UNL     1      34.227 -20.520 -19.866  0.00  0.00    -0.024 C 
ATOM     27  C   UNL     1      35.484 -20.933 -19.452  0.00  0.00    -0.004 C 
ATOM     28  C   UNL     1      33.075 -21.050 -19.307  0.00  0.00    -0.004 C 
ATOM     29  C   UNL     1      35.592 -21.901 -18.454  0.00  0.00    -0.000 C 
ATOM     30  C   UNL     1      33.183 -22.019 -18.309  0.00  0.00    -0.000 C 
ATOM     31  C   UNL     1      34.441 -22.445 -17.882  0.00  0.00    -0.000 C 
ENDBRANCH  25  26
ENDBRANCH  20  25
ENDBRANCH  19  20
ENDBRANCH  18  19
ENDBRANCH   3  18
TORSDOF 7
ENDMDL
MODEL 2
REMARK VINA RESULT:     -11.6      1.971      9.026
REMARK  Name = 11314340
REMARK  7 active torsions:
REMARK  status: ('A' for Active; 'I' for Inactive)
REMARK    1  A    between atoms: C_2  and  C_10
REMARK    2  A    between atoms: C_3  and  O_18
REMARK    3  A    between atoms: O_18  and  C_19
REMARK    4  A    between atoms: C_19  and  C_20
REMARK    5  A    between atoms: C_20  and  N_21
REMARK    6  A    between atoms: C_20  and  C_25
REMARK    7  A    between atoms: C_25  and  C_26
REMARK                            x       y       z     vdW  Elec       q    Type
REMARK                         _______ _______ _______ _____ _____    ______ ____
ROOT
ATOM      1  N   UNL     1      33.766 -17.878 -24.833  0.00  0.00    -0.239 NA
ATOM      2  C   UNL     1      34.852 -18.003 -22.683  0.00  0.00    +0.022 C 
ATOM      3  C   UNL     1      34.544 -15.870 -23.735  0.00  0.00    +0.158 C 
ATOM      4  C   UNL     1      35.010 -16.626 -22.664  0.00  0.00    +0.040 C 
ATOM      5  C   UNL     1      34.232 -18.580 -23.775  0.00  0.00    +0.099 C 
ATOM      6  C   UNL     1      33.936 -16.538 -24.785  0.00  0.00    +0.136 C 
ENDROOT
BRANCH   2  10
ATOM      7  N   UNL     1      35.393 -21.724 -18.267  0.00  0.00    -0.280 N 
ATOM      8  N   UNL     1      36.595 -21.152 -18.474  0.00  0.00    -0.173 NA
ATOM      9  C   UNL     1      35.019 -20.387 -19.921  0.00  0.00    +0.032 A 
ATOM     10  C   UNL     1      35.328 -18.820 -21.582  0.00  0.00    +0.002 C 
ATOM     11  C   UNL     1      36.398 -20.308 -19.503  0.00  0.00    +0.102 A 
ATOM     12  C   UNL     1      34.409 -19.678 -20.947  0.00  0.00    +0.003 C 
ATOM     13  C   UNL     1      34.407 -21.301 -19.110  0.00  0.00    +0.053 A 
ATOM     14  C   UNL     1      36.704 -18.706 -21.207  0.00  0.00    +0.002 C 
ATOM     15  C   UNL     1      37.294 -19.442 -20.155  0.00  0.00    +0.021 C 
ATOM     16  C   UNL     1      33.032 -21.822 -19.026  0.00  0.00    +0.051 C 
ATOM     17  H   UNL     1      35.239 -22.396 -17.564  0.00  0.00    +0.189 HD
ENDBRANCH   2  10
BRANCH   3  18
ATOM     18  O   UNL     1      34.681 -14.520 -23.748  0.00  0.00    -0.476 OA
BRANCH  18  19
ATOM     19  C   UNL     1      34.491 -13.830 -22.512  0.00  0.00    +0.184 C 
BRANCH  19  20
ATOM     20  C   UNL     1      33.684 -12.547 -22.738  0.00  0.00    -0.017 C 
BRANCH  20  21
ATOM     21  N   UNL     1      33.431 -12.407 -24.175  0.00  0.00    +0.384 N 
ATOM     22  H   UNL     1      33.697 -11.471 -24.479  0.00  0.00    -0.089 HD
ATOM     23  H   UNL     1      32.439 -12.556 -24.362  0.00  0.00    -0.089 HD
ATOM     24  H   UNL     1      33.981 -13.099 -24.686  0.00  0.00    -0.089 HD
ENDBRANCH  20  21
BRANCH  20  25
ATOM     25  C   UNL     1      32.325 -12.546 -22.007  0.00  0.00    +0.008 C 
BRANCH  25  26
ATOM     26  C   UNL     1      32.100 -11.360 -21.099  0.00  0.00    -0.024 C 
ATOM     27  C   UNL     1      31.967 -10.096 -21.653  0.00  0.00    -0.004 C 
ATOM     28  C   UNL     1      32.029 -11.557 -19.729  0.00  0.00    -0.004 C 
ATOM     29  C   UNL     1      31.759  -9.001 -20.816  0.00  0.00    -0.000 C 
ATOM     30  C   UNL     1      31.821 -10.460 -18.892  0.00  0.00    -0.000 C 
ATOM     31  C   UNL     1      31.686  -9.183 -19.434  0.00  0.00    -0.000 C 
ENDBRANCH  25  26
ENDBRANCH  20  25
ENDBRANCH  19  20
ENDBRANCH  18  19
ENDBRANCH   3  18
TORSDOF 7
ENDMDL
MODEL 3
REMARK VINA RESULT:     -11.5      0.789      1.989
REMARK  Name = 11314340
REMARK  7 active torsions:
REMARK  status: ('A' for Active; 'I' for Inactive)
REMARK    1  A    between atoms: C_2  and  C_10
REMARK    2  A    between atoms: C_3  and  O_18
REMARK    3  A    between atoms: O_18  and  C_19
REMARK    4  A    between atoms: C_19  and  C_20
REMARK    5  A    between atoms: C_20  and  N_21
REMARK    6  A    between atoms: C_20  and  C_25
REMARK    7  A    between atoms: C_25  and  C_26
REMARK                            x       y       z     vdW  Elec       q    Type
REMARK                         _______ _______ _______ _____ _____    ______ ____
ROOT
ATOM      1  N   UNL     1      33.805 -15.063 -25.290  0.00  0.00    -0.239 NA
ATOM      2  C   UNL     1      33.581 -13.909 -23.185  0.00  0.00    +0.022 C 
ATOM      3  C   UNL     1      34.958 -15.867 -23.324  0.00  0.00    +0.158 C 
ATOM      4  C   UNL     1      34.423 -14.826 -22.574  0.00  0.00    +0.040 C 
ATOM      5  C   UNL     1      33.303 -14.064 -24.529  0.00  0.00    +0.099 C 
ATOM      6  C   UNL     1      34.621 -15.941 -24.665  0.00  0.00    +0.136 C 
ENDROOT
BRANCH   2  10
ATOM      7  N   UNL     1      31.889  -8.730 -21.197  0.00  0.00    -0.280 N 
ATOM      8  N   UNL     1      31.414  -9.669 -20.355  0.00  0.00    -0.173 NA
ATOM      9  C   UNL     1      32.599 -10.571 -22.072  0.00  0.00    +0.032 A 
ATOM     10  C   UNL     1      33.006 -12.811 -22.429  0.00  0.00    +0.002 C 
ATOM     11  C   UNL     1      31.841 -10.836 -20.873  0.00  0.00    +0.102 A 
ATOM     12  C   UNL     1      33.212 -11.501 -22.902  0.00  0.00    +0.003 C 
ATOM     13  C   UNL     1      32.610  -9.216 -22.248  0.00  0.00    +0.053 A 
ATOM     14  C   UNL     1      32.261 -13.126 -21.248  0.00  0.00    +0.002 C 
ATOM     15  C   UNL     1      31.650 -12.155 -20.424  0.00  0.00    +0.021 C 
ATOM     16  C   UNL     1      33.201  -8.331 -23.265  0.00  0.00    +0.051 C 
ATOM     17  H   UNL     1      31.727  -7.768 -21.063  0.00  0.00    +0.189 HD
ENDBRANCH   2  10
BRANCH   3  18
ATOM     18  O   UNL     1      35.786 -16.781 -22.758  0.00  0.00    -0.476 OA
BRANCH  18  19
ATOM     19  C   UNL     1      35.365 -18.146 -22.779  0.00  0.00    +0.184 C 
BRANCH  19  20
ATOM     20  C   UNL     1      35.409 -18.737 -21.365  0.00  0.00    -0.017 C 
BRANCH  20  21
ATOM     21  N   UNL     1      35.653 -17.647 -20.416  0.00  0.00    +0.384 N 
ATOM     22  H   UNL     1      36.468 -17.869 -19.844  0.00  0.00    -0.089 HD
ATOM     23  H   UNL     1      34.836 -17.532 -19.814  0.00  0.00    -0.089 HD
ATOM     24  H   UNL     1      35.822 -16.781 -20.929  0.00  0.00    -0.089 HD
ENDBRANCH  20  21
BRANCH  20  25
ATOM     25  C   UNL     1      34.098 -19.445 -20.961  0.00  0.00    +0.008 C 
BRANCH  25  26
ATOM     26  C   UNL     1      34.255 -20.495 -19.888  0.00  0.00    -0.024 C 
ATOM     27  C   UNL     1      33.123 -21.067 -19.326  0.00  0.00    -0.004 C 
ATOM     28  C   UNL     1      35.527 -20.871 -19.485  0.00  0.00    -0.004 C 
ATOM     29  C   UNL     1      33.267 -22.037 -18.335  0.00  0.00    -0.000 C 
ATOM     30  C   UNL     1      35.670 -21.842 -18.493  0.00  0.00    -0.000 C 
ATOM     31  C   UNL     1      34.541 -22.425 -17.918  0.00  0.00    -0.000 C 
ENDBRANCH  25  26
ENDBRANCH  20  25
ENDBRANCH  19  20
ENDBRANCH  18  19
ENDBRANCH   3  18
TORSDOF 7
ENDMDL
MODEL 4
REMARK VINA RESULT:     -11.4      3.000      6.132
REMARK  Name = 11314340
REMARK  7 active torsions:
REMARK  status: ('A' for Active; 'I' for Inactive)
REMARK    1  A    between atoms: C_2  and  C_10
REMARK    2  A    between atoms: C_3  and  O_18
REMARK    3  A    between atoms: O_18  and  C_19
REMARK    4  A    between atoms: C_19  and  C_20
REMARK    5  A    between atoms: C_20  and  N_21
REMARK    6  A    between atoms: C_20  and  C_25
REMARK    7  A    between atoms: C_25  and  C_26
REMARK                            x       y       z     vdW  Elec       q    Type
REMARK                         _______ _______ _______ _____ _____    ______ ____
ROOT
ATOM      1  N   UNL     1      37.366 -19.094 -19.910  0.00  0.00    -0.239 NA
ATOM      2  C   UNL     1      35.566 -18.816 -21.490  0.00  0.00    +0.022 C 
ATOM      3  C   UNL     1      35.585 -20.723 -20.037  0.00  0.00    +0.158 C 
ATOM      4  C   UNL     1      34.978 -19.992 -21.052  0.00  0.00    +0.040 C 
ATOM      5  C   UNL     1      36.747 -18.409 -20.898  0.00  0.00    +0.099 C 
ATOM      6  C   UNL     1      36.768 -20.236 -19.505  0.00  0.00    +0.136 C 
ENDROOT
BRANCH   2  10
ATOM      7  N   UNL     1      33.517 -14.578 -24.878  0.00  0.00    -0.280 N 
ATOM      8  N   UNL     1      33.262 -15.753 -25.488  0.00  0.00    -0.173 NA
ATOM      9  C   UNL     1      34.334 -16.028 -23.503  0.00  0.00    +0.032 A 
ATOM     10  C   UNL     1      34.957 -18.031 -22.548  0.00  0.00    +0.002 C 
ATOM     11  C   UNL     1      33.760 -16.684 -24.654  0.00  0.00    +0.102 A 
ATOM     12  C   UNL     1      34.948 -16.629 -22.412  0.00  0.00    +0.003 C 
ATOM     13  C   UNL     1      34.161 -14.685 -23.680  0.00  0.00    +0.053 A 
ATOM     14  C   UNL     1      34.403 -18.728 -23.668  0.00  0.00    +0.002 C 
ATOM     15  C   UNL     1      33.783 -18.086 -24.764  0.00  0.00    +0.021 C 
ATOM     16  C   UNL     1      34.520 -13.502 -22.879  0.00  0.00    +0.051 C 
ATOM     17  H   UNL     1      33.260 -13.711 -25.268  0.00  0.00    +0.189 HD
ENDBRANCH   2  10
BRANCH   3  18
ATOM     18  O   UNL     1      35.036 -21.878 -19.583  0.00  0.00    -0.476 OA
BRANCH  18  19
ATOM     19  C   UNL     1      34.985 -22.067 -18.168  0.00  0.00    +0.184 C 
BRANCH  19  20
ATOM     20  C   UNL     1      33.531 -22.187 -17.700  0.00  0.00    -0.017 C 
BRANCH  20  21
ATOM     21  N   UNL     1      32.661 -22.147 -18.879  0.00  0.00    +0.384 N 
ATOM     22  H   UNL     1      31.689 -22.057 -18.583  0.00  0.00    -0.089 HD
ATOM     23  H   UNL     1      32.775 -23.008 -19.415  0.00  0.00    -0.089 HD
ATOM     24  H   UNL     1      32.914 -21.348 -19.462  0.00  0.00    -0.089 HD
ENDBRANCH  20  21
BRANCH  20  25
ATOM     25  C   UNL     1      33.244 -23.496 -16.933  0.00  0.00    +0.008 C 
BRANCH  25  26
ATOM     26  C   UNL     1      32.363 -23.334 -15.719  0.00  0.00    -0.024 C 
ATOM     27  C   UNL     1      32.925 -23.420 -14.454  0.00  0.00    -0.004 C 
ATOM     28  C   UNL     1      31.007 -23.102 -15.889  0.00  0.00    -0.004 C 
ATOM     29  C   UNL     1      32.112 -23.270 -13.332  0.00  0.00    -0.000 C 
ATOM     30  C   UNL     1      30.193 -22.953 -14.765  0.00  0.00    -0.000 C 
ATOM     31  C   UNL     1      30.745 -23.037 -13.487  0.00  0.00    -0.000 C 
ENDBRANCH  25  26
ENDBRANCH  20  25
ENDBRANCH  19  20
ENDBRANCH  18  19
ENDBRANCH   3  18
TORSDOF 7
ENDMDL
MODEL 5
REMARK VINA RESULT:     -11.2      1.218      1.701
REMARK  Name = 11314340
REMARK  7 active torsions:
REMARK  status: ('A' for Active; 'I' for Inactive)
REMARK    1  A    between atoms: C_2  and  C_10
REMARK    2  A    between atoms: C_3  and  O_18
REMARK    3  A    between atoms: O_18  and  C_19
REMARK    4  A    between atoms: C_19  and  C_20
REMARK    5  A    between atoms: C_20  and  N_21
REMARK    6  A    between atoms: C_20  and  C_25
REMARK    7  A    between atoms: C_25  and  C_26
REMARK                            x       y       z     vdW  Elec       q    Type
REMARK                         _______ _______ _______ _____ _____    ______ ____
ROOT
ATOM      1  N   UNL     1      33.372 -14.216 -25.483  0.00  0.00    -0.239 NA
ATOM      2  C   UNL     1      33.515 -12.696 -23.617  0.00  0.00    +0.022 C 
ATOM      3  C   UNL     1      34.212 -14.975 -23.348  0.00  0.00    +0.158 C 
ATOM      4  C   UNL     1      34.026 -13.704 -22.814  0.00  0.00    +0.040 C 
ATOM      5  C   UNL     1      33.205 -12.993 -24.930  0.00  0.00    +0.099 C 
ATOM      6  C   UNL     1      33.871 -15.177 -24.675  0.00  0.00    +0.136 C 
ENDROOT
BRANCH   2  10
ATOM      7  N   UNL     1      31.969  -8.062 -20.491  0.00  0.00    -0.280 N 
ATOM      8  N   UNL     1      32.690  -7.627 -21.544  0.00  0.00    -0.173 NA
ATOM      9  C   UNL     1      32.458  -9.888 -21.534  0.00  0.00    +0.032 A 
ATOM     10  C   UNL     1      33.310 -11.359 -23.090  0.00  0.00    +0.002 C 
ATOM     11  C   UNL     1      33.012  -8.745 -22.220  0.00  0.00    +0.102 A 
ATOM     12  C   UNL     1      32.561 -11.222 -21.904  0.00  0.00    +0.003 C 
ATOM     13  C   UNL     1      31.798  -9.414 -20.435  0.00  0.00    +0.053 A 
ATOM     14  C   UNL     1      33.880 -10.259 -23.805  0.00  0.00    +0.002 C 
ATOM     15  C   UNL     1      33.756  -8.911 -23.402  0.00  0.00    +0.021 C 
ATOM     16  C   UNL     1      31.039 -10.061 -19.352  0.00  0.00    +0.051 C 
ATOM     17  H   UNL     1      31.596  -7.450 -19.815  0.00  0.00    +0.189 HD
ENDBRANCH   2  10
BRANCH   3  18
ATOM     18  O   UNL     1      34.711 -15.984 -22.590  0.00  0.00    -0.476 OA
BRANCH  18  19
ATOM     19  C   UNL     1      35.177 -17.147 -23.275  0.00  0.00    +0.184 C 
BRANCH  19  20
ATOM     20  C   UNL     1      34.734 -18.414 -22.533  0.00  0.00    -0.017 C 
BRANCH  20  21
ATOM     21  N   UNL     1      34.836 -19.549 -23.454  0.00  0.00    +0.384 N 
ATOM     22  H   UNL     1      34.633 -20.414 -22.953  0.00  0.00    -0.089 HD
ATOM     23  H   UNL     1      35.780 -19.591 -23.838  0.00  0.00    -0.089 HD
ATOM     24  H   UNL     1      34.165 -19.431 -24.215  0.00  0.00    -0.089 HD
ENDBRANCH  20  21
BRANCH  20  25
ATOM     25  C   UNL     1      35.594 -18.723 -21.289  0.00  0.00    +0.008 C 
BRANCH  25  26
ATOM     26  C   UNL     1      35.054 -19.822 -20.407  0.00  0.00    -0.024 C 
ATOM     27  C   UNL     1      33.682 -19.976 -20.277  0.00  0.00    -0.004 C 
ATOM     28  C   UNL     1      35.938 -20.658 -19.743  0.00  0.00    -0.004 C 
ATOM     29  C   UNL     1      33.182 -20.992 -19.463  0.00  0.00    -0.000 C 
ATOM     30  C   UNL     1      35.437 -21.673 -18.929  0.00  0.00    -0.000 C 
ATOM     31  C   UNL     1      34.060 -21.841 -18.788  0.00  0.00    -0.000 C 
ENDBRANCH  25  26
ENDBRANCH  20  25
ENDBRANCH  19  20
ENDBRANCH  18  19
ENDBRANCH   3  18
TORSDOF 7
ENDMDL
MODEL 6
REMARK VINA RESULT:     -11.1      5.447     12.296
REMARK  Name = 11314340
REMARK  7 active torsions:
REMARK  status: ('A' for Active; 'I' for Inactive)
REMARK    1  A    between atoms: C_2  and  C_10
REMARK    2  A    between atoms: C_3  and  O_18
REMARK    3  A    between atoms: O_18  and  C_19
REMARK    4  A    between atoms: C_19  and  C_20
REMARK    5  A    between atoms: C_20  and  N_21
REMARK    6  A    between atoms: C_20  and  C_25
REMARK    7  A    between atoms: C_25  and  C_26
REMARK                            x       y       z     vdW  Elec       q    Type
REMARK                         _______ _______ _______ _____ _____    ______ ____
ROOT
ATOM      1  N   UNL     1      31.481 -23.381 -15.055  0.00  0.00    -0.239 NA
ATOM      2  C   UNL     1      33.892 -23.337 -15.056  0.00  0.00    +0.022 C 
ATOM      3  C   UNL     1      32.694 -22.807 -17.065  0.00  0.00    +0.158 C 
ATOM      4  C   UNL     1      33.900 -22.970 -16.394  0.00  0.00    +0.040 C 
ATOM      5  C   UNL     1      32.673 -23.529 -14.434  0.00  0.00    +0.099 C 
ATOM      6  C   UNL     1      31.523 -23.023 -16.358  0.00  0.00    +0.136 C 
ENDROOT
BRANCH   2  10
ATOM      7  N   UNL     1      37.973 -24.149 -11.016  0.00  0.00    -0.280 N 
ATOM      8  N   UNL     1      38.591 -24.027 -12.208  0.00  0.00    -0.173 NA
ATOM      9  C   UNL     1      36.332 -23.857 -12.388  0.00  0.00    +0.032 A 
ATOM     10  C   UNL     1      35.134 -23.516 -14.328  0.00  0.00    +0.002 C 
ATOM     11  C   UNL     1      37.593 -23.843 -13.091  0.00  0.00    +0.102 A 
ATOM     12  C   UNL     1      35.064 -23.700 -12.933  0.00  0.00    +0.003 C 
ATOM     13  C   UNL     1      36.613 -24.054 -11.066  0.00  0.00    +0.053 A 
ATOM     14  C   UNL     1      36.358 -23.494 -15.070  0.00  0.00    +0.002 C 
ATOM     15  C   UNL     1      37.633 -23.656 -14.485  0.00  0.00    +0.021 C 
ATOM     16  C   UNL     1      35.778 -24.166  -9.858  0.00  0.00    +0.051 C 
ATOM     17  H   UNL     1      38.465 -24.295 -10.176  0.00  0.00    +0.189 HD
ENDBRANCH   2  10
BRANCH   3  18
ATOM     18  O   UNL     1      32.666 -22.448 -18.373  0.00  0.00    -0.476 OA
BRANCH  18  19
ATOM     19  C   UNL     1      33.918 -22.178 -19.005  0.00  0.00    +0.184 C 
BRANCH  19  20
ATOM     20  C   UNL     1      33.775 -21.015 -19.994  0.00  0.00    -0.017 C 
BRANCH  20  21
ATOM     21  N   UNL     1      32.582 -20.244 -19.631  0.00  0.00    +0.384 N 
ATOM     22  H   UNL     1      32.737 -19.258 -19.840  0.00  0.00    -0.089 HD
ATOM     23  H   UNL     1      32.396 -20.356 -18.634  0.00  0.00    -0.089 HD
ATOM     24  H   UNL     1      31.782 -20.584 -20.166  0.00  0.00    -0.089 HD
ENDBRANCH  20  21
BRANCH  20  25
ATOM     25  C   UNL     1      34.987 -20.060 -19.990  0.00  0.00    +0.008 C 
BRANCH  25  26
ATOM     26  C   UNL     1      34.981 -19.031 -21.095  0.00  0.00    -0.024 C 
ATOM     27  C   UNL     1      35.369 -17.730 -20.814  0.00  0.00    -0.004 C 
ATOM     28  C   UNL     1      34.588 -19.405 -22.370  0.00  0.00    -0.004 C 
ATOM     29  C   UNL     1      35.364 -16.779 -21.834  0.00  0.00    -0.000 C 
ATOM     30  C   UNL     1      34.584 -18.453 -23.391  0.00  0.00    -0.000 C 
ATOM     31  C   UNL     1      34.971 -17.141 -23.123  0.00  0.00    -0.000 C 
ENDBRANCH  25  26
ENDBRANCH  20  25
ENDBRANCH  19  20
ENDBRANCH  18  19
ENDBRANCH   3  18
TORSDOF 7
ENDMDL
MODEL 7
REMARK VINA RESULT:     -11.0      4.762     11.395
REMARK  Name = 11314340
REMARK  7 active torsions:
REMARK  status: ('A' for Active; 'I' for Inactive)
REMARK    1  A    between atoms: C_2  and  C_10
REMARK    2  A    between atoms: C_3  and  O_18
REMARK    3  A    between atoms: O_18  and  C_19
REMARK    4  A    between atoms: C_19  and  C_20
REMARK    5  A    between atoms: C_20  and  N_21
REMARK    6  A    between atoms: C_20  and  C_25
REMARK    7  A    between atoms: C_25  and  C_26
REMARK                            x       y       z     vdW  Elec       q    Type
REMARK                         _______ _______ _______ _____ _____    ______ ____
ROOT
ATOM      1  N   UNL     1      36.872 -22.097 -16.341  0.00  0.00    -0.239 NA
ATOM      2  C   UNL     1      34.560 -22.776 -16.258  0.00  0.00    +0.022 C 
ATOM      3  C   UNL     1      35.454 -21.852 -18.283  0.00  0.00    +0.158 C 
ATOM      4  C   UNL     1      34.382 -22.388 -17.577  0.00  0.00    +0.040 C 
ATOM      5  C   UNL     1      35.808 -22.614 -15.687  0.00  0.00    +0.099 C 
ATOM      6  C   UNL     1      36.666 -21.727 -17.625  0.00  0.00    +0.136 C 
ENDROOT
BRANCH   2  10
ATOM      7  N   UNL     1      29.375 -24.406 -14.235  0.00  0.00    -0.280 N 
ATOM      8  N   UNL     1      30.314 -24.892 -13.400  0.00  0.00    -0.173 NA
ATOM      9  C   UNL     1      31.218 -23.718 -15.123  0.00  0.00    +0.032 A 
ATOM     10  C   UNL     1      33.461 -23.338 -15.495  0.00  0.00    +0.002 C 
ATOM     11  C   UNL     1      31.482 -24.479 -13.925  0.00  0.00    +0.102 A 
ATOM     12  C   UNL     1      32.150 -23.117 -15.959  0.00  0.00    +0.003 C 
ATOM     13  C   UNL     1      29.863 -23.691 -15.290  0.00  0.00    +0.053 A 
ATOM     14  C   UNL     1      33.775 -24.086 -14.316  0.00  0.00    +0.002 C 
ATOM     15  C   UNL     1      32.802 -24.686 -13.485  0.00  0.00    +0.021 C 
ATOM     16  C   UNL     1      28.977 -23.089 -16.301  0.00  0.00    +0.051 C 
ATOM     17  H   UNL     1      28.412 -24.556 -14.095  0.00  0.00    +0.189 HD
ENDBRANCH   2  10
BRANCH   3  18
ATOM     18  O   UNL     1      35.315 -21.463 -19.575  0.00  0.00    -0.476 OA
BRANCH  18  19
ATOM     19  C   UNL     1      34.405 -20.395 -19.843  0.00  0.00    +0.184 C 
BRANCH  19  20
ATOM     20  C   UNL     1      35.109 -19.281 -20.626  0.00  0.00    -0.017 C 
BRANCH  20  21
ATOM     21  N   UNL     1      36.525 -19.272 -20.246  0.00  0.00    +0.384 N 
ATOM     22  H   UNL     1      36.673 -18.595 -19.499  0.00  0.00    -0.089 HD
ATOM     23  H   UNL     1      37.092 -19.016 -21.055  0.00  0.00    -0.089 HD
ATOM     24  H   UNL     1      36.796 -20.202 -19.922  0.00  0.00    -0.089 HD
ENDBRANCH  20  21
BRANCH  20  25
ATOM     25  C   UNL     1      35.022 -19.464 -22.156  0.00  0.00    +0.008 C 
BRANCH  25  26
ATOM     26  C   UNL     1      34.800 -18.188 -22.931  0.00  0.00    -0.024 C 
ATOM     27  C   UNL     1      34.110 -18.234 -24.133  0.00  0.00    -0.004 C 
ATOM     28  C   UNL     1      35.289 -16.992 -22.427  0.00  0.00    -0.004 C 
ATOM     29  C   UNL     1      33.905 -17.055 -24.850  0.00  0.00    -0.000 C 
ATOM     30  C   UNL     1      35.083 -15.814 -23.145  0.00  0.00    -0.000 C 
ATOM     31  C   UNL     1      34.392 -15.844 -24.355  0.00  0.00    -0.000 C 
ENDBRANCH  25  26
ENDBRANCH  20  25
ENDBRANCH  19  20
ENDBRANCH  18  19
ENDBRANCH   3  18
TORSDOF 7
ENDMDL
MODEL 8
REMARK VINA RESULT:     -11.0      3.780      7.072
REMARK  Name = 11314340
REMARK  7 active torsions:
REMARK  status: ('A' for Active; 'I' for Inactive)
REMARK    1  A    between atoms: C_2  and  C_10
REMARK    2  A    between atoms: C_3  and  O_18
REMARK    3  A    between atoms: O_18  and  C_19
REMARK    4  A    between atoms: C_19  and  C_20
REMARK    5  A    between atoms: C_20  and  N_21
REMARK    6  A    between atoms: C_20  and  C_25
REMARK    7  A    between atoms: C_25  and  C_26
REMARK                            x       y       z     vdW  Elec       q    Type
REMARK                         _______ _______ _______ _____ _____    ______ ____
ROOT
ATOM      1  N   UNL     1      36.540 -21.198 -18.666  0.00  0.00    -0.239 NA
ATOM      2  C   UNL     1      35.139 -19.977 -20.203  0.00  0.00    +0.022 C 
ATOM      3  C   UNL     1      34.177 -21.683 -18.818  0.00  0.00    +0.158 C 
ATOM      4  C   UNL     1      34.031 -20.704 -19.795  0.00  0.00    +0.040 C 
ATOM      5  C   UNL     1      36.360 -20.255 -19.618  0.00  0.00    +0.099 C 
ATOM      6  C   UNL     1      35.441 -21.890 -18.290  0.00  0.00    +0.136 C 
ENDROOT
BRANCH   2  10
ATOM      7  N   UNL     1      34.748 -14.992 -23.140  0.00  0.00    -0.280 N 
ATOM      8  N   UNL     1      34.689 -16.001 -24.031  0.00  0.00    -0.173 NA
ATOM      9  C   UNL     1      34.906 -16.749 -21.897  0.00  0.00    +0.032 A 
ATOM     10  C   UNL     1      35.020 -18.950 -21.221  0.00  0.00    +0.002 C 
ATOM     11  C   UNL     1      34.785 -17.118 -23.287  0.00  0.00    +0.102 A 
ATOM     12  C   UNL     1      35.026 -17.603 -20.808  0.00  0.00    +0.003 C 
ATOM     13  C   UNL     1      34.879 -15.385 -21.840  0.00  0.00    +0.053 A 
ATOM     14  C   UNL     1      34.903 -19.366 -22.585  0.00  0.00    +0.002 C 
ATOM     15  C   UNL     1      34.781 -18.471 -23.671  0.00  0.00    +0.021 C 
ATOM     16  C   UNL     1      34.960 -14.414 -20.736  0.00  0.00    +0.051 C 
ATOM     17  H   UNL     1      34.702 -14.045 -23.407  0.00  0.00    +0.189 HD
ENDBRANCH   2  10
BRANCH   3  18
ATOM     18  O   UNL     1      33.113 -22.411 -18.395  0.00  0.00    -0.476 OA
BRANCH  18  19
ATOM     19  C   UNL     1      33.344 -23.366 -17.358  0.00  0.00    +0.184 C 
BRANCH  19  20
ATOM     20  C   UNL     1      32.791 -22.847 -16.026  0.00  0.00    -0.017 C 
BRANCH  20  21
ATOM     21  N   UNL     1      31.329 -22.950 -16.061  0.00  0.00    +0.384 N 
ATOM     22  H   UNL     1      31.014 -22.991 -17.029  0.00  0.00    -0.089 HD
ATOM     23  H   UNL     1      30.920 -22.134 -15.604  0.00  0.00    -0.089 HD
ATOM     24  H   UNL     1      31.035 -23.796 -15.570  0.00  0.00    -0.089 HD
ENDBRANCH  20  21
BRANCH  20  25
ATOM     25  C   UNL     1      33.301 -23.642 -14.805  0.00  0.00    +0.008 C 
BRANCH  25  26
ATOM     26  C   UNL     1      34.803 -23.750 -14.707  0.00  0.00    -0.024 C 
ATOM     27  C   UNL     1      35.386 -24.998 -14.541  0.00  0.00    -0.004 C 
ATOM     28  C   UNL     1      35.575 -22.601 -14.785  0.00  0.00    -0.004 C 
ATOM     29  C   UNL     1      36.773 -25.099 -14.451  0.00  0.00    -0.000 C 
ATOM     30  C   UNL     1      36.963 -22.703 -14.694  0.00  0.00    -0.000 C 
ATOM     31  C   UNL     1      37.563 -23.950 -14.527  0.00  0.00    -0.000 C 
ENDBRANCH  25  26
ENDBRANCH  20  25
ENDBRANCH  19  20
ENDBRANCH  18  19
ENDBRANCH   3  18
TORSDOF 7
ENDMDL
MODEL 9
REMARK VINA RESULT:     -10.9      4.098      7.512
REMARK  Name = 11314340
REMARK  7 active torsions:
REMARK  status: ('A' for Active; 'I' for Inactive)
REMARK    1  A    between atoms: C_2  and  C_10
REMARK    2  A    between atoms: C_3  and  O_18
REMARK    3  A    between atoms: O_18  and  C_19
REMARK    4  A    between atoms: C_19  and  C_20
REMARK    5  A    between atoms: C_20  and  N_21
REMARK    6  A    between atoms: C_20  and  C_25
REMARK    7  A    between atoms: C_25  and  C_26
REMARK                            x       y       z     vdW  Elec       q    Type
REMARK                         _______ _______ _______ _____ _____    ______ ____
ROOT
ATOM      1  N   UNL     1      32.698 -21.553 -18.978  0.00  0.00    -0.239 NA
ATOM      2  C   UNL     1      34.307 -20.186 -20.142  0.00  0.00    +0.022 C 
ATOM      3  C   UNL     1      35.059 -21.776 -18.512  0.00  0.00    +0.158 C 
ATOM      4  C   UNL     1      35.345 -20.787 -19.446  0.00  0.00    +0.040 C 
ATOM      5  C   UNL     1      33.014 -20.596 -19.878  0.00  0.00    +0.099 C 
ATOM      6  C   UNL     1      33.731 -22.119 -18.315  0.00  0.00    +0.136 C 
ENDROOT
BRANCH   2  10
ATOM      7  N   UNL     1      35.245 -15.184 -22.923  0.00  0.00    -0.280 N 
ATOM      8  N   UNL     1      35.318 -16.179 -23.829  0.00  0.00    -0.173 NA
ATOM      9  C   UNL     1      34.878 -16.950 -21.737  0.00  0.00    +0.032 A 
ATOM     10  C   UNL     1      34.573 -19.151 -21.123  0.00  0.00    +0.002 C 
ATOM     11  C   UNL     1      35.092 -17.300 -23.121  0.00  0.00    +0.102 A 
ATOM     12  C   UNL     1      34.613 -17.814 -20.682  0.00  0.00    +0.003 C 
ATOM     13  C   UNL     1      34.982 -15.591 -21.647  0.00  0.00    +0.053 A 
ATOM     14  C   UNL     1      34.780 -19.549 -22.482  0.00  0.00    +0.002 C 
ATOM     15  C   UNL     1      35.047 -18.644 -23.534  0.00  0.00    +0.021 C 
ATOM     16  C   UNL     1      34.870 -14.637 -20.531  0.00  0.00    +0.051 C 
ATOM     17  H   UNL     1      35.372 -14.237 -23.163  0.00  0.00    +0.189 HD
ENDBRANCH   2  10
BRANCH   3  18
ATOM     18  O   UNL     1      36.050 -22.385 -17.814  0.00  0.00    -0.476 OA
BRANCH  18  19
ATOM     19  C   UNL     1      36.725 -21.610 -16.822  0.00  0.00    +0.184 C 
BRANCH  19  20
ATOM     20  C   UNL     1      36.664 -22.317 -15.463  0.00  0.00    -0.017 C 
BRANCH  20  21
ATOM     21  N   UNL     1      35.431 -23.106 -15.407  0.00  0.00    +0.384 N 
ATOM     22  H   UNL     1      34.927 -23.015 -16.289  0.00  0.00    -0.089 HD
ATOM     23  H   UNL     1      34.844 -22.766 -14.644  0.00  0.00    -0.089 HD
ATOM     24  H   UNL     1      35.662 -24.087 -15.247  0.00  0.00    -0.089 HD
ENDBRANCH  20  21
BRANCH  20  25
ATOM     25  C   UNL     1      37.856 -23.266 -15.218  0.00  0.00    +0.008 C 
BRANCH  25  26
ATOM     26  C   UNL     1      37.666 -24.233 -14.074  0.00  0.00    -0.024 C 
ATOM     27  C   UNL     1      37.595 -25.593 -14.338  0.00  0.00    -0.004 C 
ATOM     28  C   UNL     1      37.565 -23.745 -12.780  0.00  0.00    -0.004 C 
ATOM     29  C   UNL     1      37.419 -26.486 -13.282  0.00  0.00    -0.000 C 
ATOM     30  C   UNL     1      37.389 -24.639 -11.724  0.00  0.00    -0.000 C 
ATOM     31  C   UNL     1      37.316 -26.009 -11.974  0.00  0.00    -0.000 C 
ENDBRANCH  25  26
ENDBRANCH  20  25
ENDBRANCH  19  20
ENDBRANCH  18  19
ENDBRANCH   3  18
TORSDOF 7
ENDMDL
