MODEL 1
REMARK VINA RESULT:     -13.9      0.000      0.000
REMARK  Name = 25145656
REMARK  4 active torsions:
REMARK  status: ('A' for Active; 'I' for Inactive)
REMARK    1  A    between atoms: C_5  and  C_22
REMARK    2  A    between atoms: C_8  and  C_11
REMARK    3  A    between atoms: C_14  and  C_19
REMARK    4  A    between atoms: C_22  and  C_24
REMARK                            x       y       z     vdW  Elec       q    Type
REMARK                         _______ _______ _______ _____ _____    ______ ____
ROOT
ATOM      1  N   UNL     1      34.382 -16.442 -23.463  0.00  0.00    -0.134 N 
ATOM      2  N   UNL     1      34.706 -17.120 -22.340  0.00  0.00    -0.168 NA
ATOM      3  N   UNL     1      33.704 -16.035 -25.536  0.00  0.00    -0.178 NA
ATOM      4  N   UNL     1      33.819 -18.332 -24.781  0.00  0.00    -0.200 NA
ATOM      5  C   UNL     1      34.424 -15.082 -23.618  0.00  0.00    +0.086 C 
ATOM      6  C   UNL     1      33.941 -16.988 -24.652  0.00  0.00    +0.114 C 
ATOM      7  C   UNL     1      34.001 -14.857 -24.904  0.00  0.00    +0.124 C 
ATOM      8  C   UNL     1      34.573 -18.408 -22.436  0.00  0.00    +0.103 C 
ATOM      9  C   UNL     1      34.122 -19.030 -23.736  0.00  0.00    +0.184 C 
ENDROOT
BRANCH   8  11
ATOM     10  F   UNL     1      33.125 -21.418 -18.916  0.00  0.00    -0.204 F 
ATOM     11  C   UNL     1      34.874 -19.276 -21.274  0.00  0.00    +0.019 C 
ATOM     12  C   UNL     1      33.842 -19.954 -20.625  0.00  0.00    +0.031 C 
ATOM     13  C   UNL     1      36.189 -19.416 -20.829  0.00  0.00    +0.002 C 
ATOM     14  C   UNL     1      35.439 -20.911 -19.085  0.00  0.00    +0.081 C 
ATOM     15  C   UNL     1      34.125 -20.771 -19.531  0.00  0.00    +0.144 C 
ATOM     16  C   UNL     1      36.471 -20.233 -19.735  0.00  0.00    +0.007 C 
BRANCH  14  19
ATOM     17  O   UNL     1      35.065 -22.786 -17.727  0.00  0.00    -0.270 OA
ATOM     18  N   UNL     1      36.819 -21.388 -17.139  0.00  0.00    -0.299 N 
ATOM     19  C   UNL     1      35.738 -21.763 -17.946  0.00  0.00    +0.248 C 
ATOM     20  C   UNL     1      37.255 -22.142 -15.986  0.00  0.00    +0.111 C 
ATOM     21  H   UNL     1      37.308 -20.565 -17.368  0.00  0.00    +0.150 HD
ENDBRANCH  14  19
ENDBRANCH   8  11
BRANCH   5  22
ATOM     22  C   UNL     1      34.863 -14.131 -22.523  0.00  0.00    +0.068 C 
BRANCH  22  24
ATOM     23  N   UNL     1      31.100 -10.064 -21.372  0.00  0.00    -0.248 NA
ATOM     24  C   UNL     1      33.876 -13.053 -22.226  0.00  0.00    -0.038 C 
ATOM     25  C   UNL     1      33.960 -11.828 -22.880  0.00  0.00    +0.050 C 
ATOM     26  C   UNL     1      33.032 -10.810 -22.604  0.00  0.00    -0.004 C 
ATOM     27  C   UNL     1      32.866 -13.266 -21.295  0.00  0.00    -0.028 C 
ATOM     28  C   UNL     1      32.004 -11.018 -21.660  0.00  0.00    +0.060 C 
ATOM     29  C   UNL     1      31.944 -12.254 -21.021  0.00  0.00    +0.071 C 
ATOM     30  C   UNL     1      33.093  -9.567 -23.248  0.00  0.00    -0.001 C 
ATOM     31  C   UNL     1      32.162  -8.581 -22.953  0.00  0.00    +0.020 C 
ATOM     32  C   UNL     1      31.194  -8.878 -22.016  0.00  0.00    +0.098 C 
ENDBRANCH  22  24
ENDBRANCH   5  22
TORSDOF 4
ENDMDL
MODEL 2
REMARK VINA RESULT:     -13.9      3.601      9.667
REMARK  Name = 25145656
REMARK  4 active torsions:
REMARK  status: ('A' for Active; 'I' for Inactive)
REMARK    1  A    between atoms: C_5  and  C_22
REMARK    2  A    between atoms: C_8  and  C_11
REMARK    3  A    between atoms: C_14  and  C_19
REMARK    4  A    between atoms: C_22  and  C_24
REMARK                            x       y       z     vdW  Elec       q    Type
REMARK                         _______ _______ _______ _____ _____    ______ ____
ROOT
ATOM      1  N   UNL     1      34.363 -16.098 -23.540  0.00  0.00    -0.134 N 
ATOM      2  N   UNL     1      34.175 -14.875 -22.996  0.00  0.00    -0.168 NA
ATOM      3  N   UNL     1      34.318 -17.761 -25.008  0.00  0.00    -0.178 NA
ATOM      4  N   UNL     1      33.287 -15.654 -25.607  0.00  0.00    -0.200 NA
ATOM      5  C   UNL     1      34.999 -17.151 -22.941  0.00  0.00    +0.086 C 
ATOM      6  C   UNL     1      33.960 -16.507 -24.796  0.00  0.00    +0.114 C 
ATOM      7  C   UNL     1      34.959 -18.164 -23.866  0.00  0.00    +0.124 C 
ATOM      8  C   UNL     1      33.552 -14.036 -23.768  0.00  0.00    +0.103 C 
ATOM      9  C   UNL     1      33.076 -14.471 -25.133  0.00  0.00    +0.184 C 
ENDROOT
BRANCH   8  11
ATOM     10  F   UNL     1      31.641 -10.924 -20.571  0.00  0.00    -0.204 F 
ATOM     11  C   UNL     1      33.295 -12.652 -23.308  0.00  0.00    +0.019 C 
ATOM     12  C   UNL     1      32.576 -12.429 -22.135  0.00  0.00    +0.031 C 
ATOM     13  C   UNL     1      33.774 -11.571 -24.049  0.00  0.00    +0.002 C 
ATOM     14  C   UNL     1      32.812 -10.045 -22.442  0.00  0.00    +0.081 C 
ATOM     15  C   UNL     1      32.334 -11.126 -21.701  0.00  0.00    +0.144 C 
ATOM     16  C   UNL     1      33.532 -10.268 -23.615  0.00  0.00    +0.007 C 
BRANCH  14  19
ATOM     17  O   UNL     1      33.411  -8.077 -21.315  0.00  0.00    -0.270 OA
ATOM     18  N   UNL     1      31.352  -8.099 -22.379  0.00  0.00    -0.299 N 
ATOM     19  C   UNL     1      32.564  -8.684 -21.993  0.00  0.00    +0.248 C 
ATOM     20  C   UNL     1      30.970  -6.749 -22.034  0.00  0.00    +0.111 C 
ATOM     21  H   UNL     1      30.725  -8.636 -22.916  0.00  0.00    +0.150 HD
ENDBRANCH  14  19
ENDBRANCH   8  11
BRANCH   5  22
ATOM     22  C   UNL     1      35.584 -17.088 -21.544  0.00  0.00    +0.068 C 
BRANCH  22  24
ATOM     23  N   UNL     1      35.572 -22.041 -18.808  0.00  0.00    -0.248 NA
ATOM     24  C   UNL     1      35.571 -18.393 -20.823  0.00  0.00    -0.038 C 
ATOM     25  C   UNL     1      34.362 -19.009 -20.513  0.00  0.00    +0.050 C 
ATOM     26  C   UNL     1      34.344 -20.239 -19.834  0.00  0.00    -0.004 C 
ATOM     27  C   UNL     1      36.765 -19.002 -20.457  0.00  0.00    -0.028 C 
ATOM     28  C   UNL     1      35.553 -20.864 -19.459  0.00  0.00    +0.060 C 
ATOM     29  C   UNL     1      36.747 -20.225 -19.782  0.00  0.00    +0.071 C 
ATOM     30  C   UNL     1      33.142 -20.881 -19.510  0.00  0.00    -0.001 C 
ATOM     31  C   UNL     1      33.158 -22.096 -18.838  0.00  0.00    +0.020 C 
ATOM     32  C   UNL     1      34.388 -22.628 -18.513  0.00  0.00    +0.098 C 
ENDBRANCH  22  24
ENDBRANCH   5  22
TORSDOF 4
ENDMDL
MODEL 3
REMARK VINA RESULT:     -13.3      0.898      1.242
REMARK  Name = 25145656
REMARK  4 active torsions:
REMARK  status: ('A' for Active; 'I' for Inactive)
REMARK    1  A    between atoms: C_5  and  C_22
REMARK    2  A    between atoms: C_8  and  C_11
REMARK    3  A    between atoms: C_14  and  C_19
REMARK    4  A    between atoms: C_22  and  C_24
REMARK                            x       y       z     vdW  Elec       q    Type
REMARK                         _______ _______ _______ _____ _____    ______ ____
ROOT
ATOM      1  N   UNL     1      34.370 -16.731 -23.423  0.00  0.00    -0.134 N 
ATOM      2  N   UNL     1      34.569 -17.438 -22.289  0.00  0.00    -0.168 NA
ATOM      3  N   UNL     1      33.867 -16.265 -25.533  0.00  0.00    -0.178 NA
ATOM      4  N   UNL     1      33.775 -18.570 -24.800  0.00  0.00    -0.200 NA
ATOM      5  C   UNL     1      34.513 -15.376 -23.558  0.00  0.00    +0.086 C 
ATOM      6  C   UNL     1      33.978 -17.238 -24.647  0.00  0.00    +0.114 C 
ATOM      7  C   UNL     1      34.197 -15.114 -24.868  0.00  0.00    +0.124 C 
ATOM      8  C   UNL     1      34.358 -18.714 -22.409  0.00  0.00    +0.103 C 
ATOM      9  C   UNL     1      33.958 -19.294 -23.744  0.00  0.00    +0.184 C 
ENDROOT
BRANCH   8  11
ATOM     10  F   UNL     1      37.173 -21.238 -19.367  0.00  0.00    -0.204 F 
ATOM     11  C   UNL     1      34.518 -19.608 -21.240  0.00  0.00    +0.019 C 
ATOM     12  C   UNL     1      35.792 -20.014 -20.842  0.00  0.00    +0.031 C 
ATOM     13  C   UNL     1      33.395 -20.044 -20.536  0.00  0.00    +0.002 C 
ATOM     14  C   UNL     1      34.821 -21.293 -19.037  0.00  0.00    +0.081 C 
ATOM     15  C   UNL     1      35.943 -20.855 -19.741  0.00  0.00    +0.144 C 
ATOM     16  C   UNL     1      33.547 -20.887 -19.435  0.00  0.00    +0.007 C 
BRANCH  14  19
ATOM     17  O   UNL     1      34.228 -23.154 -17.739  0.00  0.00    -0.270 OA
ATOM     18  N   UNL     1      36.002 -21.864 -16.988  0.00  0.00    -0.299 N 
ATOM     19  C   UNL     1      34.974 -22.170 -17.887  0.00  0.00    +0.248 C 
ATOM     20  C   UNL     1      36.296 -22.652 -15.812  0.00  0.00    +0.111 C 
ATOM     21  H   UNL     1      36.556 -21.069 -17.165  0.00  0.00    +0.150 HD
ENDBRANCH  14  19
ENDBRANCH   8  11
BRANCH   5  22
ATOM     22  C   UNL     1      34.937 -14.465 -22.424  0.00  0.00    +0.068 C 
BRANCH  22  24
ATOM     23  N   UNL     1      31.224 -10.353 -21.272  0.00  0.00    -0.248 NA
ATOM     24  C   UNL     1      33.963 -13.376 -22.127  0.00  0.00    -0.038 C 
ATOM     25  C   UNL     1      34.026 -12.171 -22.823  0.00  0.00    +0.050 C 
ATOM     26  C   UNL     1      33.110 -11.143 -22.547  0.00  0.00    -0.004 C 
ATOM     27  C   UNL     1      32.986 -13.556 -21.155  0.00  0.00    -0.028 C 
ATOM     28  C   UNL     1      32.116 -11.318 -21.561  0.00  0.00    +0.060 C 
ATOM     29  C   UNL     1      32.076 -12.532 -20.881  0.00  0.00    +0.071 C 
ATOM     30  C   UNL     1      33.151  -9.921 -23.232  0.00  0.00    -0.001 C 
ATOM     31  C   UNL     1      32.232  -8.924 -22.936  0.00  0.00    +0.020 C 
ATOM     32  C   UNL     1      31.297  -9.188 -21.956  0.00  0.00    +0.098 C 
ENDBRANCH  22  24
ENDBRANCH   5  22
TORSDOF 4
ENDMDL
MODEL 4
REMARK VINA RESULT:     -12.0      3.198      6.187
REMARK  Name = 25145656
REMARK  4 active torsions:
REMARK  status: ('A' for Active; 'I' for Inactive)
REMARK    1  A    between atoms: C_5  and  C_22
REMARK    2  A    between atoms: C_8  and  C_11
REMARK    3  A    between atoms: C_14  and  C_19
REMARK    4  A    between atoms: C_22  and  C_24
REMARK                            x       y       z     vdW  Elec       q    Type
REMARK                         _______ _______ _______ _____ _____    ______ ____
ROOT
ATOM      1  N   UNL     1      34.137 -20.997 -19.109  0.00  0.00    -0.134 N 
ATOM      2  N   UNL     1      35.143 -21.422 -18.312  0.00  0.00    -0.168 NA
ATOM      3  N   UNL     1      32.099 -20.758 -19.952  0.00  0.00    -0.178 NA
ATOM      4  N   UNL     1      32.415 -22.274 -18.092  0.00  0.00    -0.200 NA
ATOM      5  C   UNL     1      34.254 -20.103 -20.138  0.00  0.00    +0.086 C 
ATOM      6  C   UNL     1      32.811 -21.376 -19.027  0.00  0.00    +0.114 C 
ATOM      7  C   UNL     1      32.985 -19.971 -20.642  0.00  0.00    +0.124 C 
ATOM      8  C   UNL     1      34.779 -22.266 -17.395  0.00  0.00    +0.103 C 
ATOM      9  C   UNL     1      33.341 -22.717 -17.306  0.00  0.00    +0.184 C 
ENDROOT
BRANCH   8  11
ATOM     10  F   UNL     1      36.002 -25.311 -13.819  0.00  0.00    -0.204 F 
ATOM     11  C   UNL     1      35.775 -22.800 -16.437  0.00  0.00    +0.019 C 
ATOM     12  C   UNL     1      35.418 -23.824 -15.560  0.00  0.00    +0.031 C 
ATOM     13  C   UNL     1      37.068 -22.278 -16.413  0.00  0.00    +0.002 C 
ATOM     14  C   UNL     1      37.649 -23.805 -14.632  0.00  0.00    +0.081 C 
ATOM     15  C   UNL     1      36.356 -24.326 -14.658  0.00  0.00    +0.144 C 
ATOM     16  C   UNL     1      38.005 -22.781 -15.510  0.00  0.00    +0.007 C 
BRANCH  14  19
ATOM     17  O   UNL     1      38.599 -23.993 -12.497  0.00  0.00    -0.270 OA
ATOM     18  N   UNL     1      39.577 -25.226 -14.199  0.00  0.00    -0.299 N 
ATOM     19  C   UNL     1      38.630 -24.327 -13.694  0.00  0.00    +0.248 C 
ATOM     20  C   UNL     1      40.600 -25.848 -13.390  0.00  0.00    +0.111 C 
ATOM     21  H   UNL     1      39.545 -25.447 -15.158  0.00  0.00    +0.150 HD
ENDBRANCH  14  19
ENDBRANCH   8  11
BRANCH   5  22
ATOM     22  C   UNL     1      35.567 -19.460 -20.540  0.00  0.00    +0.068 C 
BRANCH  22  24
ATOM     23  N   UNL     1      34.982 -14.510 -23.218  0.00  0.00    -0.248 NA
ATOM     24  C   UNL     1      35.411 -18.151 -21.237  0.00  0.00    -0.038 C 
ATOM     25  C   UNL     1      35.079 -17.008 -20.514  0.00  0.00    +0.050 C 
ATOM     26  C   UNL     1      34.932 -15.773 -21.167  0.00  0.00    -0.004 C 
ATOM     27  C   UNL     1      35.595 -18.064 -22.611  0.00  0.00    -0.028 C 
ATOM     28  C   UNL     1      35.117 -15.677 -22.562  0.00  0.00    +0.060 C 
ATOM     29  C   UNL     1      35.448 -16.836 -23.260  0.00  0.00    +0.071 C 
ATOM     30  C   UNL     1      34.600 -14.607 -20.464  0.00  0.00    -0.001 C 
ATOM     31  C   UNL     1      34.460 -13.402 -21.138  0.00  0.00    +0.020 C 
ATOM     32  C   UNL     1      34.661 -13.407 -22.503  0.00  0.00    +0.098 C 
ENDBRANCH  22  24
ENDBRANCH   5  22
TORSDOF 4
ENDMDL
MODEL 5
REMARK VINA RESULT:     -12.0      3.749      9.582
REMARK  Name = 25145656
REMARK  4 active torsions:
REMARK  status: ('A' for Active; 'I' for Inactive)
REMARK    1  A    between atoms: C_5  and  C_22
REMARK    2  A    between atoms: C_8  and  C_11
REMARK    3  A    between atoms: C_14  and  C_19
REMARK    4  A    between atoms: C_22  and  C_24
REMARK                            x       y       z     vdW  Elec       q    Type
REMARK                         _______ _______ _______ _____ _____    ______ ____
ROOT
ATOM      1  N   UNL     1      34.370 -16.732 -23.520  0.00  0.00    -0.134 N 
ATOM      2  N   UNL     1      34.133 -15.541 -22.929  0.00  0.00    -0.168 NA
ATOM      3  N   UNL     1      34.502 -18.299 -25.085  0.00  0.00    -0.178 NA
ATOM      4  N   UNL     1      33.617 -16.128 -25.686  0.00  0.00    -0.200 NA
ATOM      5  C   UNL     1      34.889 -17.841 -22.906  0.00  0.00    +0.086 C 
ATOM      6  C   UNL     1      34.145 -17.050 -24.845  0.00  0.00    +0.114 C 
ATOM      7  C   UNL     1      34.961 -18.793 -23.892  0.00  0.00    +0.124 C 
ATOM      8  C   UNL     1      33.647 -14.636 -23.725  0.00  0.00    +0.103 C 
ATOM      9  C   UNL     1      33.365 -14.970 -25.170  0.00  0.00    +0.184 C 
ENDROOT
BRANCH   8  11
ATOM     10  F   UNL     1      33.933  -9.811 -24.151  0.00  0.00    -0.204 F 
ATOM     11  C   UNL     1      33.357 -13.275 -23.217  0.00  0.00    +0.019 C 
ATOM     12  C   UNL     1      33.787 -12.159 -23.932  0.00  0.00    +0.031 C 
ATOM     13  C   UNL     1      32.653 -13.112 -22.024  0.00  0.00    +0.002 C 
ATOM     14  C   UNL     1      32.812 -10.712 -22.261  0.00  0.00    +0.081 C 
ATOM     15  C   UNL     1      33.514 -10.877 -23.454  0.00  0.00    +0.144 C 
ATOM     16  C   UNL     1      32.381 -11.830 -21.546  0.00  0.00    +0.007 C 
BRANCH  14  19
ATOM     17  O   UNL     1      31.418  -9.117 -21.255  0.00  0.00    -0.270 OA
ATOM     18  N   UNL     1      33.550  -8.430 -21.853  0.00  0.00    -0.299 N 
ATOM     19  C   UNL     1      32.524  -9.378 -21.760  0.00  0.00    +0.248 C 
ATOM     20  C   UNL     1      33.427  -7.070 -21.377  0.00  0.00    +0.111 C 
ATOM     21  H   UNL     1      34.401  -8.703 -22.264  0.00  0.00    +0.150 HD
ENDBRANCH  14  19
ENDBRANCH   8  11
BRANCH   5  22
ATOM     22  C   UNL     1      35.266 -17.883 -21.439  0.00  0.00    +0.068 C 
BRANCH  22  24
ATOM     23  N   UNL     1      32.858 -22.142 -18.596  0.00  0.00    -0.248 NA
ATOM     24  C   UNL     1      34.641 -19.007 -20.686  0.00  0.00    -0.038 C 
ATOM     25  C   UNL     1      35.422 -19.832 -19.882  0.00  0.00    +0.050 C 
ATOM     26  C   UNL     1      34.837 -20.892 -19.170  0.00  0.00    -0.004 C 
ATOM     27  C   UNL     1      33.274 -19.239 -20.782  0.00  0.00    -0.028 C 
ATOM     28  C   UNL     1      33.450 -21.134 -19.263  0.00  0.00    +0.060 C 
ATOM     29  C   UNL     1      32.693 -20.294 -20.075  0.00  0.00    +0.071 C 
ATOM     30  C   UNL     1      35.600 -21.737 -18.353  0.00  0.00    -0.001 C 
ATOM     31  C   UNL     1      34.992 -22.777 -17.663  0.00  0.00    +0.020 C 
ATOM     32  C   UNL     1      33.631 -22.935 -17.817  0.00  0.00    +0.098 C 
ENDBRANCH  22  24
ENDBRANCH   5  22
TORSDOF 4
ENDMDL
MODEL 6
REMARK VINA RESULT:     -11.8      5.568     11.745
REMARK  Name = 25145656
REMARK  4 active torsions:
REMARK  status: ('A' for Active; 'I' for Inactive)
REMARK    1  A    between atoms: C_5  and  C_22
REMARK    2  A    between atoms: C_8  and  C_11
REMARK    3  A    between atoms: C_14  and  C_19
REMARK    4  A    between atoms: C_22  and  C_24
REMARK                            x       y       z     vdW  Elec       q    Type
REMARK                         _______ _______ _______ _____ _____    ______ ____
ROOT
ATOM      1  N   UNL     1      32.598 -11.375 -21.682  0.00  0.00    -0.134 N 
ATOM      2  N   UNL     1      32.740 -10.270 -22.446  0.00  0.00    -0.168 NA
ATOM      3  N   UNL     1      31.930 -12.706 -20.038  0.00  0.00    -0.178 NA
ATOM      4  N   UNL     1      31.207 -10.397 -20.028  0.00  0.00    -0.200 NA
ATOM      5  C   UNL     1      33.155 -12.600 -21.933  0.00  0.00    +0.086 C 
ATOM      6  C   UNL     1      31.860 -11.478 -20.519  0.00  0.00    +0.114 C 
ATOM      7  C   UNL     1      32.728 -13.403 -20.906  0.00  0.00    +0.124 C 
ATOM      8  C   UNL     1      32.102  -9.228 -22.005  0.00  0.00    +0.103 C 
ATOM      9  C   UNL     1      31.315  -9.309 -20.719  0.00  0.00    +0.184 C 
ENDROOT
BRANCH   8  11
ATOM     10  F   UNL     1      34.587  -5.449 -23.763  0.00  0.00    -0.204 F 
ATOM     11  C   UNL     1      32.153  -7.952 -22.755  0.00  0.00    +0.019 C 
ATOM     12  C   UNL     1      33.367  -7.284 -22.912  0.00  0.00    +0.031 C 
ATOM     13  C   UNL     1      30.986  -7.419 -23.303  0.00  0.00    +0.002 C 
ATOM     14  C   UNL     1      32.249  -5.548 -24.167  0.00  0.00    +0.081 C 
ATOM     15  C   UNL     1      33.414  -6.082 -23.618  0.00  0.00    +0.144 C 
ATOM     16  C   UNL     1      31.035  -6.217 -24.009  0.00  0.00    +0.007 C 
BRANCH  14  19
ATOM     17  O   UNL     1      32.725  -4.265 -26.071  0.00  0.00    -0.270 OA
ATOM     18  N   UNL     1      31.813  -3.156 -24.250  0.00  0.00    -0.299 N 
ATOM     19  C   UNL     1      32.294  -4.296 -24.904  0.00  0.00    +0.248 C 
ATOM     20  C   UNL     1      31.770  -1.845 -24.858  0.00  0.00    +0.111 C 
ATOM     21  H   UNL     1      31.487  -3.251 -23.327  0.00  0.00    +0.150 HD
ENDBRANCH  14  19
ENDBRANCH   8  11
BRANCH   5  22
ATOM     22  C   UNL     1      34.041 -12.884 -23.130  0.00  0.00    +0.068 C 
BRANCH  22  24
ATOM     23  N   UNL     1      34.084 -18.311 -24.732  0.00  0.00    -0.248 NA
ATOM     24  C   UNL     1      34.057 -14.316 -23.544  0.00  0.00    -0.038 C 
ATOM     25  C   UNL     1      34.683 -15.269 -22.745  0.00  0.00    +0.050 C 
ATOM     26  C   UNL     1      34.701 -16.619 -23.130  0.00  0.00    -0.004 C 
ATOM     27  C   UNL     1      33.449 -14.709 -24.729  0.00  0.00    -0.028 C 
ATOM     28  C   UNL     1      34.085 -17.026 -24.333  0.00  0.00    +0.060 C 
ATOM     29  C   UNL     1      33.467 -16.052 -25.113  0.00  0.00    +0.071 C 
ATOM     30  C   UNL     1      35.322 -17.599 -22.344  0.00  0.00    -0.001 C 
ATOM     31  C   UNL     1      35.323 -18.926 -22.753  0.00  0.00    +0.020 C 
ATOM     32  C   UNL     1      34.695 -19.226 -23.944  0.00  0.00    +0.098 C 
ENDBRANCH  22  24
ENDBRANCH   5  22
TORSDOF 4
ENDMDL
MODEL 7
REMARK VINA RESULT:     -11.5      5.672     11.715
REMARK  Name = 25145656
REMARK  4 active torsions:
REMARK  status: ('A' for Active; 'I' for Inactive)
REMARK    1  A    between atoms: C_5  and  C_22
REMARK    2  A    between atoms: C_8  and  C_11
REMARK    3  A    between atoms: C_14  and  C_19
REMARK    4  A    between atoms: C_22  and  C_24
REMARK                            x       y       z     vdW  Elec       q    Type
REMARK                         _______ _______ _______ _____ _____    ______ ____
ROOT
ATOM      1  N   UNL     1      32.592 -11.330 -21.707  0.00  0.00    -0.134 N 
ATOM      2  N   UNL     1      32.816 -10.211 -22.432  0.00  0.00    -0.168 NA
ATOM      3  N   UNL     1      31.792 -12.675 -20.135  0.00  0.00    -0.178 NA
ATOM      4  N   UNL     1      31.162 -10.339 -20.095  0.00  0.00    -0.200 NA
ATOM      5  C   UNL     1      33.113 -12.569 -21.966  0.00  0.00    +0.086 C 
ATOM      6  C   UNL     1      31.795 -11.433 -20.584  0.00  0.00    +0.114 C 
ATOM      7  C   UNL     1      32.605 -13.381 -20.983  0.00  0.00    +0.124 C 
ATOM      8  C   UNL     1      32.198  -9.156 -21.992  0.00  0.00    +0.103 C 
ATOM      9  C   UNL     1      31.346  -9.239 -20.749  0.00  0.00    +0.184 C 
ENDROOT
BRANCH   8  11
ATOM     10  F   UNL     1      30.250  -5.103 -23.818  0.00  0.00    -0.204 F 
ATOM     11  C   UNL     1      32.335  -7.864 -22.702  0.00  0.00    +0.019 C 
ATOM     12  C   UNL     1      31.210  -7.073 -22.933  0.00  0.00    +0.031 C 
ATOM     13  C   UNL     1      33.590  -7.437 -23.139  0.00  0.00    +0.002 C 
ATOM     14  C   UNL     1      32.592  -5.429 -24.039  0.00  0.00    +0.081 C 
ATOM     15  C   UNL     1      31.339  -5.856 -23.601  0.00  0.00    +0.144 C 
ATOM     16  C   UNL     1      33.718  -6.220 -23.808  0.00  0.00    +0.007 C 
BRANCH  14  19
ATOM     17  O   UNL     1      32.628  -3.086 -24.118  0.00  0.00    -0.270 OA
ATOM     18  N   UNL     1      33.006  -4.215 -26.107  0.00  0.00    -0.299 N 
ATOM     19  C   UNL     1      32.732  -4.160 -24.736  0.00  0.00    +0.248 C 
ATOM     20  C   UNL     1      33.195  -3.043 -26.932  0.00  0.00    +0.111 C 
ATOM     21  H   UNL     1      33.075  -5.100 -26.534  0.00  0.00    +0.150 HD
ENDBRANCH  14  19
ENDBRANCH   8  11
BRANCH   5  22
ATOM     22  C   UNL     1      34.044 -12.857 -23.126  0.00  0.00    +0.068 C 
BRANCH  22  24
ATOM     23  N   UNL     1      34.092 -18.277 -24.753  0.00  0.00    -0.248 NA
ATOM     24  C   UNL     1      34.062 -14.288 -23.546  0.00  0.00    -0.038 C 
ATOM     25  C   UNL     1      34.685 -15.244 -22.750  0.00  0.00    +0.050 C 
ATOM     26  C   UNL     1      34.704 -16.592 -23.141  0.00  0.00    -0.004 C 
ATOM     27  C   UNL     1      33.457 -14.675 -24.736  0.00  0.00    -0.028 C 
ATOM     28  C   UNL     1      34.092 -16.993 -24.348  0.00  0.00    +0.060 C 
ATOM     29  C   UNL     1      33.476 -16.016 -25.126  0.00  0.00    +0.071 C 
ATOM     30  C   UNL     1      35.323 -17.576 -22.358  0.00  0.00    -0.001 C 
ATOM     31  C   UNL     1      35.325 -18.900 -22.773  0.00  0.00    +0.020 C 
ATOM     32  C   UNL     1      34.701 -19.195 -23.967  0.00  0.00    +0.098 C 
ENDBRANCH  22  24
ENDBRANCH   5  22
TORSDOF 4
ENDMDL
MODEL 8
REMARK VINA RESULT:     -11.3      4.139     10.223
REMARK  Name = 25145656
REMARK  4 active torsions:
REMARK  status: ('A' for Active; 'I' for Inactive)
REMARK    1  A    between atoms: C_5  and  C_22
REMARK    2  A    between atoms: C_8  and  C_11
REMARK    3  A    between atoms: C_14  and  C_19
REMARK    4  A    between atoms: C_22  and  C_24
REMARK                            x       y       z     vdW  Elec       q    Type
REMARK                         _______ _______ _______ _____ _____    ______ ____
ROOT
ATOM      1  N   UNL     1      35.436 -20.540 -19.496  0.00  0.00    -0.134 N 
ATOM      2  N   UNL     1      34.846 -19.756 -20.425  0.00  0.00    -0.168 NA
ATOM      3  N   UNL     1      37.007 -21.431 -18.208  0.00  0.00    -0.178 NA
ATOM      4  N   UNL     1      37.646 -19.736 -19.813  0.00  0.00    -0.200 NA
ATOM      5  C   UNL     1      34.803 -21.461 -18.706  0.00  0.00    +0.086 C 
ATOM      6  C   UNL     1      36.777 -20.552 -19.166  0.00  0.00    +0.114 C 
ATOM      7  C   UNL     1      35.793 -21.996 -17.921  0.00  0.00    +0.124 C 
ATOM      8  C   UNL     1      35.658 -18.950 -21.040  0.00  0.00    +0.103 C 
ATOM      9  C   UNL     1      37.133 -18.967 -20.717  0.00  0.00    +0.184 C 
ENDROOT
BRANCH   8  11
ATOM     10  F   UNL     1      33.198 -18.109 -25.138  0.00  0.00    -0.204 F 
ATOM     11  C   UNL     1      35.144 -18.017 -22.069  0.00  0.00    +0.019 C 
ATOM     12  C   UNL     1      34.399 -18.506 -23.142  0.00  0.00    +0.031 C 
ATOM     13  C   UNL     1      35.404 -16.651 -21.965  0.00  0.00    +0.002 C 
ATOM     14  C   UNL     1      34.175 -16.262 -24.008  0.00  0.00    +0.081 C 
ATOM     15  C   UNL     1      33.914 -17.628 -24.111  0.00  0.00    +0.144 C 
ATOM     16  C   UNL     1      34.920 -15.774 -22.935  0.00  0.00    +0.007 C 
BRANCH  14  19
ATOM     17  O   UNL     1      33.727 -15.636 -26.224  0.00  0.00    -0.270 OA
ATOM     18  N   UNL     1      33.108 -14.146 -24.559  0.00  0.00    -0.299 N 
ATOM     19  C   UNL     1      33.670 -15.343 -25.016  0.00  0.00    +0.248 C 
ATOM     20  C   UNL     1      32.543 -13.143 -25.434  0.00  0.00    +0.111 C 
ATOM     21  H   UNL     1      33.095 -13.976 -23.589  0.00  0.00    +0.150 HD
ENDBRANCH  14  19
ENDBRANCH   8  11
BRANCH   5  22
ATOM     22  C   UNL     1      33.315 -21.739 -18.778  0.00  0.00    +0.068 C 
BRANCH  22  24
ATOM     23  N   UNL     1      31.251 -24.213 -14.126  0.00  0.00    -0.248 NA
ATOM     24  C   UNL     1      32.762 -22.388 -17.554  0.00  0.00    -0.038 C 
ATOM     25  C   UNL     1      31.399 -22.318 -17.280  0.00  0.00    +0.050 C 
ATOM     26  C   UNL     1      30.873 -22.928 -16.129  0.00  0.00    -0.004 C 
ATOM     27  C   UNL     1      33.603 -23.066 -16.681  0.00  0.00    -0.028 C 
ATOM     28  C   UNL     1      31.722 -23.618 -15.237  0.00  0.00    +0.060 C 
ATOM     29  C   UNL     1      33.080 -23.672 -15.536  0.00  0.00    +0.071 C 
ATOM     30  C   UNL     1      29.506 -22.874 -15.830  0.00  0.00    -0.001 C 
ATOM     31  C   UNL     1      29.017 -23.487 -14.683  0.00  0.00    +0.020 C 
ATOM     32  C   UNL     1      29.924 -24.138 -13.873  0.00  0.00    +0.098 C 
ENDBRANCH  22  24
ENDBRANCH   5  22
TORSDOF 4
ENDMDL
MODEL 9
REMARK VINA RESULT:     -10.9      4.150     10.509
REMARK  Name = 25145656
REMARK  4 active torsions:
REMARK  status: ('A' for Active; 'I' for Inactive)
REMARK    1  A    between atoms: C_5  and  C_22
REMARK    2  A    between atoms: C_8  and  C_11
REMARK    3  A    between atoms: C_14  and  C_19
REMARK    4  A    between atoms: C_22  and  C_24
REMARK                            x       y       z     vdW  Elec       q    Type
REMARK                         _______ _______ _______ _____ _____    ______ ____
ROOT
ATOM      1  N   UNL     1      35.189 -20.897 -19.108  0.00  0.00    -0.134 N 
ATOM      2  N   UNL     1      34.687 -20.092 -20.070  0.00  0.00    -0.168 NA
ATOM      3  N   UNL     1      36.645 -21.858 -17.737  0.00  0.00    -0.178 NA
ATOM      4  N   UNL     1      37.451 -20.212 -19.319  0.00  0.00    -0.200 NA
ATOM      5  C   UNL     1      34.470 -21.777 -18.344  0.00  0.00    +0.086 C 
ATOM      6  C   UNL     1      36.510 -20.976 -18.711  0.00  0.00    +0.114 C 
ATOM      7  C   UNL     1      35.390 -22.356 -17.507  0.00  0.00    +0.124 C 
ATOM      8  C   UNL     1      35.571 -19.335 -20.649  0.00  0.00    +0.103 C 
ATOM      9  C   UNL     1      37.024 -19.426 -20.252  0.00  0.00    +0.184 C 
ENDROOT
BRANCH   8  11
ATOM     10  F   UNL     1      35.196 -14.813 -22.368  0.00  0.00    -0.204 F 
ATOM     11  C   UNL     1      35.157 -18.387 -21.709  0.00  0.00    +0.019 C 
ATOM     12  C   UNL     1      35.372 -17.019 -21.542  0.00  0.00    +0.031 C 
ATOM     13  C   UNL     1      34.555 -18.861 -22.874  0.00  0.00    +0.002 C 
ATOM     14  C   UNL     1      34.380 -16.599 -23.704  0.00  0.00    +0.081 C 
ATOM     15  C   UNL     1      34.984 -16.126 -22.540  0.00  0.00    +0.144 C 
ATOM     16  C   UNL     1      34.166 -17.967 -23.871  0.00  0.00    +0.007 C 
BRANCH  14  19
ATOM     17  O   UNL     1      34.274 -15.886 -25.936  0.00  0.00    -0.270 OA
ATOM     18  N   UNL     1      33.224 -14.559 -24.351  0.00  0.00    -0.299 N 
ATOM     19  C   UNL     1      33.975 -15.671 -24.748  0.00  0.00    +0.248 C 
ATOM     20  C   UNL     1      32.727 -13.561 -25.271  0.00  0.00    +0.111 C 
ATOM     21  H   UNL     1      33.023 -14.449 -23.394  0.00  0.00    +0.150 HD
ENDBRANCH  14  19
ENDBRANCH   8  11
BRANCH   5  22
ATOM     22  C   UNL     1      32.975 -21.978 -18.489  0.00  0.00    +0.068 C 
BRANCH  22  24
ATOM     23  N   UNL     1      30.426 -23.912 -13.821  0.00  0.00    -0.248 NA
ATOM     24  C   UNL     1      32.312 -22.492 -17.255  0.00  0.00    -0.038 C 
ATOM     25  C   UNL     1      33.055 -23.164 -16.289  0.00  0.00    +0.050 C 
ATOM     26  C   UNL     1      32.435 -23.649 -15.126  0.00  0.00    -0.004 C 
ATOM     27  C   UNL     1      30.949 -22.302 -17.063  0.00  0.00    -0.028 C 
ATOM     28  C   UNL     1      31.052 -23.460 -14.924  0.00  0.00    +0.060 C 
ATOM     29  C   UNL     1      30.333 -22.784 -15.906  0.00  0.00    +0.071 C 
ATOM     30  C   UNL     1      33.159 -24.328 -14.137  0.00  0.00    -0.001 C 
ATOM     31  C   UNL     1      32.517 -24.796 -12.999  0.00  0.00    +0.020 C 
ATOM     32  C   UNL     1      31.162 -24.564 -12.890  0.00  0.00    +0.098 C 
ENDBRANCH  22  24
ENDBRANCH   5  22
TORSDOF 4
ENDMDL
