MODEL 1
REMARK VINA RESULT:     -11.3      0.000      0.000
REMARK  Name = 11442891
REMARK  5 active torsions:
REMARK  status: ('A' for Active; 'I' for Inactive)
REMARK    1  A    between atoms: C_12  and  C_30
REMARK    2  A    between atoms: C_13  and  C_19
REMARK    3  A    between atoms: C_16  and  N_22
REMARK    4  A    between atoms: C_30  and  C_31
REMARK    5  A    between atoms: C_30  and  O_37
REMARK                            x       y       z     vdW  Elec       q    Type
REMARK                         _______ _______ _______ _____ _____    ______ ____
ROOT
ATOM      1  O   UNL     1      33.424 -11.707 -21.230  0.00  0.00    -0.271 OA
ATOM      2  O   UNL     1      34.965 -19.669 -23.512  0.00  0.00    -0.270 OA
ATOM      3  N   UNL     1      33.859 -13.131 -22.999  0.00  0.00    -0.231 N 
ATOM      4  N   UNL     1      34.553 -15.827 -25.275  0.00  0.00    -0.273 N 
ATOM      5  N   UNL     1      34.652 -17.028 -24.650  0.00  0.00    -0.157 NA
ATOM      6  N   UNL     1      34.458 -17.687 -22.352  0.00  0.00    -0.264 N 
ATOM      7  C   UNL     1      33.934 -14.363 -22.146  0.00  0.00    +0.077 C 
ATOM      8  C   UNL     1      34.215 -15.378 -23.161  0.00  0.00    +0.067 A 
ATOM      9  C   UNL     1      34.084 -13.389 -24.462  0.00  0.00    +0.091 C 
ATOM     10  C   UNL     1      34.292 -14.833 -24.405  0.00  0.00    +0.093 A 
ATOM     11  C   UNL     1      34.443 -16.738 -23.353  0.00  0.00    +0.157 A 
ATOM     12  C   UNL     1      33.604 -11.891 -22.434  0.00  0.00    +0.265 C 
ATOM     13  C   UNL     1      34.710 -19.059 -22.479  0.00  0.00    +0.251 C 
ATOM     14  H   UNL     1      34.657 -15.699 -26.245  0.00  0.00    +0.189 HD
ATOM     15  H   UNL     1      34.268 -17.363 -21.441  0.00  0.00    +0.157 HD
ENDROOT
BRANCH  13  19
ATOM     16  C   UNL     1      34.640 -21.279 -18.825  0.00  0.00    +0.048 C 
ATOM     17  C   UNL     1      35.859 -20.933 -19.407  0.00  0.00    +0.015 C 
ATOM     18  C   UNL     1      33.443 -20.902 -19.434  0.00  0.00    +0.015 C 
ATOM     19  C   UNL     1      34.685 -19.831 -21.209  0.00  0.00    +0.054 C 
ATOM     20  C   UNL     1      35.882 -20.208 -20.599  0.00  0.00    +0.006 C 
ATOM     21  C   UNL     1      33.466 -20.177 -20.627  0.00  0.00    +0.006 C 
BRANCH  16  22
ATOM     22  N   UNL     1      34.616 -22.007 -17.630  0.00  0.00    -0.312 N 
ATOM     23  N   UNL     1      34.620 -23.705 -15.333  0.00  0.00    +0.388 N 
ATOM     24  C   UNL     1      35.871 -22.283 -16.923  0.00  0.00    +0.068 C 
ATOM     25  C   UNL     1      33.553 -23.002 -17.449  0.00  0.00    +0.068 C 
ATOM     26  C   UNL     1      35.598 -22.616 -15.454  0.00  0.00    -0.056 C 
ATOM     27  C   UNL     1      33.354 -23.310 -15.963  0.00  0.00    -0.056 C 
ATOM     28  C   UNL     1      34.408 -24.050 -13.928  0.00  0.00    -0.101 C 
ATOM     29  H   UNL     1      34.983 -24.529 -15.811  0.00  0.00    -0.080 HD
ENDBRANCH  16  22
ENDBRANCH  13  19
BRANCH  12  30
ATOM     30  C   UNL     1      33.555 -10.735 -23.402  0.00  0.00    +0.214 C 
BRANCH  30  31
ATOM     31  C   UNL     1      33.010  -9.502 -22.739  0.00  0.00    +0.013 C 
ATOM     32  C   UNL     1      33.823  -8.379 -22.579  0.00  0.00    -0.001 C 
ATOM     33  C   UNL     1      31.692  -9.478 -22.284  0.00  0.00    -0.001 C 
ATOM     34  C   UNL     1      33.318  -7.234 -21.964  0.00  0.00    -0.000 C 
ATOM     35  C   UNL     1      31.187  -8.334 -21.668  0.00  0.00    -0.000 C 
ATOM     36  C   UNL     1      31.999  -7.211 -21.508  0.00  0.00    -0.000 C 
ENDBRANCH  30  31
BRANCH  30  37
ATOM     37  O   UNL     1      34.875 -10.518 -23.862  0.00  0.00    -0.340 OA
ATOM     38  C   UNL     1      34.917 -10.318 -25.271  0.00  0.00    +0.175 C 
ENDBRANCH  30  37
ENDBRANCH  12  30
TORSDOF 5
ENDMDL
MODEL 2
REMARK VINA RESULT:     -10.3      1.820      3.078
REMARK  Name = 11442891
REMARK  5 active torsions:
REMARK  status: ('A' for Active; 'I' for Inactive)
REMARK    1  A    between atoms: C_12  and  C_30
REMARK    2  A    between atoms: C_13  and  C_19
REMARK    3  A    between atoms: C_16  and  N_22
REMARK    4  A    between atoms: C_30  and  C_31
REMARK    5  A    between atoms: C_30  and  O_37
REMARK                            x       y       z     vdW  Elec       q    Type
REMARK                         _______ _______ _______ _____ _____    ______ ____
ROOT
ATOM      1  O   UNL     1      33.075  -9.379 -21.545  0.00  0.00    -0.271 OA
ATOM      2  O   UNL     1      34.573 -16.728 -25.385  0.00  0.00    -0.270 OA
ATOM      3  N   UNL     1      33.327 -10.449 -23.580  0.00  0.00    -0.231 N 
ATOM      4  N   UNL     1      33.812 -12.667 -26.368  0.00  0.00    -0.273 N 
ATOM      5  N   UNL     1      34.029 -13.950 -25.986  0.00  0.00    -0.157 NA
ATOM      6  N   UNL     1      34.153 -15.008 -23.836  0.00  0.00    -0.264 N 
ATOM      7  C   UNL     1      33.551 -11.803 -22.977  0.00  0.00    +0.077 C 
ATOM      8  C   UNL     1      33.732 -12.611 -24.183  0.00  0.00    +0.067 A 
ATOM      9  C   UNL     1      33.371 -10.436 -25.082  0.00  0.00    +0.091 C 
ATOM     10  C   UNL     1      33.632 -11.854 -25.309  0.00  0.00    +0.093 A 
ATOM     11  C   UNL     1      33.979 -13.901 -24.641  0.00  0.00    +0.157 A 
ATOM     12  C   UNL     1      33.105  -9.341 -22.776  0.00  0.00    +0.265 C 
ATOM     13  C   UNL     1      34.432 -16.321 -24.236  0.00  0.00    +0.251 C 
ATOM     14  H   UNL     1      33.787 -12.366 -27.305  0.00  0.00    +0.189 HD
ATOM     15  H   UNL     1      34.070 -14.857 -22.866  0.00  0.00    +0.157 HD
ENDROOT
BRANCH  13  19
ATOM     16  C   UNL     1      34.903 -19.142 -21.057  0.00  0.00    +0.048 C 
ATOM     17  C   UNL     1      35.314 -17.820 -20.884  0.00  0.00    +0.015 C 
ATOM     18  C   UNL     1      34.338 -19.543 -22.268  0.00  0.00    +0.015 C 
ATOM     19  C   UNL     1      34.595 -17.301 -23.131  0.00  0.00    +0.054 C 
ATOM     20  C   UNL     1      35.160 -16.900 -21.921  0.00  0.00    +0.006 C 
ATOM     21  C   UNL     1      34.184 -18.623 -23.305  0.00  0.00    +0.006 C 
BRANCH  16  22
ATOM     22  N   UNL     1      35.058 -20.066 -20.018  0.00  0.00    -0.312 N 
ATOM     23  N   UNL     1      35.372 -22.138 -18.077  0.00  0.00    +0.388 N 
ATOM     24  C   UNL     1      36.398 -20.548 -19.670  0.00  0.00    +0.068 C 
ATOM     25  C   UNL     1      33.958 -21.001 -19.755  0.00  0.00    +0.068 C 
ATOM     26  C   UNL     1      36.412 -21.115 -18.248  0.00  0.00    -0.056 C 
ATOM     27  C   UNL     1      34.050 -21.552 -18.330  0.00  0.00    -0.056 C 
ATOM     28  C   UNL     1      35.431 -22.710 -16.733  0.00  0.00    -0.101 C 
ATOM     29  H   UNL     1      35.534 -22.888 -18.748  0.00  0.00    -0.080 HD
ENDBRANCH  16  22
ENDBRANCH  13  19
BRANCH  12  30
ATOM     30  C   UNL     1      32.895  -8.040 -23.507  0.00  0.00    +0.214 C 
BRANCH  30  31
ATOM     31  C   UNL     1      32.201  -7.036 -22.631  0.00  0.00    +0.013 C 
ATOM     32  C   UNL     1      32.935  -6.294 -21.705  0.00  0.00    -0.001 C 
ATOM     33  C   UNL     1      30.824  -6.845 -22.743  0.00  0.00    -0.001 C 
ATOM     34  C   UNL     1      32.292  -5.362 -20.891  0.00  0.00    -0.000 C 
ATOM     35  C   UNL     1      30.180  -5.913 -21.928  0.00  0.00    -0.000 C 
ATOM     36  C   UNL     1      30.914  -5.172 -21.002  0.00  0.00    -0.000 C 
ENDBRANCH  30  31
BRANCH  30  37
ATOM     37  O   UNL     1      34.170  -7.570 -23.900  0.00  0.00    -0.340 OA
ATOM     38  C   UNL     1      34.080  -6.356 -24.640  0.00  0.00    +0.175 C 
ENDBRANCH  30  37
ENDBRANCH  12  30
TORSDOF 5
ENDMDL
