MODEL 1
REMARK VINA RESULT:     -12.3      0.000      0.000
REMARK  Name = 448384
REMARK  11 active torsions:
REMARK  status: ('A' for Active; 'I' for Inactive)
REMARK    1  A    between atoms: C_1  and  C_3
REMARK    2  A    between atoms: C_1  and  C_6
REMARK    3  A    between atoms: C_1  and  C_19
REMARK    4  A    between atoms: C_3  and  O_4
REMARK    5  A    between atoms: C_6  and  C_7
REMARK    6  A    between atoms: C_7  and  N_10
REMARK    7  A    between atoms: C_19  and  C_21
REMARK    8  A    between atoms: C_21  and  C_22
REMARK    9  A    between atoms: C_25  and  C_28
REMARK   10  A    between atoms: C_33  and  O_34
REMARK   11  A    between atoms: O_34  and  C_35
REMARK                            x       y       z     vdW  Elec       q    Type
REMARK                         _______ _______ _______ _____ _____    ______ ____
ROOT
ATOM      1  C   UNL     1      32.202 -22.729 -15.770  0.00  0.00    +0.108 C 
ENDROOT
BRANCH   1   3
ATOM      2  O   UNL     1      30.228 -24.091 -15.359  0.00  0.00    -0.250 OA
ATOM      3  C   UNL     1      30.745 -23.139 -15.930  0.00  0.00    +0.314 C 
BRANCH   3   4
ATOM      4  O   UNL     1      30.060 -22.330 -16.777  0.00  0.00    -0.480 OA
ATOM      5  H   UNL     1      30.218 -22.377 -17.699  0.00  0.00    +0.295 HD
ENDBRANCH   3   4
ENDBRANCH   1   3
BRANCH   1   6
ATOM      6  C   UNL     1      32.703 -23.093 -14.357  0.00  0.00    +0.034 C 
BRANCH   6   7
ATOM      7  C   UNL     1      33.163 -24.545 -14.219  0.00  0.00    +0.102 C 
BRANCH   7  10
ATOM      8  O   UNL     1      35.482 -25.993 -15.405  0.00  0.00    -0.269 OA
ATOM      9  O   UNL     1      34.346 -23.432 -11.715  0.00  0.00    -0.269 OA
ATOM     10  N   UNL     1      34.501 -24.670 -13.717  0.00  0.00    -0.223 N 
ATOM     11  C   UNL     1      35.511 -25.373 -14.358  0.00  0.00    +0.255 C 
ATOM     12  C   UNL     1      34.947 -24.103 -12.532  0.00  0.00    +0.255 C 
ATOM     13  C   UNL     1      36.700 -25.235 -13.518  0.00  0.00    +0.058 C 
ATOM     14  C   UNL     1      36.359 -24.467 -12.413  0.00  0.00    +0.058 C 
ATOM     15  C   UNL     1      37.974 -25.734 -13.694  0.00  0.00    +0.005 C 
ATOM     16  C   UNL     1      37.273 -24.160 -11.428  0.00  0.00    +0.005 C 
ATOM     17  C   UNL     1      38.917 -25.435 -12.708  0.00  0.00    +0.000 C 
ATOM     18  C   UNL     1      38.571 -24.656 -11.585  0.00  0.00    +0.000 C 
ENDBRANCH   7  10
ENDBRANCH   6   7
ENDBRANCH   1   6
BRANCH   1  19
ATOM     19  C   UNL     1      33.036 -23.460 -16.840  0.00  0.00    +0.080 C 
BRANCH  19  21
ATOM     20  O   UNL     1      35.376 -23.000 -16.445  0.00  0.00    -0.291 OA
ATOM     21  C   UNL     1      34.373 -22.782 -17.121  0.00  0.00    +0.174 C 
BRANCH  21  22
ATOM     22  C   UNL     1      34.457 -21.812 -18.252  0.00  0.00    +0.035 C 
ATOM     23  C   UNL     1      35.702 -21.380 -18.710  0.00  0.00    +0.003 C 
ATOM     24  C   UNL     1      33.291 -21.338 -18.851  0.00  0.00    +0.003 C 
ATOM     25  C   UNL     1      34.613 -20.000 -20.366  0.00  0.00    +0.000 C 
ATOM     26  C   UNL     1      35.780 -20.474 -19.767  0.00  0.00    +0.000 C 
ATOM     27  C   UNL     1      33.369 -20.431 -19.909  0.00  0.00    +0.000 C 
BRANCH  25  28
ATOM     28  C   UNL     1      34.693 -19.058 -21.463  0.00  0.00    +0.000 C 
ATOM     29  C   UNL     1      34.111 -19.370 -22.692  0.00  0.00    +0.003 C 
ATOM     30  C   UNL     1      35.355 -17.842 -21.292  0.00  0.00    +0.003 C 
ATOM     31  C   UNL     1      34.189 -18.464 -23.750  0.00  0.00    +0.037 C 
ATOM     32  C   UNL     1      35.432 -16.937 -22.350  0.00  0.00    +0.037 C 
ATOM     33  C   UNL     1      34.851 -17.248 -23.579  0.00  0.00    +0.139 C 
BRANCH  33  34
ATOM     34  O   UNL     1      34.924 -16.363 -24.612  0.00  0.00    -0.475 OA
BRANCH  34  35
ATOM     35  C   UNL     1      33.693 -15.831 -25.100  0.00  0.00    +0.206 C 
ATOM     36  C   UNL     1      33.422 -14.509 -24.413  0.00  0.00    +0.051 C 
ENDBRANCH  34  35
ENDBRANCH  33  34
ENDBRANCH  25  28
ENDBRANCH  21  22
ENDBRANCH  19  21
ENDBRANCH   1  19
TORSDOF 11
ENDMDL
MODEL 2
REMARK VINA RESULT:     -12.2      4.738     13.390
REMARK  Name = 448384
REMARK  11 active torsions:
REMARK  status: ('A' for Active; 'I' for Inactive)
REMARK    1  A    between atoms: C_1  and  C_3
REMARK    2  A    between atoms: C_1  and  C_6
REMARK    3  A    between atoms: C_1  and  C_19
REMARK    4  A    between atoms: C_3  and  O_4
REMARK    5  A    between atoms: C_6  and  C_7
REMARK    6  A    between atoms: C_7  and  N_10
REMARK    7  A    between atoms: C_19  and  C_21
REMARK    8  A    between atoms: C_21  and  C_22
REMARK    9  A    between atoms: C_25  and  C_28
REMARK   10  A    between atoms: C_33  and  O_34
REMARK   11  A    between atoms: O_34  and  C_35
REMARK                            x       y       z     vdW  Elec       q    Type
REMARK                         _______ _______ _______ _____ _____    ______ ____
ROOT
ATOM      1  C   UNL     1      33.607 -13.750 -24.723  0.00  0.00    +0.108 C 
ENDROOT
BRANCH   1   3
ATOM      2  O   UNL     1      32.629 -12.161 -26.286  0.00  0.00    -0.250 OA
ATOM      3  C   UNL     1      33.449 -13.044 -26.063  0.00  0.00    +0.314 C 
BRANCH   3   4
ATOM      4  O   UNL     1      34.323 -13.489 -27.000  0.00  0.00    -0.480 OA
ATOM      5  H   UNL     1      34.478 -12.984 -27.773  0.00  0.00    +0.295 HD
ENDBRANCH   3   4
ENDBRANCH   1   3
BRANCH   1   6
ATOM      6  C   UNL     1      32.625 -13.158 -23.691  0.00  0.00    +0.034 C 
BRANCH   6   7
ATOM      7  C   UNL     1      33.309 -12.452 -22.521  0.00  0.00    +0.102 C 
BRANCH   7  10
ATOM      8  O   UNL     1      31.308 -10.916 -20.932  0.00  0.00    -0.269 OA
ATOM      9  O   UNL     1      34.678 -10.284 -24.048  0.00  0.00    -0.269 OA
ATOM     10  N   UNL     1      33.070 -11.037 -22.495  0.00  0.00    -0.223 N 
ATOM     11  C   UNL     1      32.105 -10.424 -21.709  0.00  0.00    +0.255 C 
ATOM     12  C   UNL     1      33.775 -10.112 -23.251  0.00  0.00    +0.255 C 
ATOM     13  C   UNL     1      32.211  -8.990 -21.979  0.00  0.00    +0.058 C 
ATOM     14  C   UNL     1      33.221  -8.802 -22.912  0.00  0.00    +0.058 C 
ATOM     15  C   UNL     1      31.490  -7.934 -21.461  0.00  0.00    +0.005 C 
ATOM     16  C   UNL     1      33.562  -7.549 -23.375  0.00  0.00    +0.005 C 
ATOM     17  C   UNL     1      31.818  -6.655 -21.915  0.00  0.00    +0.000 C 
ATOM     18  C   UNL     1      32.844  -6.463 -22.864  0.00  0.00    +0.000 C 
ENDBRANCH   7  10
ENDBRANCH   6   7
ENDBRANCH   1   6
BRANCH   1  19
ATOM     19  C   UNL     1      33.330 -15.253 -24.928  0.00  0.00    +0.080 C 
BRANCH  19  21
ATOM     20  O   UNL     1      35.536 -16.023 -25.544  0.00  0.00    -0.291 OA
ATOM     21  C   UNL     1      34.579 -16.115 -24.779  0.00  0.00    +0.174 C 
BRANCH  21  22
ATOM     22  C   UNL     1      34.630 -17.113 -23.671  0.00  0.00    +0.035 C 
ATOM     23  C   UNL     1      35.203 -16.768 -22.447  0.00  0.00    +0.003 C 
ATOM     24  C   UNL     1      34.102 -18.390 -23.859  0.00  0.00    +0.003 C 
ATOM     25  C   UNL     1      34.723 -18.979 -21.600  0.00  0.00    +0.000 C 
ATOM     26  C   UNL     1      35.250 -17.701 -21.412  0.00  0.00    +0.000 C 
ATOM     27  C   UNL     1      34.149 -19.324 -22.824  0.00  0.00    +0.000 C 
BRANCH  25  28
ATOM     28  C   UNL     1      34.771 -19.948 -20.526  0.00  0.00    +0.000 C 
ATOM     29  C   UNL     1      33.587 -20.474 -20.009  0.00  0.00    +0.003 C 
ATOM     30  C   UNL     1      36.001 -20.354 -20.007  0.00  0.00    +0.003 C 
ATOM     31  C   UNL     1      33.633 -21.406 -18.972  0.00  0.00    +0.037 C 
ATOM     32  C   UNL     1      36.046 -21.286 -18.971  0.00  0.00    +0.037 C 
ATOM     33  C   UNL     1      34.862 -21.812 -18.453  0.00  0.00    +0.139 C 
BRANCH  33  34
ATOM     34  O   UNL     1      34.906 -22.725 -17.444  0.00  0.00    -0.475 OA
BRANCH  34  35
ATOM     35  C   UNL     1      33.660 -23.121 -16.872  0.00  0.00    +0.206 C 
ATOM     36  C   UNL     1      33.848 -23.340 -15.386  0.00  0.00    +0.051 C 
ENDBRANCH  34  35
ENDBRANCH  33  34
ENDBRANCH  25  28
ENDBRANCH  21  22
ENDBRANCH  19  21
ENDBRANCH   1  19
TORSDOF 11
ENDMDL
MODEL 3
REMARK VINA RESULT:     -12.2      4.722     13.311
REMARK  Name = 448384
REMARK  11 active torsions:
REMARK  status: ('A' for Active; 'I' for Inactive)
REMARK    1  A    between atoms: C_1  and  C_3
REMARK    2  A    between atoms: C_1  and  C_6
REMARK    3  A    between atoms: C_1  and  C_19
REMARK    4  A    between atoms: C_3  and  O_4
REMARK    5  A    between atoms: C_6  and  C_7
REMARK    6  A    between atoms: C_7  and  N_10
REMARK    7  A    between atoms: C_19  and  C_21
REMARK    8  A    between atoms: C_21  and  C_22
REMARK    9  A    between atoms: C_25  and  C_28
REMARK   10  A    between atoms: C_33  and  O_34
REMARK   11  A    between atoms: O_34  and  C_35
REMARK                            x       y       z     vdW  Elec       q    Type
REMARK                         _______ _______ _______ _____ _____    ______ ____
ROOT
ATOM      1  C   UNL     1      33.626 -13.795 -24.699  0.00  0.00    +0.108 C 
ENDROOT
BRANCH   1   3
ATOM      2  O   UNL     1      32.658 -12.203 -26.265  0.00  0.00    -0.250 OA
ATOM      3  C   UNL     1      33.457 -13.106 -26.046  0.00  0.00    +0.314 C 
BRANCH   3   4
ATOM      4  O   UNL     1      34.294 -13.592 -26.996  0.00  0.00    -0.480 OA
ATOM      5  H   UNL     1      34.074 -13.506 -27.902  0.00  0.00    +0.295 HD
ENDBRANCH   3   4
ENDBRANCH   1   3
BRANCH   1   6
ATOM      6  C   UNL     1      32.664 -13.180 -23.663  0.00  0.00    +0.034 C 
BRANCH   6   7
ATOM      7  C   UNL     1      33.370 -12.477 -22.503  0.00  0.00    +0.102 C 
BRANCH   7  10
ATOM      8  O   UNL     1      34.645 -10.266 -24.042  0.00  0.00    -0.269 OA
ATOM      9  O   UNL     1      31.403 -10.999 -20.814  0.00  0.00    -0.269 OA
ATOM     10  N   UNL     1      33.104 -11.068 -22.448  0.00  0.00    -0.223 N 
ATOM     11  C   UNL     1      33.761 -10.120 -23.218  0.00  0.00    +0.255 C 
ATOM     12  C   UNL     1      32.156 -10.485 -21.620  0.00  0.00    +0.255 C 
ATOM     13  C   UNL     1      33.178  -8.828 -22.857  0.00  0.00    +0.058 C 
ATOM     14  C   UNL     1      32.207  -9.049 -21.891  0.00  0.00    +0.058 C 
ATOM     15  C   UNL     1      33.466  -7.563 -23.326  0.00  0.00    +0.005 C 
ATOM     16  C   UNL     1      31.474  -8.017 -21.343  0.00  0.00    +0.005 C 
ATOM     17  C   UNL     1      32.736  -6.502 -22.786  0.00  0.00    +0.000 C 
ATOM     18  C   UNL     1      31.749  -6.726 -21.804  0.00  0.00    +0.000 C 
ENDBRANCH   7  10
ENDBRANCH   6   7
ENDBRANCH   1   6
BRANCH   1  19
ATOM     19  C   UNL     1      33.333 -15.298 -24.879  0.00  0.00    +0.080 C 
BRANCH  19  21
ATOM     20  O   UNL     1      35.519 -16.089 -25.539  0.00  0.00    -0.291 OA
ATOM     21  C   UNL     1      34.579 -16.169 -24.753  0.00  0.00    +0.174 C 
BRANCH  21  22
ATOM     22  C   UNL     1      34.647 -17.158 -23.638  0.00  0.00    +0.035 C 
ATOM     23  C   UNL     1      35.245 -16.807 -22.428  0.00  0.00    +0.003 C 
ATOM     24  C   UNL     1      34.112 -18.435 -23.807  0.00  0.00    +0.003 C 
ATOM     25  C   UNL     1      34.773 -19.010 -21.556  0.00  0.00    +0.000 C 
ATOM     26  C   UNL     1      35.309 -17.732 -21.387  0.00  0.00    +0.000 C 
ATOM     27  C   UNL     1      34.176 -19.362 -22.765  0.00  0.00    +0.000 C 
BRANCH  25  28
ATOM     28  C   UNL     1      34.840 -19.971 -20.476  0.00  0.00    +0.000 C 
ATOM     29  C   UNL     1      36.077 -20.342 -19.948  0.00  0.00    +0.003 C 
ATOM     30  C   UNL     1      33.668 -20.529 -19.965  0.00  0.00    +0.003 C 
ATOM     31  C   UNL     1      36.142 -21.270 -18.909  0.00  0.00    +0.037 C 
ATOM     32  C   UNL     1      33.733 -21.457 -18.926  0.00  0.00    +0.037 C 
ATOM     33  C   UNL     1      34.970 -21.828 -18.398  0.00  0.00    +0.139 C 
BRANCH  33  34
ATOM     34  O   UNL     1      35.035 -22.731 -17.382  0.00  0.00    -0.475 OA
BRANCH  34  35
ATOM     35  C   UNL     1      33.806 -23.084 -16.748  0.00  0.00    +0.206 C 
ATOM     36  C   UNL     1      34.019 -23.126 -15.249  0.00  0.00    +0.051 C 
ENDBRANCH  34  35
ENDBRANCH  33  34
ENDBRANCH  25  28
ENDBRANCH  21  22
ENDBRANCH  19  21
ENDBRANCH   1  19
TORSDOF 11
ENDMDL
MODEL 4
REMARK VINA RESULT:     -12.1      0.680      1.815
REMARK  Name = 448384
REMARK  11 active torsions:
REMARK  status: ('A' for Active; 'I' for Inactive)
REMARK    1  A    between atoms: C_1  and  C_3
REMARK    2  A    between atoms: C_1  and  C_6
REMARK    3  A    between atoms: C_1  and  C_19
REMARK    4  A    between atoms: C_3  and  O_4
REMARK    5  A    between atoms: C_6  and  C_7
REMARK    6  A    between atoms: C_7  and  N_10
REMARK    7  A    between atoms: C_19  and  C_21
REMARK    8  A    between atoms: C_21  and  C_22
REMARK    9  A    between atoms: C_25  and  C_28
REMARK   10  A    between atoms: C_33  and  O_34
REMARK   11  A    between atoms: O_34  and  C_35
REMARK                            x       y       z     vdW  Elec       q    Type
REMARK                         _______ _______ _______ _____ _____    ______ ____
ROOT
ATOM      1  C   UNL     1      32.655 -23.057 -15.564  0.00  0.00    +0.108 C 
ENDROOT
BRANCH   1   3
ATOM      2  O   UNL     1      30.363 -23.083 -14.748  0.00  0.00    -0.250 OA
ATOM      3  C   UNL     1      31.152 -22.830 -15.649  0.00  0.00    +0.314 C 
BRANCH   3   4
ATOM      4  O   UNL     1      30.766 -22.306 -16.839  0.00  0.00    -0.480 OA
ATOM      5  H   UNL     1      29.866 -22.345 -17.098  0.00  0.00    +0.295 HD
ENDBRANCH   3   4
ENDBRANCH   1   3
BRANCH   1   6
ATOM      6  C   UNL     1      32.962 -24.227 -14.606  0.00  0.00    +0.034 C 
BRANCH   6   7
ATOM      7  C   UNL     1      33.768 -23.821 -13.372  0.00  0.00    +0.102 C 
BRANCH   7  10
ATOM      8  O   UNL     1      36.070 -22.987 -11.672  0.00  0.00    -0.269 OA
ATOM      9  O   UNL     1      35.032 -25.834 -15.177  0.00  0.00    -0.269 OA
ATOM     10  N   UNL     1      35.129 -24.274 -13.410  0.00  0.00    -0.223 N 
ATOM     11  C   UNL     1      36.127 -23.815 -12.562  0.00  0.00    +0.255 C 
ATOM     12  C   UNL     1      35.611 -25.225 -14.298  0.00  0.00    +0.255 C 
ATOM     13  C   UNL     1      37.342 -24.540 -12.934  0.00  0.00    +0.058 C 
ATOM     14  C   UNL     1      37.030 -25.393 -13.983  0.00  0.00    +0.058 C 
ATOM     15  C   UNL     1      38.615 -24.467 -12.407  0.00  0.00    +0.005 C 
ATOM     16  C   UNL     1      37.974 -26.215 -14.560  0.00  0.00    +0.005 C 
ATOM     17  C   UNL     1      39.588 -25.291 -12.976  0.00  0.00    +0.000 C 
ATOM     18  C   UNL     1      39.271 -26.157 -14.043  0.00  0.00    +0.000 C 
ENDBRANCH   7  10
ENDBRANCH   6   7
ENDBRANCH   1   6
BRANCH   1  19
ATOM     19  C   UNL     1      33.184 -23.368 -16.978  0.00  0.00    +0.080 C 
BRANCH  19  21
ATOM     20  O   UNL     1      35.531 -22.911 -16.627  0.00  0.00    -0.291 OA
ATOM     21  C   UNL     1      34.515 -22.687 -17.281  0.00  0.00    +0.174 C 
BRANCH  21  22
ATOM     22  C   UNL     1      34.576 -21.709 -18.405  0.00  0.00    +0.035 C 
ATOM     23  C   UNL     1      35.811 -21.263 -18.876  0.00  0.00    +0.003 C 
ATOM     24  C   UNL     1      33.397 -21.240 -18.985  0.00  0.00    +0.003 C 
ATOM     25  C   UNL     1      34.689 -19.879 -20.508  0.00  0.00    +0.000 C 
ATOM     26  C   UNL     1      35.867 -20.348 -19.927  0.00  0.00    +0.000 C 
ATOM     27  C   UNL     1      33.454 -20.324 -20.037  0.00  0.00    +0.000 C 
BRANCH  25  28
ATOM     28  C   UNL     1      34.746 -18.929 -21.598  0.00  0.00    +0.000 C 
ATOM     29  C   UNL     1      35.398 -17.707 -21.423  0.00  0.00    +0.003 C 
ATOM     30  C   UNL     1      34.149 -19.233 -22.821  0.00  0.00    +0.003 C 
ATOM     31  C   UNL     1      35.452 -16.791 -22.473  0.00  0.00    +0.037 C 
ATOM     32  C   UNL     1      34.204 -18.315 -23.870  0.00  0.00    +0.037 C 
ATOM     33  C   UNL     1      34.855 -17.094 -23.696  0.00  0.00    +0.139 C 
BRANCH  33  34
ATOM     34  O   UNL     1      34.911 -16.199 -24.721  0.00  0.00    -0.475 OA
BRANCH  34  35
ATOM     35  C   UNL     1      33.680 -15.607 -25.133  0.00  0.00    +0.206 C 
ATOM     36  C   UNL     1      33.415 -14.380 -24.286  0.00  0.00    +0.051 C 
ENDBRANCH  34  35
ENDBRANCH  33  34
ENDBRANCH  25  28
ENDBRANCH  21  22
ENDBRANCH  19  21
ENDBRANCH   1  19
TORSDOF 11
ENDMDL
MODEL 5
REMARK VINA RESULT:     -12.0      4.071     12.252
REMARK  Name = 448384
REMARK  11 active torsions:
REMARK  status: ('A' for Active; 'I' for Inactive)
REMARK    1  A    between atoms: C_1  and  C_3
REMARK    2  A    between atoms: C_1  and  C_6
REMARK    3  A    between atoms: C_1  and  C_19
REMARK    4  A    between atoms: C_3  and  O_4
REMARK    5  A    between atoms: C_6  and  C_7
REMARK    6  A    between atoms: C_7  and  N_10
REMARK    7  A    between atoms: C_19  and  C_21
REMARK    8  A    between atoms: C_21  and  C_22
REMARK    9  A    between atoms: C_25  and  C_28
REMARK   10  A    between atoms: C_33  and  O_34
REMARK   11  A    between atoms: O_34  and  C_35
REMARK                            x       y       z     vdW  Elec       q    Type
REMARK                         _______ _______ _______ _____ _____    ______ ____
ROOT
ATOM      1  C   UNL     1      34.596 -15.938 -22.087  0.00  0.00    +0.108 C 
ENDROOT
BRANCH   1   3
ATOM      2  O   UNL     1      35.291 -16.485 -19.820  0.00  0.00    -0.250 OA
ATOM      3  C   UNL     1      34.945 -15.639 -20.636  0.00  0.00    +0.314 C 
BRANCH   3   4
ATOM      4  O   UNL     1      34.839 -14.322 -20.330  0.00  0.00    -0.480 OA
ATOM      5  H   UNL     1      35.347 -13.690 -20.800  0.00  0.00    +0.295 HD
ENDBRANCH   3   4
ENDBRANCH   1   3
BRANCH   1   6
ATOM      6  C   UNL     1      34.816 -14.683 -22.956  0.00  0.00    +0.034 C 
BRANCH   6   7
ATOM      7  C   UNL     1      33.531 -14.115 -23.559  0.00  0.00    +0.102 C 
BRANCH   7  10
ATOM      8  O   UNL     1      34.159 -11.455 -24.749  0.00  0.00    -0.269 OA
ATOM      9  O   UNL     1      32.055 -13.349 -21.081  0.00  0.00    -0.269 OA
ATOM     10  N   UNL     1      33.204 -12.806 -23.068  0.00  0.00    -0.223 N 
ATOM     11  C   UNL     1      33.548 -11.626 -23.710  0.00  0.00    +0.255 C 
ATOM     12  C   UNL     1      32.505 -12.565 -21.895  0.00  0.00    +0.255 C 
ATOM     13  C   UNL     1      33.016 -10.543 -22.883  0.00  0.00    +0.058 C 
ATOM     14  C   UNL     1      32.385 -11.111 -21.785  0.00  0.00    +0.058 C 
ATOM     15  C   UNL     1      33.074  -9.177 -23.064  0.00  0.00    +0.005 C 
ATOM     16  C   UNL     1      31.781 -10.343 -20.812  0.00  0.00    +0.005 C 
ATOM     17  C   UNL     1      32.468  -8.378 -22.091  0.00  0.00    +0.000 C 
ATOM     18  C   UNL     1      31.829  -8.955 -20.975  0.00  0.00    +0.000 C 
ENDBRANCH   7  10
ENDBRANCH   6   7
ENDBRANCH   1   6
BRANCH   1  19
ATOM     19  C   UNL     1      35.492 -17.093 -22.577  0.00  0.00    +0.080 C 
BRANCH  19  21
ATOM     20  O   UNL     1      34.189 -18.773 -23.727  0.00  0.00    -0.291 OA
ATOM     21  C   UNL     1      34.746 -18.419 -22.691  0.00  0.00    +0.174 C 
BRANCH  21  22
ATOM     22  C   UNL     1      34.686 -19.309 -21.495  0.00  0.00    +0.035 C 
ATOM     23  C   UNL     1      33.452 -19.729 -20.999  0.00  0.00    +0.003 C 
ATOM     24  C   UNL     1      35.865 -19.721 -20.873  0.00  0.00    +0.003 C 
ATOM     25  C   UNL     1      34.575 -20.973 -19.259  0.00  0.00    +0.000 C 
ATOM     26  C   UNL     1      33.397 -20.561 -19.881  0.00  0.00    +0.000 C 
ATOM     27  C   UNL     1      35.809 -20.554 -19.755  0.00  0.00    +0.000 C 
BRANCH  25  28
ATOM     28  C   UNL     1      34.519 -21.836 -18.098  0.00  0.00    +0.000 C 
ATOM     29  C   UNL     1      33.345 -22.531 -17.804  0.00  0.00    +0.003 C 
ATOM     30  C   UNL     1      35.635 -21.971 -17.273  0.00  0.00    +0.003 C 
ATOM     31  C   UNL     1      33.288 -23.361 -16.684  0.00  0.00    +0.037 C 
ATOM     32  C   UNL     1      35.578 -22.801 -16.154  0.00  0.00    +0.037 C 
ATOM     33  C   UNL     1      34.405 -23.495 -15.859  0.00  0.00    +0.139 C 
BRANCH  33  34
ATOM     34  O   UNL     1      34.350 -24.308 -14.768  0.00  0.00    -0.475 OA
BRANCH  34  35
ATOM     35  C   UNL     1      35.435 -24.230 -13.845  0.00  0.00    +0.206 C 
ATOM     36  C   UNL     1      34.881 -24.129 -12.440  0.00  0.00    +0.051 C 
ENDBRANCH  34  35
ENDBRANCH  33  34
ENDBRANCH  25  28
ENDBRANCH  21  22
ENDBRANCH  19  21
ENDBRANCH   1  19
TORSDOF 11
ENDMDL
MODEL 6
REMARK VINA RESULT:     -12.0      4.131     12.250
REMARK  Name = 448384
REMARK  11 active torsions:
REMARK  status: ('A' for Active; 'I' for Inactive)
REMARK    1  A    between atoms: C_1  and  C_3
REMARK    2  A    between atoms: C_1  and  C_6
REMARK    3  A    between atoms: C_1  and  C_19
REMARK    4  A    between atoms: C_3  and  O_4
REMARK    5  A    between atoms: C_6  and  C_7
REMARK    6  A    between atoms: C_7  and  N_10
REMARK    7  A    between atoms: C_19  and  C_21
REMARK    8  A    between atoms: C_21  and  C_22
REMARK    9  A    between atoms: C_25  and  C_28
REMARK   10  A    between atoms: C_33  and  O_34
REMARK   11  A    between atoms: O_34  and  C_35
REMARK                            x       y       z     vdW  Elec       q    Type
REMARK                         _______ _______ _______ _____ _____    ______ ____
ROOT
ATOM      1  C   UNL     1      34.616 -15.844 -22.080  0.00  0.00    +0.108 C 
ENDROOT
BRANCH   1   3
ATOM      2  O   UNL     1      35.158 -16.383 -19.769  0.00  0.00    -0.250 OA
ATOM      3  C   UNL     1      34.930 -15.534 -20.623  0.00  0.00    +0.314 C 
BRANCH   3   4
ATOM      4  O   UNL     1      34.940 -14.204 -20.357  0.00  0.00    -0.480 OA
ATOM      5  H   UNL     1      35.737 -13.784 -20.101  0.00  0.00    +0.295 HD
ENDBRANCH   3   4
ENDBRANCH   1   3
BRANCH   1   6
ATOM      6  C   UNL     1      34.779 -14.574 -22.940  0.00  0.00    +0.034 C 
BRANCH   6   7
ATOM      7  C   UNL     1      33.463 -14.028 -23.494  0.00  0.00    +0.102 C 
BRANCH   7  10
ATOM      8  O   UNL     1      32.028 -13.416 -20.954  0.00  0.00    -0.269 OA
ATOM      9  O   UNL     1      33.946 -11.300 -24.603  0.00  0.00    -0.269 OA
ATOM     10  N   UNL     1      33.102 -12.752 -22.946  0.00  0.00    -0.223 N 
ATOM     11  C   UNL     1      32.431 -12.582 -21.744  0.00  0.00    +0.255 C 
ATOM     12  C   UNL     1      33.382 -11.536 -23.551  0.00  0.00    +0.255 C 
ATOM     13  C   UNL     1      32.279 -11.139 -21.564  0.00  0.00    +0.058 C 
ATOM     14  C   UNL     1      32.855 -10.506 -22.656  0.00  0.00    +0.058 C 
ATOM     15  C   UNL     1      31.690 -10.430 -20.537  0.00  0.00    +0.005 C 
ATOM     16  C   UNL     1      32.870  -9.133 -22.780  0.00  0.00    +0.005 C 
ATOM     17  C   UNL     1      31.694  -9.037 -20.640  0.00  0.00    +0.000 C 
ATOM     18  C   UNL     1      32.277  -8.394 -21.751  0.00  0.00    +0.000 C 
ENDBRANCH   7  10
ENDBRANCH   6   7
ENDBRANCH   1   6
BRANCH   1  19
ATOM     19  C   UNL     1      35.578 -16.947 -22.563  0.00  0.00    +0.080 C 
BRANCH  19  21
ATOM     20  O   UNL     1      34.345 -18.712 -23.661  0.00  0.00    -0.291 OA
ATOM     21  C   UNL     1      34.918 -18.319 -22.648  0.00  0.00    +0.174 C 
BRANCH  21  22
ATOM     22  C   UNL     1      34.963 -19.208 -21.450  0.00  0.00    +0.035 C 
ATOM     23  C   UNL     1      36.183 -19.483 -20.830  0.00  0.00    +0.003 C 
ATOM     24  C   UNL     1      33.786 -19.762 -20.949  0.00  0.00    +0.003 C 
ATOM     25  C   UNL     1      35.046 -20.868 -19.210  0.00  0.00    +0.000 C 
ATOM     26  C   UNL     1      36.224 -20.313 -19.711  0.00  0.00    +0.000 C 
ATOM     27  C   UNL     1      33.827 -20.593 -19.829  0.00  0.00    +0.000 C 
BRANCH  25  28
ATOM     28  C   UNL     1      35.088 -21.730 -18.048  0.00  0.00    +0.000 C 
ATOM     29  C   UNL     1      33.972 -22.495 -17.708  0.00  0.00    +0.003 C 
ATOM     30  C   UNL     1      36.243 -21.796 -17.269  0.00  0.00    +0.003 C 
ATOM     31  C   UNL     1      34.011 -23.325 -16.587  0.00  0.00    +0.037 C 
ATOM     32  C   UNL     1      36.281 -22.626 -16.149  0.00  0.00    +0.037 C 
ATOM     33  C   UNL     1      35.165 -23.390 -15.808  0.00  0.00    +0.139 C 
BRANCH  33  34
ATOM     34  O   UNL     1      35.204 -24.202 -14.716  0.00  0.00    -0.475 OA
BRANCH  34  35
ATOM     35  C   UNL     1      36.464 -24.781 -14.381  0.00  0.00    +0.206 C 
ATOM     36  C   UNL     1      36.421 -26.264 -14.684  0.00  0.00    +0.051 C 
ENDBRANCH  34  35
ENDBRANCH  33  34
ENDBRANCH  25  28
ENDBRANCH  21  22
ENDBRANCH  19  21
ENDBRANCH   1  19
TORSDOF 11
ENDMDL
MODEL 7
REMARK VINA RESULT:     -11.8      5.880     10.914
REMARK  Name = 448384
REMARK  11 active torsions:
REMARK  status: ('A' for Active; 'I' for Inactive)
REMARK    1  A    between atoms: C_1  and  C_3
REMARK    2  A    between atoms: C_1  and  C_6
REMARK    3  A    between atoms: C_1  and  C_19
REMARK    4  A    between atoms: C_3  and  O_4
REMARK    5  A    between atoms: C_6  and  C_7
REMARK    6  A    between atoms: C_7  and  N_10
REMARK    7  A    between atoms: C_19  and  C_21
REMARK    8  A    between atoms: C_21  and  C_22
REMARK    9  A    between atoms: C_25  and  C_28
REMARK   10  A    between atoms: C_33  and  O_34
REMARK   11  A    between atoms: O_34  and  C_35
REMARK                            x       y       z     vdW  Elec       q    Type
REMARK                         _______ _______ _______ _____ _____    ______ ____
ROOT
ATOM      1  C   UNL     1      34.145 -15.692 -23.323  0.00  0.00    +0.108 C 
ENDROOT
BRANCH   1   3
ATOM      2  O   UNL     1      35.029 -15.741 -25.590  0.00  0.00    -0.250 OA
ATOM      3  C   UNL     1      34.195 -16.129 -24.781  0.00  0.00    +0.314 C 
BRANCH   3   4
ATOM      4  O   UNL     1      33.215 -17.010 -25.101  0.00  0.00    -0.480 OA
ATOM      5  H   UNL     1      32.323 -16.813 -24.893  0.00  0.00    +0.295 HD
ENDBRANCH   3   4
ENDBRANCH   1   3
BRANCH   1   6
ATOM      6  C   UNL     1      35.348 -16.273 -22.553  0.00  0.00    +0.034 C 
BRANCH   6   7
ATOM      7  C   UNL     1      35.709 -17.703 -22.957  0.00  0.00    +0.102 C 
BRANCH   7  10
ATOM      8  O   UNL     1      33.312 -19.229 -22.057  0.00  0.00    -0.269 OA
ATOM      9  O   UNL     1      37.791 -18.633 -21.031  0.00  0.00    -0.269 OA
ATOM     10  N   UNL     1      35.590 -18.643 -21.879  0.00  0.00    -0.223 N 
ATOM     11  C   UNL     1      34.416 -19.303 -21.548  0.00  0.00    +0.255 C 
ATOM     12  C   UNL     1      36.634 -19.007 -21.042  0.00  0.00    +0.255 C 
ATOM     13  C   UNL     1      34.740 -20.165 -20.411  0.00  0.00    +0.058 C 
ATOM     14  C   UNL     1      36.081 -19.986 -20.105  0.00  0.00    +0.058 C 
ATOM     15  C   UNL     1      33.938 -21.032 -19.699  0.00  0.00    +0.005 C 
ATOM     16  C   UNL     1      36.690 -20.664 -19.071  0.00  0.00    +0.005 C 
ATOM     17  C   UNL     1      34.534 -21.732 -18.647  0.00  0.00    +0.000 C 
ATOM     18  C   UNL     1      35.897 -21.549 -18.334  0.00  0.00    +0.000 C 
ENDBRANCH   7  10
ENDBRANCH   6   7
ENDBRANCH   1   6
BRANCH   1  19
ATOM     19  C   UNL     1      34.168 -14.152 -23.274  0.00  0.00    +0.080 C 
BRANCH  19  21
ATOM     20  O   UNL     1      33.198 -14.252 -21.063  0.00  0.00    -0.291 OA
ATOM     21  C   UNL     1      33.433 -13.582 -22.065  0.00  0.00    +0.174 C 
BRANCH  21  22
ATOM     22  C   UNL     1      32.975 -12.163 -22.112  0.00  0.00    +0.035 C 
ATOM     23  C   UNL     1      32.009 -11.711 -21.214  0.00  0.00    +0.003 C 
ATOM     24  C   UNL     1      33.515 -11.288 -23.055  0.00  0.00    +0.003 C 
ATOM     25  C   UNL     1      32.121  -9.509 -22.201  0.00  0.00    +0.000 C 
ATOM     26  C   UNL     1      31.582 -10.384 -21.259  0.00  0.00    +0.000 C 
ATOM     27  C   UNL     1      33.088  -9.960 -23.100  0.00  0.00    +0.000 C 
BRANCH  25  28
ATOM     28  C   UNL     1      31.678  -8.132 -22.249  0.00  0.00    +0.000 C 
ATOM     29  C   UNL     1      31.632  -7.374 -21.078  0.00  0.00    +0.003 C 
ATOM     30  C   UNL     1      31.294  -7.563 -23.463  0.00  0.00    +0.003 C 
ATOM     31  C   UNL     1      31.203  -6.048 -21.122  0.00  0.00    +0.037 C 
ATOM     32  C   UNL     1      30.865  -6.237 -23.507  0.00  0.00    +0.037 C 
ATOM     33  C   UNL     1      30.819  -5.480 -22.337  0.00  0.00    +0.139 C 
BRANCH  33  34
ATOM     34  O   UNL     1      30.403  -4.184 -22.380  0.00  0.00    -0.475 OA
BRANCH  34  35
ATOM     35  C   UNL     1      31.377  -3.200 -22.727  0.00  0.00    +0.206 C 
ATOM     36  C   UNL     1      31.708  -2.379 -21.498  0.00  0.00    +0.051 C 
ENDBRANCH  34  35
ENDBRANCH  33  34
ENDBRANCH  25  28
ENDBRANCH  21  22
ENDBRANCH  19  21
ENDBRANCH   1  19
TORSDOF 11
ENDMDL
MODEL 8
REMARK VINA RESULT:     -11.8      5.770     10.833
REMARK  Name = 448384
REMARK  11 active torsions:
REMARK  status: ('A' for Active; 'I' for Inactive)
REMARK    1  A    between atoms: C_1  and  C_3
REMARK    2  A    between atoms: C_1  and  C_6
REMARK    3  A    between atoms: C_1  and  C_19
REMARK    4  A    between atoms: C_3  and  O_4
REMARK    5  A    between atoms: C_6  and  C_7
REMARK    6  A    between atoms: C_7  and  N_10
REMARK    7  A    between atoms: C_19  and  C_21
REMARK    8  A    between atoms: C_21  and  C_22
REMARK    9  A    between atoms: C_25  and  C_28
REMARK   10  A    between atoms: C_33  and  O_34
REMARK   11  A    between atoms: O_34  and  C_35
REMARK                            x       y       z     vdW  Elec       q    Type
REMARK                         _______ _______ _______ _____ _____    ______ ____
ROOT
ATOM      1  C   UNL     1      34.231 -15.817 -23.233  0.00  0.00    +0.108 C 
ENDROOT
BRANCH   1   3
ATOM      2  O   UNL     1      35.042 -16.042 -25.517  0.00  0.00    -0.250 OA
ATOM      3  C   UNL     1      34.327 -16.456 -24.612  0.00  0.00    +0.314 C 
BRANCH   3   4
ATOM      4  O   UNL     1      33.537 -17.551 -24.742  0.00  0.00    -0.480 OA
ATOM      5  H   UNL     1      32.917 -17.763 -24.072  0.00  0.00    +0.295 HD
ENDBRANCH   3   4
ENDBRANCH   1   3
BRANCH   1   6
ATOM      6  C   UNL     1      35.400 -16.290 -22.346  0.00  0.00    +0.034 C 
BRANCH   6   7
ATOM      7  C   UNL     1      35.935 -17.674 -22.713  0.00  0.00    +0.102 C 
BRANCH   7  10
ATOM      8  O   UNL     1      37.811 -18.848 -20.716  0.00  0.00    -0.269 OA
ATOM      9  O   UNL     1      33.392 -19.104 -22.085  0.00  0.00    -0.269 OA
ATOM     10  N   UNL     1      35.679 -18.666 -21.708  0.00  0.00    -0.223 N 
ATOM     11  C   UNL     1      36.634 -19.142 -20.822  0.00  0.00    +0.255 C 
ATOM     12  C   UNL     1      34.446 -19.267 -21.501  0.00  0.00    +0.255 C 
ATOM     13  C   UNL     1      35.952 -20.120 -19.975  0.00  0.00    +0.058 C 
ATOM     14  C   UNL     1      34.629 -20.195 -20.386  0.00  0.00    +0.058 C 
ATOM     15  C   UNL     1      36.438 -20.884 -18.934  0.00  0.00    +0.005 C 
ATOM     16  C   UNL     1      33.723 -21.038 -19.777  0.00  0.00    +0.005 C 
ATOM     17  C   UNL     1      35.537 -21.745 -18.302  0.00  0.00    +0.000 C 
ATOM     18  C   UNL     1      34.193 -21.822 -18.719  0.00  0.00    +0.000 C 
ENDBRANCH   7  10
ENDBRANCH   6   7
ENDBRANCH   1   6
BRANCH   1  19
ATOM     19  C   UNL     1      34.270 -14.285 -23.401  0.00  0.00    +0.080 C 
BRANCH  19  21
ATOM     20  O   UNL     1      33.061 -14.113 -21.316  0.00  0.00    -0.291 OA
ATOM     21  C   UNL     1      33.492 -13.546 -22.317  0.00  0.00    +0.174 C 
BRANCH  21  22
ATOM     22  C   UNL     1      33.241 -12.086 -22.489  0.00  0.00    +0.035 C 
ATOM     23  C   UNL     1      33.952 -11.363 -23.447  0.00  0.00    +0.003 C 
ATOM     24  C   UNL     1      32.294 -11.443 -21.691  0.00  0.00    +0.003 C 
ATOM     25  C   UNL     1      32.769  -9.356 -22.810  0.00  0.00    +0.000 C 
ATOM     26  C   UNL     1      33.716  -9.998 -23.607  0.00  0.00    +0.000 C 
ATOM     27  C   UNL     1      32.058 -10.078 -21.851  0.00  0.00    +0.000 C 
BRANCH  25  28
ATOM     28  C   UNL     1      32.524  -7.939 -22.975  0.00  0.00    +0.000 C 
ATOM     29  C   UNL     1      31.216  -7.454 -22.977  0.00  0.00    +0.003 C 
ATOM     30  C   UNL     1      33.595  -7.059 -23.134  0.00  0.00    +0.003 C 
ATOM     31  C   UNL     1      30.979  -6.089 -23.139  0.00  0.00    +0.037 C 
ATOM     32  C   UNL     1      33.357  -5.694 -23.295  0.00  0.00    +0.037 C 
ATOM     33  C   UNL     1      32.049  -5.209 -23.298  0.00  0.00    +0.139 C 
BRANCH  33  34
ATOM     34  O   UNL     1      31.817  -3.876 -23.452  0.00  0.00    -0.475 OA
BRANCH  34  35
ATOM     35  C   UNL     1      30.982  -3.246 -22.482  0.00  0.00    +0.206 C 
ATOM     36  C   UNL     1      31.826  -2.846 -21.291  0.00  0.00    +0.051 C 
ENDBRANCH  34  35
ENDBRANCH  33  34
ENDBRANCH  25  28
ENDBRANCH  21  22
ENDBRANCH  19  21
ENDBRANCH   1  19
TORSDOF 11
ENDMDL
MODEL 9
REMARK VINA RESULT:     -11.8      1.872      4.742
REMARK  Name = 448384
REMARK  11 active torsions:
REMARK  status: ('A' for Active; 'I' for Inactive)
REMARK    1  A    between atoms: C_1  and  C_3
REMARK    2  A    between atoms: C_1  and  C_6
REMARK    3  A    between atoms: C_1  and  C_19
REMARK    4  A    between atoms: C_3  and  O_4
REMARK    5  A    between atoms: C_6  and  C_7
REMARK    6  A    between atoms: C_7  and  N_10
REMARK    7  A    between atoms: C_19  and  C_21
REMARK    8  A    between atoms: C_21  and  C_22
REMARK    9  A    between atoms: C_25  and  C_28
REMARK   10  A    between atoms: C_33  and  O_34
REMARK   11  A    between atoms: O_34  and  C_35
REMARK                            x       y       z     vdW  Elec       q    Type
REMARK                         _______ _______ _______ _____ _____    ______ ____
ROOT
ATOM      1  C   UNL     1      36.289 -23.410 -15.676  0.00  0.00    +0.108 C 
ENDROOT
BRANCH   1   3
ATOM      2  O   UNL     1      37.568 -22.760 -13.710  0.00  0.00    -0.250 OA
ATOM      3  C   UNL     1      37.553 -23.084 -14.891  0.00  0.00    +0.314 C 
BRANCH   3   4
ATOM      4  O   UNL     1      38.680 -23.193 -15.638  0.00  0.00    -0.480 OA
ATOM      5  H   UNL     1      38.953 -22.480 -16.180  0.00  0.00    +0.295 HD
ENDBRANCH   3   4
ENDBRANCH   1   3
BRANCH   1   6
ATOM      6  C   UNL     1      35.176 -23.882 -14.717  0.00  0.00    +0.034 C 
BRANCH   6   7
ATOM      7  C   UNL     1      34.106 -22.826 -14.445  0.00  0.00    +0.102 C 
BRANCH   7  10
ATOM      8  O   UNL     1      32.719 -24.649 -12.539  0.00  0.00    -0.269 OA
ATOM      9  O   UNL     1      31.997 -22.368 -16.506  0.00  0.00    -0.269 OA
ATOM     10  N   UNL     1      32.769 -23.345 -14.502  0.00  0.00    -0.223 N 
ATOM     11  C   UNL     1      32.221 -24.192 -13.551  0.00  0.00    +0.255 C 
ATOM     12  C   UNL     1      31.865 -23.061 -15.515  0.00  0.00    +0.255 C 
ATOM     13  C   UNL     1      30.852 -24.463 -13.988  0.00  0.00    +0.058 C 
ATOM     14  C   UNL     1      30.636 -23.779 -15.176  0.00  0.00    +0.058 C 
ATOM     15  C   UNL     1      29.872 -25.241 -13.406  0.00  0.00    +0.005 C 
ATOM     16  C   UNL     1      29.431 -23.837 -15.843  0.00  0.00    +0.005 C 
ATOM     17  C   UNL     1      28.642 -25.314 -14.064  0.00  0.00    +0.000 C 
ATOM     18  C   UNL     1      28.423 -24.619 -15.272  0.00  0.00    +0.000 C 
ENDBRANCH   7  10
ENDBRANCH   6   7
ENDBRANCH   1   6
BRANCH   1  19
ATOM     19  C   UNL     1      35.844 -22.143 -16.433  0.00  0.00    +0.080 C 
BRANCH  19  21
ATOM     20  O   UNL     1      34.438 -23.512 -17.844  0.00  0.00    -0.291 OA
ATOM     21  C   UNL     1      35.041 -22.453 -17.693  0.00  0.00    +0.174 C 
BRANCH  21  22
ATOM     22  C   UNL     1      35.000 -21.433 -18.781  0.00  0.00    +0.035 C 
ATOM     23  C   UNL     1      33.776 -21.034 -19.318  0.00  0.00    +0.003 C 
ATOM     24  C   UNL     1      36.186 -20.877 -19.260  0.00  0.00    +0.003 C 
ATOM     25  C   UNL     1      34.924 -19.525 -20.814  0.00  0.00    +0.000 C 
ATOM     26  C   UNL     1      33.738 -20.081 -20.335  0.00  0.00    +0.000 C 
ATOM     27  C   UNL     1      36.149 -19.923 -20.277  0.00  0.00    +0.000 C 
BRANCH  25  28
ATOM     28  C   UNL     1      34.886 -18.536 -21.870  0.00  0.00    +0.000 C 
ATOM     29  C   UNL     1      34.317 -18.856 -23.104  0.00  0.00    +0.003 C 
ATOM     30  C   UNL     1      35.420 -17.266 -21.657  0.00  0.00    +0.003 C 
ATOM     31  C   UNL     1      34.281 -17.904 -24.122  0.00  0.00    +0.037 C 
ATOM     32  C   UNL     1      35.384 -16.314 -22.676  0.00  0.00    +0.037 C 
ATOM     33  C   UNL     1      34.815 -16.634 -23.909  0.00  0.00    +0.139 C 
BRANCH  33  34
ATOM     34  O   UNL     1      34.778 -15.704 -24.903  0.00  0.00    -0.475 OA
BRANCH  34  35
ATOM     35  C   UNL     1      33.498 -15.178 -25.252  0.00  0.00    +0.206 C 
ATOM     36  C   UNL     1      33.248 -13.918 -24.448  0.00  0.00    +0.051 C 
ENDBRANCH  34  35
ENDBRANCH  33  34
ENDBRANCH  25  28
ENDBRANCH  21  22
ENDBRANCH  19  21
ENDBRANCH   1  19
TORSDOF 11
ENDMDL
