MODEL 1
REMARK VINA RESULT:     -12.7      0.000      0.000
REMARK  Name = 11560787
REMARK  5 active torsions:
REMARK  status: ('A' for Active; 'I' for Inactive)
REMARK    1  A    between atoms: N_2  and  C_23
REMARK    2  A    between atoms: C_8  and  C_9
REMARK    3  A    between atoms: C_12  and  N_15
REMARK    4  A    between atoms: C_13  and  O_21
REMARK    5  A    between atoms: C_23  and  C_26
REMARK                            x       y       z     vdW  Elec       q    Type
REMARK                         _______ _______ _______ _____ _____    ______ ____
ROOT
ATOM      1  O   UNL     1      35.031 -16.346 -23.856  0.00  0.00    -0.270 OA
ATOM      2  N   UNL     1      35.217 -16.931 -21.620  0.00  0.00    -0.274 N 
ATOM      3  C   UNL     1      34.972 -16.628 -20.210  0.00  0.00    +0.094 C 
ATOM      4  C   UNL     1      35.046 -15.143 -19.913  0.00  0.00    +0.026 C 
ATOM      5  C   UNL     1      34.082 -14.409 -20.826  0.00  0.00    +0.033 C 
ATOM      6  C   UNL     1      34.388 -14.708 -22.262  0.00  0.00    +0.031 C 
ATOM      7  C   UNL     1      34.901 -16.060 -22.665  0.00  0.00    +0.245 C 
ATOM      8  C   UNL     1      34.245 -13.778 -23.220  0.00  0.00    +0.000 C 
ENDROOT
BRANCH   8   9
ATOM      9  C   UNL     1      33.758 -12.406 -23.016  0.00  0.00    +0.003 C 
ATOM     10  C   UNL     1      32.737 -12.172 -22.108  0.00  0.00    +0.038 C 
ATOM     11  C   UNL     1      34.331 -11.366 -23.735  0.00  0.00    +0.001 C 
ATOM     12  C   UNL     1      32.843  -9.816 -22.631  0.00  0.00    +0.084 C 
ATOM     13  C   UNL     1      32.276 -10.870 -21.915  0.00  0.00    +0.152 C 
ATOM     14  C   UNL     1      33.871 -10.065 -23.542  0.00  0.00    +0.018 C 
BRANCH  12  15
ATOM     15  N   UNL     1      32.397  -8.518 -22.452  0.00  0.00    -0.280 N 
ATOM     16  N   UNL     1      31.137  -6.694 -22.668  0.00  0.00    -0.255 NA
ATOM     17  C   UNL     1      32.971  -7.561 -21.657  0.00  0.00    +0.134 C 
ATOM     18  C   UNL     1      31.297  -7.945 -23.037  0.00  0.00    +0.220 C 
ATOM     19  C   UNL     1      32.177  -6.448 -21.807  0.00  0.00    +0.054 C 
ATOM     20  C   UNL     1      32.332  -5.127 -21.179  0.00  0.00    +0.049 C 
ENDBRANCH  12  15
BRANCH  13  21
ATOM     21  O   UNL     1      31.271 -10.652 -21.019  0.00  0.00    -0.470 OA
ATOM     22  C   UNL     1      31.631 -10.616 -19.640  0.00  0.00    +0.253 C 
ENDBRANCH  13  21
ENDBRANCH   8   9
BRANCH   2  23
ATOM     23  C   UNL     1      35.669 -18.284 -21.914  0.00  0.00    +0.098 C 
ATOM     24  C   UNL     1      37.197 -18.339 -21.840  0.00  0.00    +0.026 C 
BRANCH  23  26
ATOM     25  F   UNL     1      33.280 -22.049 -18.491  0.00  0.00    -0.204 F 
ATOM     26  C   UNL     1      35.024 -19.300 -20.990  0.00  0.00    -0.004 C 
ATOM     27  C   UNL     1      35.831 -20.085 -20.187  0.00  0.00    -0.000 C 
ATOM     28  C   UNL     1      33.647 -19.415 -20.975  0.00  0.00    -0.000 C 
ATOM     29  C   UNL     1      35.238 -21.019 -19.337  0.00  0.00    +0.029 C 
ATOM     30  C   UNL     1      33.054 -20.350 -20.125  0.00  0.00    +0.029 C 
ATOM     31  C   UNL     1      33.849 -21.151 -19.307  0.00  0.00    +0.140 C 
ENDBRANCH  23  26
ENDBRANCH   2  23
TORSDOF 5
ENDMDL
MODEL 2
REMARK VINA RESULT:     -12.1      0.994      1.751
REMARK  Name = 11560787
REMARK  5 active torsions:
REMARK  status: ('A' for Active; 'I' for Inactive)
REMARK    1  A    between atoms: N_2  and  C_23
REMARK    2  A    between atoms: C_8  and  C_9
REMARK    3  A    between atoms: C_12  and  N_15
REMARK    4  A    between atoms: C_13  and  O_21
REMARK    5  A    between atoms: C_23  and  C_26
REMARK                            x       y       z     vdW  Elec       q    Type
REMARK                         _______ _______ _______ _____ _____    ______ ____
ROOT
ATOM      1  O   UNL     1      34.865 -16.646 -23.783  0.00  0.00    -0.270 OA
ATOM      2  N   UNL     1      35.220 -17.133 -21.543  0.00  0.00    -0.274 N 
ATOM      3  C   UNL     1      35.091 -16.765 -20.134  0.00  0.00    +0.094 C 
ATOM      4  C   UNL     1      35.205 -15.269 -19.912  0.00  0.00    +0.026 C 
ATOM      5  C   UNL     1      34.181 -14.562 -20.779  0.00  0.00    +0.033 C 
ATOM      6  C   UNL     1      34.369 -14.929 -22.220  0.00  0.00    +0.031 C 
ATOM      7  C   UNL     1      34.833 -16.306 -22.599  0.00  0.00    +0.245 C 
ATOM      8  C   UNL     1      34.162 -14.041 -23.205  0.00  0.00    +0.000 C 
ENDROOT
BRANCH   8   9
ATOM      9  C   UNL     1      33.709 -12.654 -23.027  0.00  0.00    +0.003 C 
ATOM     10  C   UNL     1      34.312 -11.641 -23.756  0.00  0.00    +0.038 C 
ATOM     11  C   UNL     1      32.685 -12.381 -22.132  0.00  0.00    +0.001 C 
ATOM     12  C   UNL     1      32.854 -10.037 -22.691  0.00  0.00    +0.084 C 
ATOM     13  C   UNL     1      33.882 -10.324 -23.588  0.00  0.00    +0.152 C 
ATOM     14  C   UNL     1      32.255 -11.066 -21.962  0.00  0.00    +0.018 C 
BRANCH  12  15
ATOM     15  N   UNL     1      32.415  -8.736 -22.510  0.00  0.00    -0.280 N 
ATOM     16  N   UNL     1      31.162  -6.906 -22.716  0.00  0.00    -0.255 NA
ATOM     17  C   UNL     1      33.001  -7.781 -21.721  0.00  0.00    +0.134 C 
ATOM     18  C   UNL     1      31.313  -8.159 -23.085  0.00  0.00    +0.220 C 
ATOM     19  C   UNL     1      32.211  -6.665 -21.865  0.00  0.00    +0.054 C 
ATOM     20  C   UNL     1      32.378  -5.344 -21.239  0.00  0.00    +0.049 C 
ENDBRANCH  12  15
BRANCH  13  21
ATOM     21  O   UNL     1      34.482  -9.337 -24.311  0.00  0.00    -0.470 OA
ATOM     22  C   UNL     1      35.478  -9.737 -25.249  0.00  0.00    +0.253 C 
ENDBRANCH  13  21
ENDBRANCH   8   9
BRANCH   2  23
ATOM     23  C   UNL     1      35.632 -18.506 -21.810  0.00  0.00    +0.098 C 
ATOM     24  C   UNL     1      37.154 -18.615 -21.683  0.00  0.00    +0.026 C 
BRANCH  23  26
ATOM     25  F   UNL     1      32.991 -22.145 -18.437  0.00  0.00    -0.204 F 
ATOM     26  C   UNL     1      34.919 -19.488 -20.900  0.00  0.00    -0.004 C 
ATOM     27  C   UNL     1      35.669 -20.314 -20.084  0.00  0.00    -0.000 C 
ATOM     28  C   UNL     1      33.537 -19.531 -20.908  0.00  0.00    -0.000 C 
ATOM     29  C   UNL     1      35.014 -21.218 -19.247  0.00  0.00    +0.029 C 
ATOM     30  C   UNL     1      32.882 -20.434 -20.071  0.00  0.00    +0.029 C 
ATOM     31  C   UNL     1      33.620 -21.277 -19.241  0.00  0.00    +0.140 C 
ENDBRANCH  23  26
ENDBRANCH   2  23
TORSDOF 5
ENDMDL
MODEL 3
REMARK VINA RESULT:     -11.2      1.491      2.412
REMARK  Name = 11560787
REMARK  5 active torsions:
REMARK  status: ('A' for Active; 'I' for Inactive)
REMARK    1  A    between atoms: N_2  and  C_23
REMARK    2  A    between atoms: C_8  and  C_9
REMARK    3  A    between atoms: C_12  and  N_15
REMARK    4  A    between atoms: C_13  and  O_21
REMARK    5  A    between atoms: C_23  and  C_26
REMARK                            x       y       z     vdW  Elec       q    Type
REMARK                         _______ _______ _______ _____ _____    ______ ____
ROOT
ATOM      1  O   UNL     1      35.341 -16.816 -20.138  0.00  0.00    -0.270 OA
ATOM      2  N   UNL     1      35.325 -17.636 -22.307  0.00  0.00    -0.274 N 
ATOM      3  C   UNL     1      35.143 -17.413 -23.741  0.00  0.00    +0.094 C 
ATOM      4  C   UNL     1      34.076 -16.378 -24.037  0.00  0.00    +0.026 C 
ATOM      5  C   UNL     1      34.418 -15.094 -23.303  0.00  0.00    +0.033 C 
ATOM      6  C   UNL     1      34.555 -15.350 -21.833  0.00  0.00    +0.031 C 
ATOM      7  C   UNL     1      35.110 -16.654 -21.338  0.00  0.00    +0.245 C 
ATOM      8  C   UNL     1      34.163 -14.447 -20.921  0.00  0.00    +0.000 C 
ENDROOT
BRANCH   8   9
ATOM      9  C   UNL     1      33.598 -13.122 -21.217  0.00  0.00    +0.003 C 
ATOM     10  C   UNL     1      34.069 -12.408 -22.308  0.00  0.00    +0.038 C 
ATOM     11  C   UNL     1      32.601 -12.608 -20.399  0.00  0.00    +0.001 C 
ATOM     12  C   UNL     1      32.531 -10.623 -21.775  0.00  0.00    +0.084 C 
ATOM     13  C   UNL     1      33.533 -11.151 -22.588  0.00  0.00    +0.152 C 
ATOM     14  C   UNL     1      32.065 -11.352 -20.679  0.00  0.00    +0.018 C 
BRANCH  12  15
ATOM     15  N   UNL     1      31.988  -9.377 -22.037  0.00  0.00    -0.280 N 
ATOM     16  N   UNL     1      31.093  -7.370 -21.674  0.00  0.00    -0.255 NA
ATOM     17  C   UNL     1      31.775  -8.825 -23.273  0.00  0.00    +0.134 C 
ATOM     18  C   UNL     1      31.561  -8.461 -21.111  0.00  0.00    +0.220 C 
ATOM     19  C   UNL     1      31.224  -7.590 -23.023  0.00  0.00    +0.054 C 
ATOM     20  C   UNL     1      30.798  -6.569 -23.992  0.00  0.00    +0.049 C 
ENDBRANCH  12  15
BRANCH  13  21
ATOM     21  O   UNL     1      34.004 -10.458 -23.664  0.00  0.00    -0.470 OA
ATOM     22  C   UNL     1      34.174 -11.186 -24.878  0.00  0.00    +0.253 C 
ENDBRANCH  13  21
ENDBRANCH   8   9
BRANCH   2  23
ATOM     23  C   UNL     1      35.914 -18.914 -21.929  0.00  0.00    +0.098 C 
ATOM     24  C   UNL     1      37.309 -18.680 -21.343  0.00  0.00    +0.026 C 
BRANCH  23  26
ATOM     25  F   UNL     1      32.605 -21.737 -18.368  0.00  0.00    -0.204 F 
ATOM     26  C   UNL     1      35.021 -19.676 -20.968  0.00  0.00    -0.004 C 
ATOM     27  C   UNL     1      35.602 -20.462 -19.990  0.00  0.00    -0.000 C 
ATOM     28  C   UNL     1      33.649 -19.565 -21.094  0.00  0.00    -0.000 C 
ATOM     29  C   UNL     1      34.780 -21.163 -19.106  0.00  0.00    +0.029 C 
ATOM     30  C   UNL     1      32.827 -20.265 -20.210  0.00  0.00    +0.029 C 
ATOM     31  C   UNL     1      33.393 -21.064 -19.217  0.00  0.00    +0.140 C 
ENDBRANCH  23  26
ENDBRANCH   2  23
TORSDOF 5
ENDMDL
MODEL 4
REMARK VINA RESULT:     -11.1      5.566     12.216
REMARK  Name = 11560787
REMARK  5 active torsions:
REMARK  status: ('A' for Active; 'I' for Inactive)
REMARK    1  A    between atoms: N_2  and  C_23
REMARK    2  A    between atoms: C_8  and  C_9
REMARK    3  A    between atoms: C_12  and  N_15
REMARK    4  A    between atoms: C_13  and  O_21
REMARK    5  A    between atoms: C_23  and  C_26
REMARK                            x       y       z     vdW  Elec       q    Type
REMARK                         _______ _______ _______ _____ _____    ______ ____
ROOT
ATOM      1  O   UNL     1      37.373 -19.424 -20.532  0.00  0.00    -0.270 OA
ATOM      2  N   UNL     1      35.158 -19.489 -21.216  0.00  0.00    -0.274 N 
ATOM      3  C   UNL     1      33.760 -19.815 -20.941  0.00  0.00    +0.094 C 
ATOM      4  C   UNL     1      33.611 -21.045 -20.068  0.00  0.00    +0.026 C 
ATOM      5  C   UNL     1      34.407 -20.843 -18.792  0.00  0.00    +0.033 C 
ATOM      6  C   UNL     1      35.843 -20.553 -19.109  0.00  0.00    +0.031 C 
ATOM      7  C   UNL     1      36.207 -19.771 -20.339  0.00  0.00    +0.245 C 
ATOM      8  C   UNL     1      36.841 -21.003 -18.333  0.00  0.00    +0.000 C 
ENDROOT
BRANCH   8   9
ATOM      9  C   UNL     1      36.679 -21.782 -17.096  0.00  0.00    +0.003 C 
ATOM     10  C   UNL     1      35.470 -22.411 -16.840  0.00  0.00    +0.038 C 
ATOM     11  C   UNL     1      37.739 -21.876 -16.206  0.00  0.00    +0.001 C 
ATOM     12  C   UNL     1      36.374 -23.253 -14.764  0.00  0.00    +0.084 C 
ATOM     13  C   UNL     1      35.316 -23.151 -15.667  0.00  0.00    +0.152 C 
ATOM     14  C   UNL     1      37.586 -22.615 -15.034  0.00  0.00    +0.018 C 
BRANCH  12  15
ATOM     15  N   UNL     1      36.239 -23.981 -13.595  0.00  0.00    -0.280 N 
ATOM     16  N   UNL     1      36.294 -25.712 -12.194  0.00  0.00    -0.255 NA
ATOM     17  C   UNL     1      35.789 -23.511 -12.389  0.00  0.00    +0.134 C 
ATOM     18  C   UNL     1      36.529 -25.310 -13.423  0.00  0.00    +0.220 C 
ATOM     19  C   UNL     1      35.833 -24.596 -11.544  0.00  0.00    +0.054 C 
ATOM     20  C   UNL     1      35.458 -24.658 -10.123  0.00  0.00    +0.049 C 
ENDBRANCH  12  15
BRANCH  13  21
ATOM     21  O   UNL     1      34.123 -23.765 -15.426  0.00  0.00    -0.470 OA
ATOM     22  C   UNL     1      32.981 -23.244 -16.101  0.00  0.00    +0.253 C 
ENDBRANCH  13  21
ENDBRANCH   8   9
BRANCH   2  23
ATOM     23  C   UNL     1      35.405 -18.687 -22.408  0.00  0.00    +0.098 C 
ATOM     24  C   UNL     1      34.577 -19.237 -23.573  0.00  0.00    +0.026 C 
BRANCH  23  26
ATOM     25  F   UNL     1      34.352 -13.243 -21.487  0.00  0.00    -0.204 F 
ATOM     26  C   UNL     1      35.121 -17.218 -22.160  0.00  0.00    -0.004 C 
ATOM     27  C   UNL     1      35.164 -16.735 -20.865  0.00  0.00    -0.000 C 
ATOM     28  C   UNL     1      34.826 -16.399 -23.234  0.00  0.00    -0.000 C 
ATOM     29  C   UNL     1      34.903 -15.383 -20.636  0.00  0.00    +0.029 C 
ATOM     30  C   UNL     1      34.565 -15.048 -23.005  0.00  0.00    +0.029 C 
ATOM     31  C   UNL     1      34.603 -14.541 -21.707  0.00  0.00    +0.140 C 
ENDBRANCH  23  26
ENDBRANCH   2  23
TORSDOF 5
ENDMDL
MODEL 5
REMARK VINA RESULT:     -11.1      5.129     11.747
REMARK  Name = 11560787
REMARK  5 active torsions:
REMARK  status: ('A' for Active; 'I' for Inactive)
REMARK    1  A    between atoms: N_2  and  C_23
REMARK    2  A    between atoms: C_8  and  C_9
REMARK    3  A    between atoms: C_12  and  N_15
REMARK    4  A    between atoms: C_13  and  O_21
REMARK    5  A    between atoms: C_23  and  C_26
REMARK                            x       y       z     vdW  Elec       q    Type
REMARK                         _______ _______ _______ _____ _____    ______ ____
ROOT
ATOM      1  O   UNL     1      33.456 -19.589 -21.829  0.00  0.00    -0.270 OA
ATOM      2  N   UNL     1      35.560 -18.662 -22.135  0.00  0.00    -0.274 N 
ATOM      3  C   UNL     1      36.977 -18.597 -21.777  0.00  0.00    +0.094 C 
ATOM      4  C   UNL     1      37.216 -18.859 -20.303  0.00  0.00    +0.026 C 
ATOM      5  C   UNL     1      36.598 -20.194 -19.932  0.00  0.00    +0.033 C 
ATOM      6  C   UNL     1      35.139 -20.211 -20.273  0.00  0.00    +0.031 C 
ATOM      7  C   UNL     1      34.631 -19.471 -21.478  0.00  0.00    +0.245 C 
ATOM      8  C   UNL     1      34.244 -20.853 -19.507  0.00  0.00    +0.000 C 
ENDROOT
BRANCH   8   9
ATOM      9  C   UNL     1      34.553 -21.626 -18.294  0.00  0.00    +0.003 C 
ATOM     10  C   UNL     1      33.553 -22.371 -17.688  0.00  0.00    +0.038 C 
ATOM     11  C   UNL     1      35.841 -21.598 -17.778  0.00  0.00    +0.001 C 
ATOM     12  C   UNL     1      35.137 -23.085 -16.009  0.00  0.00    +0.084 C 
ATOM     13  C   UNL     1      33.847 -23.105 -16.538  0.00  0.00    +0.152 C 
ATOM     14  C   UNL     1      36.134 -22.331 -16.629  0.00  0.00    +0.018 C 
BRANCH  12  15
ATOM     15  N   UNL     1      35.446 -23.806 -14.869  0.00  0.00    -0.280 N 
ATOM     16  N   UNL     1      36.159 -25.482 -13.586  0.00  0.00    -0.255 NA
ATOM     17  C   UNL     1      35.273 -23.396 -13.573  0.00  0.00    +0.134 C 
ATOM     18  C   UNL     1      35.982 -25.068 -14.821  0.00  0.00    +0.220 C 
ATOM     19  C   UNL     1      35.720 -24.444 -12.803  0.00  0.00    +0.054 C 
ATOM     20  C   UNL     1      35.764 -24.542 -11.336  0.00  0.00    +0.049 C 
ENDBRANCH  12  15
BRANCH  13  21
ATOM     21  O   UNL     1      32.856 -23.834 -15.951  0.00  0.00    -0.470 OA
ATOM     22  C   UNL     1      31.612 -23.175 -15.731  0.00  0.00    +0.253 C 
ENDBRANCH  13  21
ENDBRANCH   8   9
BRANCH   2  23
ATOM     23  C   UNL     1      35.174 -17.950 -23.347  0.00  0.00    +0.098 C 
ATOM     24  C   UNL     1      34.033 -18.701 -24.038  0.00  0.00    +0.026 C 
BRANCH  23  26
ATOM     25  F   UNL     1      33.794 -12.612 -22.251  0.00  0.00    -0.204 F 
ATOM     26  C   UNL     1      34.802 -16.510 -23.051  0.00  0.00    -0.004 C 
ATOM     27  C   UNL     1      34.232 -15.744 -24.051  0.00  0.00    -0.000 C 
ATOM     28  C   UNL     1      35.042 -15.999 -21.789  0.00  0.00    -0.000 C 
ATOM     29  C   UNL     1      33.889 -14.419 -23.779  0.00  0.00    +0.029 C 
ATOM     30  C   UNL     1      34.699 -14.674 -21.517  0.00  0.00    +0.029 C 
ATOM     31  C   UNL     1      34.123 -13.885 -22.512  0.00  0.00    +0.140 C 
ENDBRANCH  23  26
ENDBRANCH   2  23
TORSDOF 5
ENDMDL
MODEL 6
REMARK VINA RESULT:     -10.1      3.394      5.548
REMARK  Name = 11560787
REMARK  5 active torsions:
REMARK  status: ('A' for Active; 'I' for Inactive)
REMARK    1  A    between atoms: N_2  and  C_23
REMARK    2  A    between atoms: C_8  and  C_9
REMARK    3  A    between atoms: C_12  and  N_15
REMARK    4  A    between atoms: C_13  and  O_21
REMARK    5  A    between atoms: C_23  and  C_26
REMARK                            x       y       z     vdW  Elec       q    Type
REMARK                         _______ _______ _______ _____ _____    ______ ____
ROOT
ATOM      1  O   UNL     1      36.821 -20.162 -19.097  0.00  0.00    -0.270 OA
ATOM      2  N   UNL     1      34.797 -21.292 -19.017  0.00  0.00    -0.274 N 
ATOM      3  C   UNL     1      33.424 -21.459 -19.491  0.00  0.00    +0.094 C 
ATOM      4  C   UNL     1      32.768 -20.139 -19.847  0.00  0.00    +0.026 C 
ATOM      5  C   UNL     1      33.633 -19.415 -20.861  0.00  0.00    +0.033 C 
ATOM      6  C   UNL     1      35.020 -19.223 -20.327  0.00  0.00    +0.031 C 
ATOM      7  C   UNL     1      35.639 -20.258 -19.432  0.00  0.00    +0.245 C 
ATOM      8  C   UNL     1      35.734 -18.120 -20.601  0.00  0.00    +0.000 C 
ENDROOT
BRANCH   8   9
ATOM      9  C   UNL     1      35.294 -17.005 -21.453  0.00  0.00    +0.003 C 
ATOM     10  C   UNL     1      34.865 -15.826 -20.864  0.00  0.00    +0.038 C 
ATOM     11  C   UNL     1      35.317 -17.152 -22.832  0.00  0.00    +0.001 C 
ATOM     12  C   UNL     1      34.467 -14.902 -23.061  0.00  0.00    +0.084 C 
ATOM     13  C   UNL     1      34.449 -14.768 -21.673  0.00  0.00    +0.152 C 
ATOM     14  C   UNL     1      34.901 -16.095 -23.641  0.00  0.00    +0.018 C 
BRANCH  12  15
ATOM     15  N   UNL     1      34.056 -13.864 -23.878  0.00  0.00    -0.280 N 
ATOM     16  N   UNL     1      33.780 -11.789 -24.640  0.00  0.00    -0.255 NA
ATOM     17  C   UNL     1      33.321 -13.974 -25.029  0.00  0.00    +0.134 C 
ATOM     18  C   UNL     1      34.306 -12.529 -23.689  0.00  0.00    +0.220 C 
ATOM     19  C   UNL     1      33.165 -12.683 -25.479  0.00  0.00    +0.054 C 
ATOM     20  C   UNL     1      32.456 -12.217 -26.680  0.00  0.00    +0.049 C 
ENDBRANCH  12  15
BRANCH  13  21
ATOM     21  O   UNL     1      34.029 -13.613 -21.083  0.00  0.00    -0.470 OA
ATOM     22  C   UNL     1      32.729 -13.620 -20.498  0.00  0.00    +0.253 C 
ENDBRANCH  13  21
ENDBRANCH   8   9
BRANCH   2  23
ATOM     23  C   UNL     1      35.324 -22.372 -18.193  0.00  0.00    +0.098 C 
ATOM     24  C   UNL     1      36.715 -21.988 -17.678  0.00  0.00    +0.026 C 
BRANCH  23  26
ATOM     25  F   UNL     1      31.824 -23.655 -13.987  0.00  0.00    -0.204 F 
ATOM     26  C   UNL     1      34.380 -22.718 -17.058  0.00  0.00    -0.004 C 
ATOM     27  C   UNL     1      34.887 -22.854 -15.779  0.00  0.00    -0.000 C 
ATOM     28  C   UNL     1      33.036 -22.889 -17.331  0.00  0.00    -0.000 C 
ATOM     29  C   UNL     1      34.018 -23.172 -14.735  0.00  0.00    +0.029 C 
ATOM     30  C   UNL     1      32.167 -23.208 -16.287  0.00  0.00    +0.029 C 
ATOM     31  C   UNL     1      32.658 -23.349 -14.990  0.00  0.00    +0.140 C 
ENDBRANCH  23  26
ENDBRANCH   2  23
TORSDOF 5
ENDMDL
MODEL 7
REMARK VINA RESULT:     -10.1      4.104      6.536
REMARK  Name = 11560787
REMARK  5 active torsions:
REMARK  status: ('A' for Active; 'I' for Inactive)
REMARK    1  A    between atoms: N_2  and  C_23
REMARK    2  A    between atoms: C_8  and  C_9
REMARK    3  A    between atoms: C_12  and  N_15
REMARK    4  A    between atoms: C_13  and  O_21
REMARK    5  A    between atoms: C_23  and  C_26
REMARK                            x       y       z     vdW  Elec       q    Type
REMARK                         _______ _______ _______ _____ _____    ______ ____
ROOT
ATOM      1  O   UNL     1      36.698 -20.982 -18.842  0.00  0.00    -0.270 OA
ATOM      2  N   UNL     1      34.573 -21.787 -18.376  0.00  0.00    -0.274 N 
ATOM      3  C   UNL     1      33.147 -21.844 -18.691  0.00  0.00    +0.094 C 
ATOM      4  C   UNL     1      32.619 -20.532 -19.237  0.00  0.00    +0.026 C 
ATOM      5  C   UNL     1      33.450 -20.129 -20.442  0.00  0.00    +0.033 C 
ATOM      6  C   UNL     1      34.900 -20.039 -20.073  0.00  0.00    +0.031 C 
ATOM      7  C   UNL     1      35.484 -20.972 -19.052  0.00  0.00    +0.245 C 
ATOM      8  C   UNL     1      35.707 -19.113 -20.614  0.00  0.00    +0.000 C 
ENDROOT
BRANCH   8   9
ATOM      9  C   UNL     1      35.315 -18.119 -21.625  0.00  0.00    +0.003 C 
ATOM     10  C   UNL     1      35.367 -16.770 -21.310  0.00  0.00    +0.038 C 
ATOM     11  C   UNL     1      34.900 -18.549 -22.877  0.00  0.00    +0.001 C 
ATOM     12  C   UNL     1      34.576 -16.246 -23.532  0.00  0.00    +0.084 C 
ATOM     13  C   UNL     1      34.995 -15.828 -22.269  0.00  0.00    +0.152 C 
ATOM     14  C   UNL     1      34.529 -17.607 -23.836  0.00  0.00    +0.018 C 
BRANCH  12  15
ATOM     15  N   UNL     1      34.203 -15.325 -24.495  0.00  0.00    -0.280 N 
ATOM     16  N   UNL     1      34.028 -14.335 -26.483  0.00  0.00    -0.255 NA
ATOM     17  C   UNL     1      33.430 -14.210 -24.300  0.00  0.00    +0.134 C 
ATOM     18  C   UNL     1      34.536 -15.353 -25.824  0.00  0.00    +0.220 C 
ATOM     19  C   UNL     1      33.337 -13.619 -25.538  0.00  0.00    +0.054 C 
ATOM     20  C   UNL     1      32.621 -12.388 -25.908  0.00  0.00    +0.049 C 
ENDBRANCH  12  15
BRANCH  13  21
ATOM     21  O   UNL     1      35.051 -14.504 -21.948  0.00  0.00    -0.470 OA
ATOM     22  C   UNL     1      34.550 -14.128 -20.668  0.00  0.00    +0.253 C 
ENDBRANCH  13  21
ENDBRANCH   8   9
BRANCH   2  23
ATOM     23  C   UNL     1      35.053 -22.763 -17.407  0.00  0.00    +0.098 C 
ATOM     24  C   UNL     1      36.381 -22.283 -16.815  0.00  0.00    +0.026 C 
BRANCH  23  26
ATOM     25  F   UNL     1      31.227 -23.760 -13.412  0.00  0.00    -0.204 F 
ATOM     26  C   UNL     1      34.021 -23.032 -16.329  0.00  0.00    -0.004 C 
ATOM     27  C   UNL     1      34.423 -23.066 -15.007  0.00  0.00    -0.000 C 
ATOM     28  C   UNL     1      32.704 -23.236 -16.696  0.00  0.00    -0.000 C 
ATOM     29  C   UNL     1      33.473 -23.313 -14.015  0.00  0.00    +0.029 C 
ATOM     30  C   UNL     1      31.754 -23.483 -15.704  0.00  0.00    +0.029 C 
ATOM     31  C   UNL     1      32.139 -23.522 -14.365  0.00  0.00    +0.140 C 
ENDBRANCH  23  26
ENDBRANCH   2  23
TORSDOF 5
ENDMDL
MODEL 8
REMARK VINA RESULT:      -9.8      3.478     10.429
REMARK  Name = 11560787
REMARK  5 active torsions:
REMARK  status: ('A' for Active; 'I' for Inactive)
REMARK    1  A    between atoms: N_2  and  C_23
REMARK    2  A    between atoms: C_8  and  C_9
REMARK    3  A    between atoms: C_12  and  N_15
REMARK    4  A    between atoms: C_13  and  O_21
REMARK    5  A    between atoms: C_23  and  C_26
REMARK                            x       y       z     vdW  Elec       q    Type
REMARK                         _______ _______ _______ _____ _____    ______ ____
ROOT
ATOM      1  O   UNL     1      33.801 -10.094 -23.933  0.00  0.00    -0.270 OA
ATOM      2  N   UNL     1      32.090  -9.621 -22.440  0.00  0.00    -0.274 N 
ATOM      3  C   UNL     1      31.328  -9.968 -21.241  0.00  0.00    +0.094 C 
ATOM      4  C   UNL     1      31.189 -11.466 -21.054  0.00  0.00    +0.026 C 
ATOM      5  C   UNL     1      32.571 -12.093 -21.047  0.00  0.00    +0.033 C 
ATOM      6  C   UNL     1      33.307 -11.753 -22.307  0.00  0.00    +0.031 C 
ATOM      7  C   UNL     1      33.103 -10.422 -22.972  0.00  0.00    +0.245 C 
ATOM      8  C   UNL     1      34.140 -12.627 -22.894  0.00  0.00    +0.000 C 
ENDROOT
BRANCH   8   9
ATOM      9  C   UNL     1      34.462 -13.972 -22.392  0.00  0.00    +0.003 C 
ATOM     10  C   UNL     1      34.661 -15.006 -23.294  0.00  0.00    +0.038 C 
ATOM     11  C   UNL     1      34.563 -14.182 -21.024  0.00  0.00    +0.001 C 
ATOM     12  C   UNL     1      35.071 -16.506 -21.445  0.00  0.00    +0.084 C 
ATOM     13  C   UNL     1      34.967 -16.281 -22.818  0.00  0.00    +0.152 C 
ATOM     14  C   UNL     1      34.869 -15.456 -20.548  0.00  0.00    +0.018 C 
BRANCH  12  15
ATOM     15  N   UNL     1      35.373 -17.765 -20.956  0.00  0.00    -0.280 N 
ATOM     16  N   UNL     1      36.583 -19.498 -20.251  0.00  0.00    -0.255 NA
ATOM     17  C   UNL     1      34.477 -18.746 -20.619  0.00  0.00    +0.134 C 
ATOM     18  C   UNL     1      36.625 -18.269 -20.715  0.00  0.00    +0.220 C 
ATOM     19  C   UNL     1      35.246 -19.801 -20.188  0.00  0.00    +0.054 C 
ATOM     20  C   UNL     1      34.799 -21.117 -19.707  0.00  0.00    +0.049 C 
ENDBRANCH  12  15
BRANCH  13  21
ATOM     21  O   UNL     1      35.161 -17.290 -23.713  0.00  0.00    -0.470 OA
ATOM     22  C   UNL     1      34.007 -17.787 -24.387  0.00  0.00    +0.253 C 
ENDBRANCH  13  21
ENDBRANCH   8   9
BRANCH   2  23
ATOM     23  C   UNL     1      31.856  -8.290 -22.983  0.00  0.00    +0.098 C 
ATOM     24  C   UNL     1      30.389  -8.161 -23.403  0.00  0.00    +0.026 C 
BRANCH  23  26
ATOM     25  F   UNL     1      33.341  -4.280 -19.335  0.00  0.00    -0.204 F 
ATOM     26  C   UNL     1      32.257  -7.208 -21.999  0.00  0.00    -0.004 C 
ATOM     27  C   UNL     1      33.070  -7.539 -20.931  0.00  0.00    -0.000 C 
ATOM     28  C   UNL     1      31.799  -5.918 -22.194  0.00  0.00    -0.000 C 
ATOM     29  C   UNL     1      33.439  -6.543 -20.025  0.00  0.00    +0.029 C 
ATOM     30  C   UNL     1      32.168  -4.923 -21.289  0.00  0.00    +0.029 C 
ATOM     31  C   UNL     1      32.987  -5.236 -20.205  0.00  0.00    +0.140 C 
ENDBRANCH  23  26
ENDBRANCH   2  23
TORSDOF 5
ENDMDL
MODEL 9
REMARK VINA RESULT:      -9.8      5.871      9.768
REMARK  Name = 11560787
REMARK  5 active torsions:
REMARK  status: ('A' for Active; 'I' for Inactive)
REMARK    1  A    between atoms: N_2  and  C_23
REMARK    2  A    between atoms: C_8  and  C_9
REMARK    3  A    between atoms: C_12  and  N_15
REMARK    4  A    between atoms: C_13  and  O_21
REMARK    5  A    between atoms: C_23  and  C_26
REMARK                            x       y       z     vdW  Elec       q    Type
REMARK                         _______ _______ _______ _____ _____    ______ ____
ROOT
ATOM      1  O   UNL     1      34.038 -24.303 -16.617  0.00  0.00    -0.270 OA
ATOM      2  N   UNL     1      35.954 -23.895 -15.375  0.00  0.00    -0.274 N 
ATOM      3  C   UNL     1      37.073 -23.021 -15.029  0.00  0.00    +0.094 C 
ATOM      4  C   UNL     1      37.573 -22.220 -16.215  0.00  0.00    +0.026 C 
ATOM      5  C   UNL     1      36.413 -21.446 -16.813  0.00  0.00    +0.033 C 
ATOM      6  C   UNL     1      35.302 -22.377 -17.195  0.00  0.00    +0.031 C 
ATOM      7  C   UNL     1      35.027 -23.608 -16.379  0.00  0.00    +0.245 C 
ATOM      8  C   UNL     1      34.546 -22.162 -18.282  0.00  0.00    +0.000 C 
ENDROOT
BRANCH   8   9
ATOM      9  C   UNL     1      34.668 -21.017 -19.197  0.00  0.00    +0.003 C 
ATOM     10  C   UNL     1      35.903 -20.412 -19.370  0.00  0.00    +0.038 C 
ATOM     11  C   UNL     1      33.545 -20.563 -19.873  0.00  0.00    +0.001 C 
ATOM     12  C   UNL     1      34.898 -18.859 -20.925  0.00  0.00    +0.084 C 
ATOM     13  C   UNL     1      36.019 -19.326 -20.239  0.00  0.00    +0.152 C 
ATOM     14  C   UNL     1      33.660 -19.478 -20.741  0.00  0.00    +0.018 C 
BRANCH  12  15
ATOM     15  N   UNL     1      34.994 -17.783 -21.789  0.00  0.00    -0.280 N 
ATOM     16  N   UNL     1      35.343 -15.701 -22.503  0.00  0.00    -0.255 NA
ATOM     17  C   UNL     1      34.760 -17.797 -23.139  0.00  0.00    +0.134 C 
ATOM     18  C   UNL     1      35.342 -16.498 -21.458  0.00  0.00    +0.220 C 
ATOM     19  C   UNL     1      34.982 -16.505 -23.555  0.00  0.00    +0.054 C 
ATOM     20  C   UNL     1      34.874 -15.955 -24.915  0.00  0.00    +0.049 C 
ENDBRANCH  12  15
BRANCH  13  21
ATOM     21  O   UNL     1      37.238 -18.739 -20.402  0.00  0.00    -0.470 OA
ATOM     22  C   UNL     1      37.778 -18.724 -21.721  0.00  0.00    +0.253 C 
ENDBRANCH  13  21
ENDBRANCH   8   9
BRANCH   2  23
ATOM     23  C   UNL     1      35.740 -25.038 -14.496  0.00  0.00    +0.098 C 
ATOM     24  C   UNL     1      36.692 -26.170 -14.892  0.00  0.00    +0.026 C 
BRANCH  23  26
ATOM     25  F   UNL     1      36.319 -23.620  -9.088  0.00  0.00    -0.204 F 
ATOM     26  C   UNL     1      35.896 -24.656 -13.037  0.00  0.00    -0.004 C 
ATOM     27  C   UNL     1      37.060 -24.998 -12.373  0.00  0.00    -0.000 C 
ATOM     28  C   UNL     1      34.871 -23.974 -12.407  0.00  0.00    -0.000 C 
ATOM     29  C   UNL     1      37.204 -24.645 -11.031  0.00  0.00    +0.029 C 
ATOM     30  C   UNL     1      35.015 -23.622 -11.065  0.00  0.00    +0.029 C 
ATOM     31  C   UNL     1      36.181 -23.958 -10.377  0.00  0.00    +0.140 C 
ENDBRANCH  23  26
ENDBRANCH   2  23
TORSDOF 5
ENDMDL
