MODEL 1
REMARK VINA RESULT:     -11.5      0.000      0.000
REMARK  Name = 4470566
REMARK  6 active torsions:
REMARK  status: ('A' for Active; 'I' for Inactive)
REMARK    1  A    between atoms: N_4  and  C_23
REMARK    2  A    between atoms: C_13  and  C_14
REMARK    3  A    between atoms: C_17  and  N_22
REMARK    4  A    between atoms: C_23  and  C_24
REMARK    5  A    between atoms: C_24  and  C_25
REMARK    6  A    between atoms: C_25  and  N_27
REMARK                            x       y       z     vdW  Elec       q    Type
REMARK                         _______ _______ _______ _____ _____    ______ ____
ROOT
ATOM      1  S   UNL     1      34.700 -19.112 -23.043  0.00  0.00    -0.086 S 
ATOM      2  S   UNL     1      34.855 -13.526 -20.824  0.00  0.00    -0.017 S 
ATOM      3  O   UNL     1      33.735 -13.695 -25.804  0.00  0.00    -0.268 OA
ATOM      4  N   UNL     1      34.227 -13.282 -23.521  0.00  0.00    -0.237 N 
ATOM      5  N   UNL     1      34.501 -15.323 -22.878  0.00  0.00    -0.244 N 
ATOM      6  C   UNL     1      34.205 -15.382 -24.201  0.00  0.00    +0.112 C 
ATOM      7  C   UNL     1      34.685 -16.600 -22.421  0.00  0.00    +0.064 C 
ATOM      8  C   UNL     1      34.535 -14.033 -22.371  0.00  0.00    +0.152 C 
ATOM      9  C   UNL     1      34.015 -14.053 -24.671  0.00  0.00    +0.268 C 
ATOM     10  C   UNL     1      34.495 -17.448 -23.487  0.00  0.00    +0.045 C 
ATOM     11  C   UNL     1      34.183 -16.671 -24.651  0.00  0.00    +0.028 C 
ATOM     12  C   UNL     1      35.000 -17.274 -21.210  0.00  0.00    +0.022 C 
ATOM     13  C   UNL     1      35.036 -18.636 -21.425  0.00  0.00    +0.031 C 
ENDROOT
BRANCH  13  14
ATOM     14  C   UNL     1      35.319 -19.678 -20.463  0.00  0.00    +0.008 C 
ATOM     15  C   UNL     1      34.292 -20.504 -20.012  0.00  0.00    +0.025 C 
ATOM     16  C   UNL     1      36.618 -19.851 -19.991  0.00  0.00    +0.001 C 
ATOM     17  C   UNL     1      34.566 -21.510 -19.085  0.00  0.00    +0.143 C 
ATOM     18  C   UNL     1      36.892 -20.856 -19.064  0.00  0.00    +0.002 C 
ATOM     19  C   UNL     1      35.866 -21.685 -18.612  0.00  0.00    +0.024 C 
BRANCH  17  22
ATOM     20  O   UNL     1      32.397 -21.850 -18.382  0.00  0.00    -0.126 OA
ATOM     21  O   UNL     1      33.751 -23.576 -18.467  0.00  0.00    -0.126 OA
ATOM     22  N   UNL     1      33.521 -22.353 -18.623  0.00  0.00    +0.058 N 
ENDBRANCH  17  22
ENDBRANCH  13  14
BRANCH   4  23
ATOM     23  C   UNL     1      34.131 -11.829 -23.550  0.00  0.00    +0.098 C 
BRANCH  23  24
ATOM     24  C   UNL     1      32.896 -11.310 -22.816  0.00  0.00    -0.001 C 
BRANCH  24  25
ATOM     25  C   UNL     1      32.647  -9.808 -22.982  0.00  0.00    -0.075 C 
BRANCH  25  27
ATOM     26  O   UNL     1      32.379  -8.511 -19.000  0.00  0.00    -0.358 OA
ATOM     27  N   UNL     1      32.146  -9.199 -21.752  0.00  0.00    +0.390 N 
ATOM     28  C   UNL     1      33.037  -8.120 -21.302  0.00  0.00    -0.045 C 
ATOM     29  C   UNL     1      32.001 -10.207 -20.692  0.00  0.00    -0.045 C 
ATOM     30  C   UNL     1      32.500  -7.510 -20.010  0.00  0.00    +0.119 C 
ATOM     31  C   UNL     1      31.488  -9.547 -19.416  0.00  0.00    +0.119 C 
ATOM     32  H   UNL     1      31.228  -8.802 -21.951  0.00  0.00    -0.079 HD
ENDBRANCH  25  27
ENDBRANCH  24  25
ENDBRANCH  23  24
ENDBRANCH   4  23
TORSDOF 6
ENDMDL
MODEL 2
REMARK VINA RESULT:     -11.3      4.719      8.317
REMARK  Name = 4470566
REMARK  6 active torsions:
REMARK  status: ('A' for Active; 'I' for Inactive)
REMARK    1  A    between atoms: N_4  and  C_23
REMARK    2  A    between atoms: C_13  and  C_14
REMARK    3  A    between atoms: C_17  and  N_22
REMARK    4  A    between atoms: C_23  and  C_24
REMARK    5  A    between atoms: C_24  and  C_25
REMARK    6  A    between atoms: C_25  and  N_27
REMARK                            x       y       z     vdW  Elec       q    Type
REMARK                         _______ _______ _______ _____ _____    ______ ____
ROOT
ATOM      1  S   UNL     1      33.785 -23.806 -15.137  0.00  0.00    -0.086 S 
ATOM      2  S   UNL     1      37.101 -20.812 -19.161  0.00  0.00    -0.017 S 
ATOM      3  O   UNL     1      32.106 -20.776 -20.226  0.00  0.00    -0.268 OA
ATOM      4  N   UNL     1      34.462 -20.609 -20.011  0.00  0.00    -0.237 N 
ATOM      5  N   UNL     1      34.699 -21.741 -18.191  0.00  0.00    -0.244 N 
ATOM      6  C   UNL     1      33.370 -21.740 -18.462  0.00  0.00    +0.112 C 
ATOM      7  C   UNL     1      34.903 -22.451 -17.038  0.00  0.00    +0.064 C 
ATOM      8  C   UNL     1      35.459 -21.049 -19.121  0.00  0.00    +0.152 C 
ATOM      9  C   UNL     1      33.164 -21.001 -19.661  0.00  0.00    +0.268 C 
ATOM     10  C   UNL     1      33.672 -22.886 -16.603  0.00  0.00    +0.045 C 
ATOM     11  C   UNL     1      32.666 -22.432 -17.518  0.00  0.00    +0.028 C 
ATOM     12  C   UNL     1      35.974 -22.849 -16.195  0.00  0.00    +0.022 C 
ATOM     13  C   UNL     1      35.491 -23.587 -15.135  0.00  0.00    +0.031 C 
ENDROOT
BRANCH  13  14
ATOM     14  C   UNL     1      36.243 -24.180 -14.052  0.00  0.00    +0.008 C 
ATOM     15  C   UNL     1      35.798 -24.043 -12.739  0.00  0.00    +0.025 C 
ATOM     16  C   UNL     1      37.411 -24.888 -14.326  0.00  0.00    +0.001 C 
ATOM     17  C   UNL     1      36.523 -24.617 -11.695  0.00  0.00    +0.143 C 
ATOM     18  C   UNL     1      38.137 -25.462 -13.282  0.00  0.00    +0.002 C 
ATOM     19  C   UNL     1      37.693 -25.326 -11.967  0.00  0.00    +0.024 C 
BRANCH  17  22
ATOM     20  O   UNL     1      36.555 -23.564  -9.644  0.00  0.00    -0.126 OA
ATOM     21  O   UNL     1      35.203 -25.272  -9.922  0.00  0.00    -0.126 OA
ATOM     22  N   UNL     1      36.072 -24.477 -10.357  0.00  0.00    +0.058 N 
ENDBRANCH  17  22
ENDBRANCH  13  14
BRANCH   4  23
ATOM     23  C   UNL     1      34.721 -19.815 -21.205  0.00  0.00    +0.098 C 
BRANCH  23  24
ATOM     24  C   UNL     1      34.968 -18.342 -20.886  0.00  0.00    -0.001 C 
BRANCH  24  25
ATOM     25  C   UNL     1      36.159 -17.726 -21.626  0.00  0.00    -0.075 C 
BRANCH  25  27
ATOM     26  O   UNL     1      33.781 -14.990 -23.740  0.00  0.00    -0.358 OA
ATOM     27  N   UNL     1      35.750 -16.625 -22.496  0.00  0.00    +0.390 N 
ATOM     28  C   UNL     1      35.004 -15.610 -21.739  0.00  0.00    -0.045 C 
ATOM     29  C   UNL     1      34.935 -17.119 -23.614  0.00  0.00    -0.045 C 
ATOM     30  C   UNL     1      34.577 -14.479 -22.670  0.00  0.00    +0.119 C 
ATOM     31  C   UNL     1      34.511 -15.952 -24.501  0.00  0.00    +0.119 C 
ATOM     32  H   UNL     1      36.594 -16.195 -22.873  0.00  0.00    -0.079 HD
ENDBRANCH  25  27
ENDBRANCH  24  25
ENDBRANCH  23  24
ENDBRANCH   4  23
TORSDOF 6
ENDMDL
MODEL 3
REMARK VINA RESULT:     -11.3      4.507      8.157
REMARK  Name = 4470566
REMARK  6 active torsions:
REMARK  status: ('A' for Active; 'I' for Inactive)
REMARK    1  A    between atoms: N_4  and  C_23
REMARK    2  A    between atoms: C_13  and  C_14
REMARK    3  A    between atoms: C_17  and  N_22
REMARK    4  A    between atoms: C_23  and  C_24
REMARK    5  A    between atoms: C_24  and  C_25
REMARK    6  A    between atoms: C_25  and  N_27
REMARK                            x       y       z     vdW  Elec       q    Type
REMARK                         _______ _______ _______ _____ _____    ______ ____
ROOT
ATOM      1  S   UNL     1      34.147 -23.661 -15.275  0.00  0.00    -0.086 S 
ATOM      2  S   UNL     1      37.097 -20.450 -19.415  0.00  0.00    -0.017 S 
ATOM      3  O   UNL     1      32.090 -20.842 -20.346  0.00  0.00    -0.268 OA
ATOM      4  N   UNL     1      34.429 -20.477 -20.196  0.00  0.00    -0.237 N 
ATOM      5  N   UNL     1      34.806 -21.563 -18.371  0.00  0.00    -0.244 N 
ATOM      6  C   UNL     1      33.475 -21.676 -18.607  0.00  0.00    +0.112 C 
ATOM      7  C   UNL     1      35.098 -22.240 -17.218  0.00  0.00    +0.064 C 
ATOM      8  C   UNL     1      35.482 -20.822 -19.329  0.00  0.00    +0.152 C 
ATOM      9  C   UNL     1      33.177 -20.971 -19.807  0.00  0.00    +0.268 C 
ATOM     10  C   UNL     1      33.919 -22.771 -16.746  0.00  0.00    +0.045 C 
ATOM     11  C   UNL     1      32.856 -22.413 -17.638  0.00  0.00    +0.028 C 
ATOM     12  C   UNL     1      36.221 -22.538 -16.400  0.00  0.00    +0.022 C 
ATOM     13  C   UNL     1      35.828 -23.300 -15.320  0.00  0.00    +0.031 C 
ENDROOT
BRANCH  13  14
ATOM     14  C   UNL     1      36.655 -23.816 -14.252  0.00  0.00    +0.008 C 
ATOM     15  C   UNL     1      37.880 -24.411 -14.546  0.00  0.00    +0.025 C 
ATOM     16  C   UNL     1      36.224 -23.714 -12.931  0.00  0.00    +0.001 C 
ATOM     17  C   UNL     1      38.677 -24.906 -13.515  0.00  0.00    +0.143 C 
ATOM     18  C   UNL     1      37.021 -24.210 -11.900  0.00  0.00    +0.002 C 
ATOM     19  C   UNL     1      38.248 -24.805 -12.192  0.00  0.00    +0.024 C 
BRANCH  17  22
ATOM     20  O   UNL     1      40.967 -24.816 -13.771  0.00  0.00    -0.126 OA
ATOM     21  O   UNL     1      39.952 -26.733 -14.110  0.00  0.00    -0.126 OA
ATOM     22  N   UNL     1      39.925 -25.514 -13.813  0.00  0.00    +0.058 N 
ENDBRANCH  17  22
ENDBRANCH  13  14
BRANCH   4  23
ATOM     23  C   UNL     1      34.589 -19.679 -21.404  0.00  0.00    +0.098 C 
BRANCH  23  24
ATOM     24  C   UNL     1      35.040 -18.250 -21.106  0.00  0.00    -0.001 C 
BRANCH  24  25
ATOM     25  C   UNL     1      36.139 -17.727 -22.035  0.00  0.00    -0.075 C 
BRANCH  25  27
ATOM     26  O   UNL     1      33.691 -14.815 -23.808  0.00  0.00    -0.358 OA
ATOM     27  N   UNL     1      35.700 -16.556 -22.793  0.00  0.00    +0.390 N 
ATOM     28  C   UNL     1      34.998 -15.603 -21.922  0.00  0.00    -0.045 C 
ATOM     29  C   UNL     1      34.831 -16.953 -23.909  0.00  0.00    -0.045 C 
ATOM     30  C   UNL     1      34.539 -14.397 -22.737  0.00  0.00    +0.119 C 
ATOM     31  C   UNL     1      34.377 -15.715 -24.678  0.00  0.00    +0.119 C 
ATOM     32  H   UNL     1      36.530 -16.101 -23.173  0.00  0.00    -0.079 HD
ENDBRANCH  25  27
ENDBRANCH  24  25
ENDBRANCH  23  24
ENDBRANCH   4  23
TORSDOF 6
ENDMDL
MODEL 4
REMARK VINA RESULT:     -10.4      2.158     10.012
REMARK  Name = 4470566
REMARK  6 active torsions:
REMARK  status: ('A' for Active; 'I' for Inactive)
REMARK    1  A    between atoms: N_4  and  C_23
REMARK    2  A    between atoms: C_13  and  C_14
REMARK    3  A    between atoms: C_17  and  N_22
REMARK    4  A    between atoms: C_23  and  C_24
REMARK    5  A    between atoms: C_24  and  C_25
REMARK    6  A    between atoms: C_25  and  N_27
REMARK                            x       y       z     vdW  Elec       q    Type
REMARK                         _______ _______ _______ _____ _____    ______ ____
ROOT
ATOM      1  S   UNL     1      33.456 -13.395 -25.165  0.00  0.00    -0.086 S 
ATOM      2  S   UNL     1      35.301 -16.374 -20.279  0.00  0.00    -0.017 S 
ATOM      3  O   UNL     1      34.413 -19.412 -24.288  0.00  0.00    -0.268 OA
ATOM      4  N   UNL     1      34.909 -18.283 -22.261  0.00  0.00    -0.237 N 
ATOM      5  N   UNL     1      34.481 -16.269 -22.904  0.00  0.00    -0.244 N 
ATOM      6  C   UNL     1      34.240 -17.065 -23.976  0.00  0.00    +0.112 C 
ATOM      7  C   UNL     1      34.222 -14.973 -23.262  0.00  0.00    +0.064 C 
ATOM      8  C   UNL     1      34.906 -16.961 -21.780  0.00  0.00    +0.152 C 
ATOM      9  C   UNL     1      34.511 -18.409 -23.598  0.00  0.00    +0.268 C 
ATOM     10  C   UNL     1      33.818 -14.986 -24.578  0.00  0.00    +0.045 C 
ATOM     11  C   UNL     1      33.825 -16.337 -25.055  0.00  0.00    +0.028 C 
ATOM     12  C   UNL     1      34.250 -13.673 -22.691  0.00  0.00    +0.022 C 
ATOM     13  C   UNL     1      33.856 -12.739 -23.626  0.00  0.00    +0.031 C 
ENDROOT
BRANCH  13  14
ATOM     14  C   UNL     1      33.746 -11.307 -23.456  0.00  0.00    +0.008 C 
ATOM     15  C   UNL     1      32.788 -10.781 -22.592  0.00  0.00    +0.025 C 
ATOM     16  C   UNL     1      34.600 -10.459 -24.157  0.00  0.00    +0.001 C 
ATOM     17  C   UNL     1      32.684  -9.400 -22.428  0.00  0.00    +0.143 C 
ATOM     18  C   UNL     1      34.495  -9.077 -23.993  0.00  0.00    +0.002 C 
ATOM     19  C   UNL     1      33.538  -8.549 -23.128  0.00  0.00    +0.024 C 
BRANCH  17  22
ATOM     20  O   UNL     1      31.305  -7.688 -21.733  0.00  0.00    -0.126 OA
ATOM     21  O   UNL     1      31.274  -9.575 -20.612  0.00  0.00    -0.126 OA
ATOM     22  N   UNL     1      31.707  -8.862 -21.549  0.00  0.00    +0.058 N 
ENDBRANCH  17  22
ENDBRANCH  13  14
BRANCH   4  23
ATOM     23  C   UNL     1      35.286 -19.444 -21.467  0.00  0.00    +0.098 C 
BRANCH  23  24
ATOM     24  C   UNL     1      34.259 -19.771 -20.384  0.00  0.00    -0.001 C 
BRANCH  24  25
ATOM     25  C   UNL     1      34.236 -21.242 -19.958  0.00  0.00    -0.075 C 
BRANCH  25  27
ATOM     26  O   UNL     1      35.936 -22.894 -16.495  0.00  0.00    -0.358 OA
ATOM     27  N   UNL     1      34.674 -21.417 -18.575  0.00  0.00    +0.390 N 
ATOM     28  C   UNL     1      36.136 -21.547 -18.502  0.00  0.00    -0.045 C 
ATOM     29  C   UNL     1      34.033 -22.592 -17.969  0.00  0.00    -0.045 C 
ATOM     30  C   UNL     1      36.568 -21.741 -17.052  0.00  0.00    +0.119 C 
ATOM     31  C   UNL     1      34.514 -22.761 -16.531  0.00  0.00    +0.119 C 
ATOM     32  H   UNL     1      34.394 -20.588 -18.051  0.00  0.00    -0.079 HD
ENDBRANCH  25  27
ENDBRANCH  24  25
ENDBRANCH  23  24
ENDBRANCH   4  23
TORSDOF 6
ENDMDL
MODEL 5
REMARK VINA RESULT:     -10.4      3.762     12.031
REMARK  Name = 4470566
REMARK  6 active torsions:
REMARK  status: ('A' for Active; 'I' for Inactive)
REMARK    1  A    between atoms: N_4  and  C_23
REMARK    2  A    between atoms: C_13  and  C_14
REMARK    3  A    between atoms: C_17  and  N_22
REMARK    4  A    between atoms: C_23  and  C_24
REMARK    5  A    between atoms: C_24  and  C_25
REMARK    6  A    between atoms: C_25  and  N_27
REMARK                            x       y       z     vdW  Elec       q    Type
REMARK                         _______ _______ _______ _____ _____    ______ ____
ROOT
ATOM      1  S   UNL     1      31.687  -7.296 -21.065  0.00  0.00    -0.086 S 
ATOM      2  S   UNL     1      33.789 -11.504 -24.811  0.00  0.00    -0.017 S 
ATOM      3  O   UNL     1      32.036 -13.407 -20.407  0.00  0.00    -0.268 OA
ATOM      4  N   UNL     1      32.920 -12.842 -22.534  0.00  0.00    -0.237 N 
ATOM      5  N   UNL     1      32.652 -10.704 -22.435  0.00  0.00    -0.244 N 
ATOM      6  C   UNL     1      32.184 -11.196 -21.261  0.00  0.00    +0.112 C 
ATOM      7  C   UNL     1      32.504  -9.343 -22.422  0.00  0.00    +0.064 C 
ATOM      8  C   UNL     1      33.136 -11.679 -23.295  0.00  0.00    +0.152 C 
ATOM      9  C   UNL     1      32.341 -12.610 -21.280  0.00  0.00    +0.268 C 
ATOM     10  C   UNL     1      31.934  -9.006 -21.216  0.00  0.00    +0.045 C 
ATOM     11  C   UNL     1      31.720 -10.200 -20.451  0.00  0.00    +0.028 C 
ATOM     12  C   UNL     1      32.757  -8.225 -23.260  0.00  0.00    +0.022 C 
ATOM     13  C   UNL     1      32.356  -7.065 -22.632  0.00  0.00    +0.031 C 
ENDROOT
BRANCH  13  14
ATOM     14  C   UNL     1      32.437  -5.711 -23.136  0.00  0.00    +0.008 C 
ATOM     15  C   UNL     1      31.735  -4.690 -22.500  0.00  0.00    +0.025 C 
ATOM     16  C   UNL     1      33.218  -5.434 -24.256  0.00  0.00    +0.001 C 
ATOM     17  C   UNL     1      31.815  -3.385 -22.985  0.00  0.00    +0.143 C 
ATOM     18  C   UNL     1      33.297  -4.129 -24.742  0.00  0.00    +0.002 C 
ATOM     19  C   UNL     1      32.596  -3.105 -24.106  0.00  0.00    +0.024 C 
BRANCH  17  22
ATOM     20  O   UNL     1      29.978  -2.005 -22.790  0.00  0.00    -0.126 OA
ATOM     21  O   UNL     1      31.608  -1.787 -21.335  0.00  0.00    -0.126 OA
ATOM     22  N   UNL     1      31.099  -2.343 -22.339  0.00  0.00    +0.058 N 
ENDBRANCH  17  22
ENDBRANCH  13  14
BRANCH   4  23
ATOM     23  C   UNL     1      33.259 -14.187 -22.979  0.00  0.00    +0.098 C 
BRANCH  23  24
ATOM     24  C   UNL     1      34.661 -14.611 -22.547  0.00  0.00    -0.001 C 
BRANCH  24  25
ATOM     25  C   UNL     1      35.340 -15.607 -23.492  0.00  0.00    -0.075 C 
BRANCH  25  27
ATOM     26  O   UNL     1      34.670 -19.120 -21.295  0.00  0.00    -0.358 OA
ATOM     27  N   UNL     1      35.545 -16.908 -22.857  0.00  0.00    +0.390 N 
ATOM     28  C   UNL     1      34.608 -17.905 -23.393  0.00  0.00    -0.045 C 
ATOM     29  C   UNL     1      35.393 -16.807 -21.399  0.00  0.00    -0.045 C 
ATOM     30  C   UNL     1      34.833 -19.249 -22.708  0.00  0.00    +0.119 C 
ATOM     31  C   UNL     1      35.600 -18.177 -20.760  0.00  0.00    +0.119 C 
ATOM     32  H   UNL     1      36.497 -17.210 -23.065  0.00  0.00    -0.079 HD
ENDBRANCH  25  27
ENDBRANCH  24  25
ENDBRANCH  23  24
ENDBRANCH   4  23
TORSDOF 6
ENDMDL
MODEL 6
REMARK VINA RESULT:     -10.1      3.785     11.903
REMARK  Name = 4470566
REMARK  6 active torsions:
REMARK  status: ('A' for Active; 'I' for Inactive)
REMARK    1  A    between atoms: N_4  and  C_23
REMARK    2  A    between atoms: C_13  and  C_14
REMARK    3  A    between atoms: C_17  and  N_22
REMARK    4  A    between atoms: C_23  and  C_24
REMARK    5  A    between atoms: C_24  and  C_25
REMARK    6  A    between atoms: C_25  and  N_27
REMARK                            x       y       z     vdW  Elec       q    Type
REMARK                         _______ _______ _______ _____ _____    ______ ____
ROOT
ATOM      1  S   UNL     1      31.560  -7.542 -20.379  0.00  0.00    -0.086 S 
ATOM      2  S   UNL     1      33.680 -11.233 -24.626  0.00  0.00    -0.017 S 
ATOM      3  O   UNL     1      32.172 -13.667 -20.396  0.00  0.00    -0.268 OA
ATOM      4  N   UNL     1      32.951 -12.842 -22.479  0.00  0.00    -0.237 N 
ATOM      5  N   UNL     1      32.604 -10.740 -22.141  0.00  0.00    -0.244 N 
ATOM      6  C   UNL     1      32.201 -11.374 -21.011  0.00  0.00    +0.112 C 
ATOM      7  C   UNL     1      32.404  -9.396 -21.976  0.00  0.00    +0.064 C 
ATOM      8  C   UNL     1      33.092 -11.596 -23.117  0.00  0.00    +0.152 C 
ATOM      9  C   UNL     1      32.412 -12.770 -21.188  0.00  0.00    +0.268 C 
ATOM     10  C   UNL     1      31.867  -9.214 -20.722  0.00  0.00    +0.045 C 
ATOM     11  C   UNL     1      31.730 -10.490 -20.083  0.00  0.00    +0.028 C 
ATOM     12  C   UNL     1      32.581  -8.185 -22.697  0.00  0.00    +0.022 C 
ATOM     13  C   UNL     1      32.159  -7.116 -21.934  0.00  0.00    +0.031 C 
ENDROOT
BRANCH  13  14
ATOM     14  C   UNL     1      32.167  -5.715 -22.291  0.00  0.00    +0.008 C 
ATOM     15  C   UNL     1      32.566  -5.325 -23.567  0.00  0.00    +0.025 C 
ATOM     16  C   UNL     1      31.774  -4.760 -21.357  0.00  0.00    +0.001 C 
ATOM     17  C   UNL     1      32.572  -3.974 -23.912  0.00  0.00    +0.143 C 
ATOM     18  C   UNL     1      31.781  -3.408 -21.701  0.00  0.00    +0.002 C 
ATOM     19  C   UNL     1      32.179  -3.016 -22.978  0.00  0.00    +0.024 C 
BRANCH  17  22
ATOM     20  O   UNL     1      33.526  -2.454 -25.360  0.00  0.00    -0.126 OA
ATOM     21  O   UNL     1      32.782  -4.352 -26.177  0.00  0.00    -0.126 OA
ATOM     22  N   UNL     1      32.980  -3.574 -25.212  0.00  0.00    +0.058 N 
ENDBRANCH  17  22
ENDBRANCH  13  14
BRANCH   4  23
ATOM     23  C   UNL     1      33.325 -14.116 -23.077  0.00  0.00    +0.098 C 
BRANCH  23  24
ATOM     24  C   UNL     1      34.696 -14.602 -22.612  0.00  0.00    -0.001 C 
BRANCH  24  25
ATOM     25  C   UNL     1      35.335 -15.657 -23.520  0.00  0.00    -0.075 C 
BRANCH  25  27
ATOM     26  O   UNL     1      34.673 -19.071 -21.170  0.00  0.00    -0.358 OA
ATOM     27  N   UNL     1      35.547 -16.923 -22.821  0.00  0.00    +0.390 N 
ATOM     28  C   UNL     1      34.632 -17.957 -23.325  0.00  0.00    -0.045 C 
ATOM     29  C   UNL     1      35.367 -16.755 -21.372  0.00  0.00    -0.045 C 
ATOM     30  C   UNL     1      34.863 -19.264 -22.573  0.00  0.00    +0.119 C 
ATOM     31  C   UNL     1      35.581 -18.091 -20.666  0.00  0.00    +0.119 C 
ATOM     32  H   UNL     1      36.505 -17.221 -22.998  0.00  0.00    -0.079 HD
ENDBRANCH  25  27
ENDBRANCH  24  25
ENDBRANCH  23  24
ENDBRANCH   4  23
TORSDOF 6
ENDMDL
MODEL 7
REMARK VINA RESULT:     -10.1      4.022      7.322
REMARK  Name = 4470566
REMARK  6 active torsions:
REMARK  status: ('A' for Active; 'I' for Inactive)
REMARK    1  A    between atoms: N_4  and  C_23
REMARK    2  A    between atoms: C_13  and  C_14
REMARK    3  A    between atoms: C_17  and  N_22
REMARK    4  A    between atoms: C_23  and  C_24
REMARK    5  A    between atoms: C_24  and  C_25
REMARK    6  A    between atoms: C_25  and  N_27
REMARK                            x       y       z     vdW  Elec       q    Type
REMARK                         _______ _______ _______ _____ _____    ______ ____
ROOT
ATOM      1  S   UNL     1      34.495 -23.143 -16.049  0.00  0.00    -0.086 S 
ATOM      2  S   UNL     1      32.521 -19.891 -20.705  0.00  0.00    -0.017 S 
ATOM      3  O   UNL     1      37.608 -19.895 -20.250  0.00  0.00    -0.268 OA
ATOM      4  N   UNL     1      35.294 -19.696 -20.730  0.00  0.00    -0.237 N 
ATOM      5  N   UNL     1      34.528 -20.911 -19.122  0.00  0.00    -0.244 N 
ATOM      6  C   UNL     1      35.878 -20.920 -18.989  0.00  0.00    +0.112 C 
ATOM      7  C   UNL     1      33.991 -21.673 -18.119  0.00  0.00    +0.064 C 
ATOM      8  C   UNL     1      34.078 -20.160 -20.197  0.00  0.00    +0.152 C 
ATOM      9  C   UNL     1      36.430 -20.127 -20.034  0.00  0.00    +0.268 C 
ATOM     10  C   UNL     1      35.038 -22.153 -17.365  0.00  0.00    +0.045 C 
ATOM     11  C   UNL     1      36.270 -21.672 -17.918  0.00  0.00    +0.028 C 
ATOM     12  C   UNL     1      32.718 -22.095 -17.652  0.00  0.00    +0.022 C 
ATOM     13  C   UNL     1      32.865 -22.894 -16.538  0.00  0.00    +0.031 C 
ENDROOT
BRANCH  13  14
ATOM     14  C   UNL     1      31.825 -23.528 -15.758  0.00  0.00    +0.008 C 
ATOM     15  C   UNL     1      30.491 -23.375 -16.125  0.00  0.00    +0.025 C 
ATOM     16  C   UNL     1      32.164 -24.290 -14.642  0.00  0.00    +0.001 C 
ATOM     17  C   UNL     1      29.489 -23.989 -15.373  0.00  0.00    +0.143 C 
ATOM     18  C   UNL     1      31.161 -24.903 -13.890  0.00  0.00    +0.002 C 
ATOM     19  C   UNL     1      29.824 -24.752 -14.256  0.00  0.00    +0.024 C 
BRANCH  17  22
ATOM     20  O   UNL     1      27.722 -24.366 -16.807  0.00  0.00    -0.126 OA
ATOM     21  O   UNL     1      27.366 -23.167 -15.003  0.00  0.00    -0.126 OA
ATOM     22  N   UNL     1      28.127 -23.833 -15.745  0.00  0.00    +0.058 N 
ENDBRANCH  17  22
ENDBRANCH  13  14
BRANCH   4  23
ATOM     23  C   UNL     1      35.401 -18.838 -21.902  0.00  0.00    +0.098 C 
BRANCH  23  24
ATOM     24  C   UNL     1      35.313 -17.354 -21.552  0.00  0.00    -0.001 C 
BRANCH  24  25
ATOM     25  C   UNL     1      35.694 -16.410 -22.697  0.00  0.00    -0.075 C 
BRANCH  25  27
ATOM     26  O   UNL     1      33.360 -13.538 -24.675  0.00  0.00    -0.358 OA
ATOM     27  N   UNL     1      34.541 -15.661 -23.193  0.00  0.00    +0.390 N 
ATOM     28  C   UNL     1      34.500 -15.679 -24.662  0.00  0.00    -0.045 C 
ATOM     29  C   UNL     1      34.571 -14.274 -22.707  0.00  0.00    -0.045 C 
ATOM     30  C   UNL     1      33.297 -14.881 -25.157  0.00  0.00    +0.119 C 
ATOM     31  C   UNL     1      33.366 -13.510 -23.247  0.00  0.00    +0.119 C 
ATOM     32  H   UNL     1      33.699 -16.112 -22.838  0.00  0.00    -0.079 HD
ENDBRANCH  25  27
ENDBRANCH  24  25
ENDBRANCH  23  24
ENDBRANCH   4  23
TORSDOF 6
ENDMDL
MODEL 8
REMARK VINA RESULT:     -10.0      4.976     11.339
REMARK  Name = 4470566
REMARK  6 active torsions:
REMARK  status: ('A' for Active; 'I' for Inactive)
REMARK    1  A    between atoms: N_4  and  C_23
REMARK    2  A    between atoms: C_13  and  C_14
REMARK    3  A    between atoms: C_17  and  N_22
REMARK    4  A    between atoms: C_23  and  C_24
REMARK    5  A    between atoms: C_24  and  C_25
REMARK    6  A    between atoms: C_25  and  N_27
REMARK                            x       y       z     vdW  Elec       q    Type
REMARK                         _______ _______ _______ _____ _____    ______ ____
ROOT
ATOM      1  S   UNL     1      37.133 -20.152 -19.273  0.00  0.00    -0.086 S 
ATOM      2  S   UNL     1      32.407 -23.093 -17.000  0.00  0.00    -0.017 S 
ATOM      3  O   UNL     1      36.719 -23.851 -14.370  0.00  0.00    -0.268 OA
ATOM      4  N   UNL     1      34.572 -23.703 -15.366  0.00  0.00    -0.237 N 
ATOM      5  N   UNL     1      35.065 -22.378 -16.995  0.00  0.00    -0.244 N 
ATOM      6  C   UNL     1      36.218 -22.572 -16.306  0.00  0.00    +0.112 C 
ATOM      7  C   UNL     1      35.326 -21.540 -18.045  0.00  0.00    +0.064 C 
ATOM      8  C   UNL     1      33.978 -23.059 -16.467  0.00  0.00    +0.152 C 
ATOM      9  C   UNL     1      35.940 -23.444 -15.216  0.00  0.00    +0.268 C 
ATOM     10  C   UNL     1      36.663 -21.219 -17.989  0.00  0.00    +0.045 C 
ATOM     11  C   UNL     1      37.256 -21.882 -16.864  0.00  0.00    +0.028 C 
ATOM     12  C   UNL     1      34.643 -20.929 -19.130  0.00  0.00    +0.022 C 
ATOM     13  C   UNL     1      35.518 -20.155 -19.863  0.00  0.00    +0.031 C 
ENDROOT
BRANCH  13  14
ATOM     14  C   UNL     1      35.231 -19.369 -21.042  0.00  0.00    +0.008 C 
ATOM     15  C   UNL     1      35.338 -17.981 -20.995  0.00  0.00    +0.025 C 
ATOM     16  C   UNL     1      34.851 -20.004 -22.222  0.00  0.00    +0.001 C 
ATOM     17  C   UNL     1      35.063 -17.224 -22.133  0.00  0.00    +0.143 C 
ATOM     18  C   UNL     1      34.575 -19.246 -23.361  0.00  0.00    +0.002 C 
ATOM     19  C   UNL     1      34.682 -17.856 -23.316  0.00  0.00    +0.024 C 
BRANCH  17  22
ATOM     20  O   UNL     1      35.003 -15.222 -20.989  0.00  0.00    -0.126 OA
ATOM     21  O   UNL     1      35.426 -15.183 -23.143  0.00  0.00    -0.126 OA
ATOM     22  N   UNL     1      35.169 -15.809 -22.086  0.00  0.00    +0.058 N 
ENDBRANCH  17  22
ENDBRANCH  13  14
BRANCH   4  23
ATOM     23  C   UNL     1      33.857 -24.573 -14.442  0.00  0.00    +0.098 C 
BRANCH  23  24
ATOM     24  C   UNL     1      32.835 -23.816 -13.597  0.00  0.00    -0.001 C 
BRANCH  24  25
ATOM     25  C   UNL     1      31.656 -24.668 -13.117  0.00  0.00    -0.075 C 
BRANCH  25  27
ATOM     26  O   UNL     1      28.829 -23.230 -15.866  0.00  0.00    -0.358 OA
ATOM     27  N   UNL     1      30.392 -24.233 -13.709  0.00  0.00    +0.390 N 
ATOM     28  C   UNL     1      30.035 -25.077 -14.857  0.00  0.00    -0.045 C 
ATOM     29  C   UNL     1      30.468 -22.825 -14.124  0.00  0.00    -0.045 C 
ATOM     30  C   UNL     1      28.721 -24.596 -15.466  0.00  0.00    +0.119 C 
ATOM     31  C   UNL     1      29.143 -22.397 -14.749  0.00  0.00    +0.119 C 
ATOM     32  H   UNL     1      29.667 -24.323 -12.999  0.00  0.00    -0.079 HD
ENDBRANCH  25  27
ENDBRANCH  24  25
ENDBRANCH  23  24
ENDBRANCH   4  23
TORSDOF 6
ENDMDL
MODEL 9
REMARK VINA RESULT:     -10.0      3.842     11.549
REMARK  Name = 4470566
REMARK  6 active torsions:
REMARK  status: ('A' for Active; 'I' for Inactive)
REMARK    1  A    between atoms: N_4  and  C_23
REMARK    2  A    between atoms: C_13  and  C_14
REMARK    3  A    between atoms: C_17  and  N_22
REMARK    4  A    between atoms: C_23  and  C_24
REMARK    5  A    between atoms: C_24  and  C_25
REMARK    6  A    between atoms: C_25  and  N_27
REMARK                            x       y       z     vdW  Elec       q    Type
REMARK                         _______ _______ _______ _____ _____    ______ ____
ROOT
ATOM      1  S   UNL     1      36.832 -18.331 -21.552  0.00  0.00    -0.086 S 
ATOM      2  S   UNL     1      32.510 -21.536 -18.870  0.00  0.00    -0.017 S 
ATOM      3  O   UNL     1      37.170 -22.448 -16.988  0.00  0.00    -0.268 OA
ATOM      4  N   UNL     1      34.897 -22.250 -17.636  0.00  0.00    -0.237 N 
ATOM      5  N   UNL     1      35.136 -20.780 -19.197  0.00  0.00    -0.244 N 
ATOM      6  C   UNL     1      36.380 -21.014 -18.707  0.00  0.00    +0.112 C 
ATOM      7  C   UNL     1      35.234 -19.850 -20.196  0.00  0.00    +0.064 C 
ATOM      8  C   UNL     1      34.143 -21.522 -18.575  0.00  0.00    +0.152 C 
ATOM      9  C   UNL     1      36.271 -21.981 -17.669  0.00  0.00    +0.268 C 
ATOM     10  C   UNL     1      36.564 -19.513 -20.311  0.00  0.00    +0.045 C 
ATOM     11  C   UNL     1      37.320 -20.261 -19.351  0.00  0.00    +0.028 C 
ATOM     12  C   UNL     1      34.394 -19.159 -21.109  0.00  0.00    +0.022 C 
ATOM     13  C   UNL     1      35.147 -18.310 -21.893  0.00  0.00    +0.031 C 
ENDROOT
BRANCH  13  14
ATOM     14  C   UNL     1      34.684 -17.429 -22.943  0.00  0.00    +0.008 C 
ATOM     15  C   UNL     1      34.674 -16.051 -22.739  0.00  0.00    +0.025 C 
ATOM     16  C   UNL     1      34.252 -17.963 -24.155  0.00  0.00    +0.001 C 
ATOM     17  C   UNL     1      34.229 -15.202 -23.753  0.00  0.00    +0.143 C 
ATOM     18  C   UNL     1      33.807 -17.114 -25.168  0.00  0.00    +0.002 C 
ATOM     19  C   UNL     1      33.796 -15.734 -24.967  0.00  0.00    +0.024 C 
BRANCH  17  22
ATOM     20  O   UNL     1      33.765 -13.055 -24.452  0.00  0.00    -0.126 OA
ATOM     21  O   UNL     1      34.657 -13.337 -22.466  0.00  0.00    -0.126 OA
ATOM     22  N   UNL     1      34.216 -13.798 -23.547  0.00  0.00    +0.058 N 
ENDBRANCH  17  22
ENDBRANCH  13  14
BRANCH   4  23
ATOM     23  C   UNL     1      34.332 -23.208 -16.696  0.00  0.00    +0.098 C 
BRANCH  23  24
ATOM     24  C   UNL     1      34.669 -22.874 -15.245  0.00  0.00    -0.001 C 
BRANCH  24  25
ATOM     25  C   UNL     1      34.579 -24.063 -14.284  0.00  0.00    -0.075 C 
BRANCH  25  27
ATOM     26  O   UNL     1      37.586 -26.672 -12.955  0.00  0.00    -0.358 OA
ATOM     27  N   UNL     1      35.893 -24.637 -14.002  0.00  0.00    +0.390 N 
ATOM     28  C   UNL     1      36.058 -25.927 -14.686  0.00  0.00    -0.045 C 
ATOM     29  C   UNL     1      36.088 -24.806 -12.555  0.00  0.00    -0.045 C 
ATOM     30  C   UNL     1      37.430 -26.512 -14.366  0.00  0.00    +0.119 C 
ATOM     31  C   UNL     1      37.461 -25.417 -12.285  0.00  0.00    +0.119 C 
ATOM     32  H   UNL     1      36.599 -23.990 -14.352  0.00  0.00    -0.079 HD
ENDBRANCH  25  27
ENDBRANCH  24  25
ENDBRANCH  23  24
ENDBRANCH   4  23
TORSDOF 6
ENDMDL
