MODEL 1
REMARK VINA RESULT:     -12.1      0.000      0.000
REMARK  Name = 107971
REMARK  9 active torsions:
REMARK  status: ('A' for Active; 'I' for Inactive)
REMARK    1  A    between atoms: C_3  and  O_20
REMARK    2  A    between atoms: C_10  and  C_12
REMARK    3  A    between atoms: C_17  and  O_18
REMARK    4  A    between atoms: O_20  and  C_26
REMARK    5  A    between atoms: C_22  and  O_27
REMARK    6  A    between atoms: C_23  and  O_29
REMARK    7  A    between atoms: C_24  and  O_31
REMARK    8  A    between atoms: C_25  and  C_33
REMARK    9  A    between atoms: C_33  and  O_34
REMARK                            x       y       z     vdW  Elec       q    Type
REMARK                         _______ _______ _______ _____ _____    ______ ____
ROOT
ATOM      1  O   UNL     1      36.292 -21.452 -18.277  0.00  0.00    -0.450 OA
ATOM      2  O   UNL     1      32.654 -20.622 -19.927  0.00  0.00    -0.286 OA
ATOM      3  C   UNL     1      34.187 -23.475 -16.098  0.00  0.00    +0.144 C 
ATOM      4  C   UNL     1      35.308 -22.874 -16.669  0.00  0.00    +0.075 C 
ATOM      5  C   UNL     1      32.916 -23.219 -16.613  0.00  0.00    +0.037 C 
ATOM      6  C   UNL     1      35.155 -22.015 -17.757  0.00  0.00    +0.151 C 
ATOM      7  C   UNL     1      33.884 -21.758 -18.272  0.00  0.00    +0.074 C 
ATOM      8  C   UNL     1      32.760 -22.360 -17.701  0.00  0.00    +0.009 C 
ATOM      9  C   UNL     1      33.747 -20.850 -19.425  0.00  0.00    +0.202 C 
ATOM     10  C   UNL     1      35.005 -20.246 -19.946  0.00  0.00    +0.077 C 
ATOM     11  C   UNL     1      36.150 -20.592 -19.339  0.00  0.00    +0.183 C 
ENDROOT
BRANCH  10  12
ATOM     12  C   UNL     1      35.005 -19.293 -21.069  0.00  0.00    +0.006 C 
ATOM     13  C   UNL     1      34.671 -19.724 -22.355  0.00  0.00    +0.003 C 
ATOM     14  C   UNL     1      35.340 -17.955 -20.851  0.00  0.00    +0.003 C 
ATOM     15  C   UNL     1      34.672 -18.821 -23.417  0.00  0.00    +0.037 C 
ATOM     16  C   UNL     1      35.341 -17.052 -21.914  0.00  0.00    +0.037 C 
ATOM     17  C   UNL     1      35.007 -17.485 -23.197  0.00  0.00    +0.134 C 
BRANCH  17  18
ATOM     18  O   UNL     1      35.008 -16.604 -24.235  0.00  0.00    -0.506 OA
ATOM     19  H   UNL     1      35.623 -15.897 -24.248  0.00  0.00    +0.292 HD
ENDBRANCH  17  18
ENDBRANCH  10  12
BRANCH   3  20
ATOM     20  O   UNL     1      34.333 -24.314 -15.033  0.00  0.00    -0.450 OA
BRANCH  20  26
ATOM     21  O   UNL     1      36.478 -24.644 -14.177  0.00  0.00    -0.316 OA
ATOM     22  C   UNL     1      35.624 -23.936 -11.528  0.00  0.00    +0.173 C 
ATOM     23  C   UNL     1      36.969 -24.607 -11.803  0.00  0.00    +0.169 C 
ATOM     24  C   UNL     1      34.633 -24.196 -12.663  0.00  0.00    +0.210 C 
ATOM     25  C   UNL     1      37.464 -24.272 -13.213  0.00  0.00    +0.177 C 
ATOM     26  C   UNL     1      35.263 -23.914 -14.027  0.00  0.00    +0.318 C 
BRANCH  22  27
ATOM     27  O   UNL     1      35.103 -24.472 -10.311  0.00  0.00    -0.379 OA
ATOM     28  H   UNL     1      34.169 -24.705 -10.433  0.00  0.00    +0.211 HD
ENDBRANCH  22  27
BRANCH  23  29
ATOM     29  O   UNL     1      37.926 -24.154 -10.849  0.00  0.00    -0.379 OA
ATOM     30  H   UNL     1      38.522 -23.514 -11.267  0.00  0.00    +0.211 HD
ENDBRANCH  23  29
BRANCH  24  31
ATOM     31  O   UNL     1      33.500 -23.342 -12.508  0.00  0.00    -0.377 OA
ATOM     32  H   UNL     1      33.684 -22.682 -11.821  0.00  0.00    +0.211 HD
ENDBRANCH  24  31
BRANCH  25  33
ATOM     33  C   UNL     1      38.748 -25.024 -13.553  0.00  0.00    +0.169 C 
BRANCH  33  34
ATOM     34  O   UNL     1      38.826 -26.176 -12.734  0.00  0.00    -0.379 OA
ATOM     35  H   UNL     1      37.943 -26.392 -12.396  0.00  0.00    +0.211 HD
ENDBRANCH  33  34
ENDBRANCH  25  33
ENDBRANCH  20  26
ENDBRANCH   3  20
TORSDOF 9
ENDMDL
MODEL 2
REMARK VINA RESULT:     -11.7      1.690      3.298
REMARK  Name = 107971
REMARK  9 active torsions:
REMARK  status: ('A' for Active; 'I' for Inactive)
REMARK    1  A    between atoms: C_3  and  O_20
REMARK    2  A    between atoms: C_10  and  C_12
REMARK    3  A    between atoms: C_17  and  O_18
REMARK    4  A    between atoms: O_20  and  C_26
REMARK    5  A    between atoms: C_22  and  O_27
REMARK    6  A    between atoms: C_23  and  O_29
REMARK    7  A    between atoms: C_24  and  O_31
REMARK    8  A    between atoms: C_25  and  C_33
REMARK    9  A    between atoms: C_33  and  O_34
REMARK                            x       y       z     vdW  Elec       q    Type
REMARK                         _______ _______ _______ _____ _____    ______ ____
ROOT
ATOM      1  O   UNL     1      36.994 -19.657 -19.803  0.00  0.00    -0.450 OA
ATOM      2  O   UNL     1      33.159 -20.061 -21.136  0.00  0.00    -0.286 OA
ATOM      3  C   UNL     1      35.785 -22.089 -17.375  0.00  0.00    +0.144 C 
ATOM      4  C   UNL     1      36.620 -21.213 -18.066  0.00  0.00    +0.075 C 
ATOM      5  C   UNL     1      34.460 -22.260 -17.779  0.00  0.00    +0.037 C 
ATOM      6  C   UNL     1      36.127 -20.505 -19.163  0.00  0.00    +0.151 C 
ATOM      7  C   UNL     1      34.803 -20.675 -19.567  0.00  0.00    +0.074 C 
ATOM      8  C   UNL     1      33.965 -21.553 -18.876  0.00  0.00    +0.009 C 
ATOM      9  C   UNL     1      34.305 -19.919 -20.731  0.00  0.00    +0.202 C 
ATOM     10  C   UNL     1      35.273 -18.996 -21.384  0.00  0.00    +0.077 C 
ATOM     11  C   UNL     1      36.513 -18.943 -20.874  0.00  0.00    +0.183 C 
ENDROOT
BRANCH  10  12
ATOM     12  C   UNL     1      34.895 -18.154 -22.532  0.00  0.00    +0.006 C 
ATOM     13  C   UNL     1      35.204 -16.792 -22.536  0.00  0.00    +0.003 C 
ATOM     14  C   UNL     1      34.224 -18.717 -23.621  0.00  0.00    +0.003 C 
ATOM     15  C   UNL     1      34.845 -15.997 -23.623  0.00  0.00    +0.037 C 
ATOM     16  C   UNL     1      33.865 -17.920 -24.708  0.00  0.00    +0.037 C 
ATOM     17  C   UNL     1      34.175 -16.560 -24.710  0.00  0.00    +0.134 C 
BRANCH  17  18
ATOM     18  O   UNL     1      33.824 -15.783 -25.770  0.00  0.00    -0.506 OA
ATOM     19  H   UNL     1      34.484 -15.321 -26.250  0.00  0.00    +0.292 HD
ENDBRANCH  17  18
ENDBRANCH  10  12
BRANCH   3  20
ATOM     20  O   UNL     1      36.263 -22.782 -16.302  0.00  0.00    -0.450 OA
BRANCH  20  26
ATOM     21  O   UNL     1      34.238 -22.829 -15.145  0.00  0.00    -0.316 OA
ATOM     22  C   UNL     1      35.097 -25.065 -13.560  0.00  0.00    +0.173 C 
ATOM     23  C   UNL     1      33.860 -24.238 -13.209  0.00  0.00    +0.169 C 
ATOM     24  C   UNL     1      36.061 -24.271 -14.441  0.00  0.00    +0.210 C 
ATOM     25  C   UNL     1      33.253 -23.610 -14.466  0.00  0.00    +0.177 C 
ATOM     26  C   UNL     1      35.331 -23.615 -15.613  0.00  0.00    +0.318 C 
BRANCH  22  27
ATOM     27  O   UNL     1      35.752 -25.420 -12.340  0.00  0.00    -0.379 OA
ATOM     28  H   UNL     1      35.923 -24.619 -11.820  0.00  0.00    +0.211 HD
ENDBRANCH  22  27
BRANCH  23  29
ATOM     29  O   UNL     1      32.892 -25.080 -12.588  0.00  0.00    -0.379 OA
ATOM     30  H   UNL     1      32.712 -25.842 -13.160  0.00  0.00    +0.211 HD
ENDBRANCH  23  29
BRANCH  24  31
ATOM     31  O   UNL     1      37.054 -25.149 -14.968  0.00  0.00    -0.377 OA
ATOM     32  H   UNL     1      37.204 -25.879 -14.347  0.00  0.00    +0.211 HD
ENDBRANCH  24  31
BRANCH  25  33
ATOM     33  C   UNL     1      32.086 -22.687 -14.128  0.00  0.00    +0.169 C 
BRANCH  33  34
ATOM     34  O   UNL     1      32.091 -22.448 -12.732  0.00  0.00    -0.379 OA
ATOM     35  H   UNL     1      32.770 -22.999 -12.313  0.00  0.00    +0.211 HD
ENDBRANCH  33  34
ENDBRANCH  25  33
ENDBRANCH  20  26
ENDBRANCH   3  20
TORSDOF 9
ENDMDL
MODEL 3
REMARK VINA RESULT:     -11.4      1.491      2.020
REMARK  Name = 107971
REMARK  9 active torsions:
REMARK  status: ('A' for Active; 'I' for Inactive)
REMARK    1  A    between atoms: C_3  and  O_20
REMARK    2  A    between atoms: C_10  and  C_12
REMARK    3  A    between atoms: C_17  and  O_18
REMARK    4  A    between atoms: O_20  and  C_26
REMARK    5  A    between atoms: C_22  and  O_27
REMARK    6  A    between atoms: C_23  and  O_29
REMARK    7  A    between atoms: C_24  and  O_31
REMARK    8  A    between atoms: C_25  and  C_33
REMARK    9  A    between atoms: C_33  and  O_34
REMARK                            x       y       z     vdW  Elec       q    Type
REMARK                         _______ _______ _______ _____ _____    ______ ____
ROOT
ATOM      1  O   UNL     1      36.540 -20.382 -19.439  0.00  0.00    -0.450 OA
ATOM      2  O   UNL     1      32.767 -19.743 -20.852  0.00  0.00    -0.286 OA
ATOM      3  C   UNL     1      34.734 -22.792 -17.390  0.00  0.00    +0.144 C 
ATOM      4  C   UNL     1      35.767 -22.037 -17.942  0.00  0.00    +0.075 C 
ATOM      5  C   UNL     1      33.421 -22.608 -17.826  0.00  0.00    +0.037 C 
ATOM      6  C   UNL     1      35.485 -21.095 -18.933  0.00  0.00    +0.151 C 
ATOM      7  C   UNL     1      34.173 -20.912 -19.369  0.00  0.00    +0.074 C 
ATOM      8  C   UNL     1      33.136 -21.668 -18.817  0.00  0.00    +0.009 C 
ATOM      9  C   UNL     1      33.899 -19.914 -20.420  0.00  0.00    +0.202 C 
ATOM     10  C   UNL     1      35.071 -19.148 -20.927  0.00  0.00    +0.077 C 
ATOM     11  C   UNL     1      36.270 -19.441 -20.403  0.00  0.00    +0.183 C 
ENDROOT
BRANCH  10  12
ATOM     12  C   UNL     1      34.931 -18.097 -21.948  0.00  0.00    +0.006 C 
ATOM     13  C   UNL     1      34.510 -18.424 -23.239  0.00  0.00    +0.003 C 
ATOM     14  C   UNL     1      35.221 -16.768 -21.629  0.00  0.00    +0.003 C 
ATOM     15  C   UNL     1      34.378 -17.427 -24.206  0.00  0.00    +0.037 C 
ATOM     16  C   UNL     1      35.089 -15.772 -22.597  0.00  0.00    +0.037 C 
ATOM     17  C   UNL     1      34.668 -16.101 -23.885  0.00  0.00    +0.134 C 
BRANCH  17  18
ATOM     18  O   UNL     1      34.540 -15.129 -24.829  0.00  0.00    -0.506 OA
ATOM     19  H   UNL     1      33.688 -14.870 -25.121  0.00  0.00    +0.292 HD
ENDBRANCH  17  18
ENDBRANCH  10  12
BRANCH   3  20
ATOM     20  O   UNL     1      35.005 -23.711 -16.420  0.00  0.00    -0.450 OA
BRANCH  20  26
ATOM     21  O   UNL     1      36.027 -23.453 -14.339  0.00  0.00    -0.316 OA
ATOM     22  C   UNL     1      33.536 -23.864 -12.969  0.00  0.00    +0.173 C 
ATOM     23  C   UNL     1      34.883 -23.892 -12.247  0.00  0.00    +0.169 C 
ATOM     24  C   UNL     1      33.703 -24.147 -14.461  0.00  0.00    +0.210 C 
ATOM     25  C   UNL     1      35.911 -23.026 -12.981  0.00  0.00    +0.177 C 
ATOM     26  C   UNL     1      34.814 -23.290 -15.069  0.00  0.00    +0.318 C 
BRANCH  22  27
ATOM     27  O   UNL     1      32.702 -24.866 -12.385  0.00  0.00    -0.379 OA
ATOM     28  H   UNL     1      32.019 -24.443 -11.841  0.00  0.00    +0.211 HD
ENDBRANCH  22  27
BRANCH  23  29
ATOM     29  O   UNL     1      34.716 -23.401 -10.919  0.00  0.00    -0.379 OA
ATOM     30  H   UNL     1      34.380 -22.492 -10.951  0.00  0.00    +0.211 HD
ENDBRANCH  23  29
BRANCH  24  31
ATOM     31  O   UNL     1      32.484 -23.846 -15.140  0.00  0.00    -0.377 OA
ATOM     32  H   UNL     1      31.734 -24.171 -14.618  0.00  0.00    +0.211 HD
ENDBRANCH  24  31
BRANCH  25  33
ATOM     33  C   UNL     1      37.294 -23.130 -12.345  0.00  0.00    +0.169 C 
BRANCH  33  34
ATOM     34  O   UNL     1      37.310 -22.337 -11.171  0.00  0.00    -0.379 OA
ATOM     35  H   UNL     1      36.485 -21.831 -11.113  0.00  0.00    +0.211 HD
ENDBRANCH  33  34
ENDBRANCH  25  33
ENDBRANCH  20  26
ENDBRANCH   3  20
TORSDOF 9
ENDMDL
MODEL 4
REMARK VINA RESULT:     -10.3      1.342      2.352
REMARK  Name = 107971
REMARK  9 active torsions:
REMARK  status: ('A' for Active; 'I' for Inactive)
REMARK    1  A    between atoms: C_3  and  O_20
REMARK    2  A    between atoms: C_10  and  C_12
REMARK    3  A    between atoms: C_17  and  O_18
REMARK    4  A    between atoms: O_20  and  C_26
REMARK    5  A    between atoms: C_22  and  O_27
REMARK    6  A    between atoms: C_23  and  O_29
REMARK    7  A    between atoms: C_24  and  O_31
REMARK    8  A    between atoms: C_25  and  C_33
REMARK    9  A    between atoms: C_33  and  O_34
REMARK                            x       y       z     vdW  Elec       q    Type
REMARK                         _______ _______ _______ _____ _____    ______ ____
ROOT
ATOM      1  O   UNL     1      36.376 -22.101 -17.324  0.00  0.00    -0.450 OA
ATOM      2  O   UNL     1      32.901 -21.197 -19.261  0.00  0.00    -0.286 OA
ATOM      3  C   UNL     1      34.041 -23.959 -15.233  0.00  0.00    +0.144 C 
ATOM      4  C   UNL     1      35.223 -23.423 -15.743  0.00  0.00    +0.075 C 
ATOM      5  C   UNL     1      32.821 -23.675 -15.848  0.00  0.00    +0.037 C 
ATOM      6  C   UNL     1      35.183 -22.600 -16.869  0.00  0.00    +0.151 C 
ATOM      7  C   UNL     1      33.963 -22.316 -17.483  0.00  0.00    +0.074 C 
ATOM      8  C   UNL     1      32.778 -22.853 -16.975  0.00  0.00    +0.009 C 
ATOM      9  C   UNL     1      33.946 -21.447 -18.674  0.00  0.00    +0.202 C 
ATOM     10  C   UNL     1      35.260 -20.911 -19.123  0.00  0.00    +0.077 C 
ATOM     11  C   UNL     1      36.344 -21.276 -18.423  0.00  0.00    +0.183 C 
ENDROOT
BRANCH  10  12
ATOM     12  C   UNL     1      35.379 -20.002 -20.275  0.00  0.00    +0.006 C 
ATOM     13  C   UNL     1      36.540 -19.248 -20.457  0.00  0.00    +0.003 C 
ATOM     14  C   UNL     1      34.329 -19.891 -21.191  0.00  0.00    +0.003 C 
ATOM     15  C   UNL     1      36.652 -18.387 -21.549  0.00  0.00    +0.037 C 
ATOM     16  C   UNL     1      34.441 -19.029 -22.282  0.00  0.00    +0.037 C 
ATOM     17  C   UNL     1      35.602 -18.277 -22.461  0.00  0.00    +0.134 C 
BRANCH  17  18
ATOM     18  O   UNL     1      35.711 -17.437 -23.526  0.00  0.00    -0.506 OA
ATOM     19  H   UNL     1      35.602 -16.514 -23.407  0.00  0.00    +0.292 HD
ENDBRANCH  17  18
ENDBRANCH  10  12
BRANCH   3  20
ATOM     20  O   UNL     1      34.077 -24.762 -14.132  0.00  0.00    -0.450 OA
BRANCH  20  26
ATOM     21  O   UNL     1      35.881 -23.699 -13.104  0.00  0.00    -0.316 OA
ATOM     22  C   UNL     1      37.708 -25.710 -14.034  0.00  0.00    +0.173 C 
ATOM     23  C   UNL     1      38.182 -24.380 -13.447  0.00  0.00    +0.169 C 
ATOM     24  C   UNL     1      36.275 -25.605 -14.555  0.00  0.00    +0.210 C 
ATOM     25  C   UNL     1      37.151 -23.823 -12.462  0.00  0.00    +0.177 C 
ATOM     26  C   UNL     1      35.354 -24.955 -13.523  0.00  0.00    +0.318 C 
BRANCH  22  27
ATOM     27  O   UNL     1      38.582 -26.054 -15.110  0.00  0.00    -0.379 OA
ATOM     28  H   UNL     1      39.097 -26.841 -14.870  0.00  0.00    +0.211 HD
ENDBRANCH  22  27
BRANCH  23  29
ATOM     29  O   UNL     1      39.421 -24.579 -12.770  0.00  0.00    -0.379 OA
ATOM     30  H   UNL     1      39.825 -25.407 -13.072  0.00  0.00    +0.211 HD
ENDBRANCH  23  29
BRANCH  24  31
ATOM     31  O   UNL     1      35.777 -26.912 -14.838  0.00  0.00    -0.377 OA
ATOM     32  H   UNL     1      34.816 -26.873 -14.960  0.00  0.00    +0.211 HD
ENDBRANCH  24  31
BRANCH  25  33
ATOM     33  C   UNL     1      37.547 -22.442 -11.951  0.00  0.00    +0.169 C 
BRANCH  33  34
ATOM     34  O   UNL     1      38.673 -22.581 -11.103  0.00  0.00    -0.379 OA
ATOM     35  H   UNL     1      38.801 -23.518 -10.889  0.00  0.00    +0.211 HD
ENDBRANCH  33  34
ENDBRANCH  25  33
ENDBRANCH  20  26
ENDBRANCH   3  20
TORSDOF 9
ENDMDL
MODEL 5
REMARK VINA RESULT:     -10.3      2.185     10.307
REMARK  Name = 107971
REMARK  9 active torsions:
REMARK  status: ('A' for Active; 'I' for Inactive)
REMARK    1  A    between atoms: C_3  and  O_20
REMARK    2  A    between atoms: C_10  and  C_12
REMARK    3  A    between atoms: C_17  and  O_18
REMARK    4  A    between atoms: O_20  and  C_26
REMARK    5  A    between atoms: C_22  and  O_27
REMARK    6  A    between atoms: C_23  and  O_29
REMARK    7  A    between atoms: C_24  and  O_31
REMARK    8  A    between atoms: C_25  and  C_33
REMARK    9  A    between atoms: C_33  and  O_34
REMARK                            x       y       z     vdW  Elec       q    Type
REMARK                         _______ _______ _______ _____ _____    ______ ____
ROOT
ATOM      1  O   UNL     1      36.785 -20.227 -19.546  0.00  0.00    -0.450 OA
ATOM      2  O   UNL     1      32.941 -21.435 -18.905  0.00  0.00    -0.286 OA
ATOM      3  C   UNL     1      35.184 -18.617 -22.395  0.00  0.00    +0.144 C 
ATOM      4  C   UNL     1      36.153 -19.035 -21.484  0.00  0.00    +0.075 C 
ATOM      5  C   UNL     1      33.855 -19.008 -22.233  0.00  0.00    +0.037 C 
ATOM      6  C   UNL     1      35.790 -19.847 -20.409  0.00  0.00    +0.151 C 
ATOM      7  C   UNL     1      34.461 -20.238 -20.247  0.00  0.00    +0.074 C 
ATOM      8  C   UNL     1      33.488 -19.820 -21.159  0.00  0.00    +0.009 C 
ATOM      9  C   UNL     1      34.100 -21.094 -19.101  0.00  0.00    +0.202 C 
ATOM     10  C   UNL     1      35.214 -21.499 -18.200  0.00  0.00    +0.077 C 
ATOM     11  C   UNL     1      36.439 -21.040 -18.494  0.00  0.00    +0.183 C 
ENDROOT
BRANCH  10  12
ATOM     12  C   UNL     1      34.997 -22.382 -17.042  0.00  0.00    +0.006 C 
ATOM     13  C   UNL     1      33.765 -23.016 -16.864  0.00  0.00    +0.003 C 
ATOM     14  C   UNL     1      36.023 -22.587 -16.116  0.00  0.00    +0.003 C 
ATOM     15  C   UNL     1      33.561 -23.852 -15.767  0.00  0.00    +0.037 C 
ATOM     16  C   UNL     1      35.818 -23.423 -15.018  0.00  0.00    +0.037 C 
ATOM     17  C   UNL     1      34.587 -24.055 -14.843  0.00  0.00    +0.134 C 
BRANCH  17  18
ATOM     18  O   UNL     1      34.387 -24.871 -13.772  0.00  0.00    -0.506 OA
ATOM     19  H   UNL     1      33.589 -25.356 -13.696  0.00  0.00    +0.292 HD
ENDBRANCH  17  18
ENDBRANCH  10  12
BRANCH   3  20
ATOM     20  O   UNL     1      35.536 -17.825 -23.448  0.00  0.00    -0.450 OA
BRANCH  20  26
ATOM     21  O   UNL     1      34.980 -16.140 -21.932  0.00  0.00    -0.316 OA
ATOM     22  C   UNL     1      33.857 -14.515 -24.017  0.00  0.00    +0.173 C 
ATOM     23  C   UNL     1      33.630 -14.219 -22.535  0.00  0.00    +0.169 C 
ATOM     24  C   UNL     1      34.232 -15.981 -24.237  0.00  0.00    +0.210 C 
ATOM     25  C   UNL     1      34.796 -14.744 -21.692  0.00  0.00    +0.177 C 
ATOM     26  C   UNL     1      35.342 -16.419 -23.282  0.00  0.00    +0.318 C 
BRANCH  22  27
ATOM     27  O   UNL     1      32.645 -14.226 -24.716  0.00  0.00    -0.379 OA
ATOM     28  H   UNL     1      32.286 -13.380 -24.404  0.00  0.00    +0.211 HD
ENDBRANCH  22  27
BRANCH  23  29
ATOM     29  O   UNL     1      33.512 -12.810 -22.349  0.00  0.00    -0.379 OA
ATOM     30  H   UNL     1      34.089 -12.531 -21.621  0.00  0.00    +0.211 HD
ENDBRANCH  23  29
BRANCH  24  31
ATOM     31  O   UNL     1      34.698 -16.155 -25.574  0.00  0.00    -0.377 OA
ATOM     32  H   UNL     1      34.021 -15.844 -26.195  0.00  0.00    +0.211 HD
ENDBRANCH  24  31
BRANCH  25  33
ATOM     33  C   UNL     1      34.539 -14.563 -20.199  0.00  0.00    +0.169 C 
BRANCH  33  34
ATOM     34  O   UNL     1      34.889 -15.763 -19.533  0.00  0.00    -0.379 OA
ATOM     35  H   UNL     1      35.622 -15.590 -18.922  0.00  0.00    +0.211 HD
ENDBRANCH  33  34
ENDBRANCH  25  33
ENDBRANCH  20  26
ENDBRANCH   3  20
TORSDOF 9
ENDMDL
MODEL 6
REMARK VINA RESULT:     -10.1      1.632      9.835
REMARK  Name = 107971
REMARK  9 active torsions:
REMARK  status: ('A' for Active; 'I' for Inactive)
REMARK    1  A    between atoms: C_3  and  O_20
REMARK    2  A    between atoms: C_10  and  C_12
REMARK    3  A    between atoms: C_17  and  O_18
REMARK    4  A    between atoms: O_20  and  C_26
REMARK    5  A    between atoms: C_22  and  O_27
REMARK    6  A    between atoms: C_23  and  O_29
REMARK    7  A    between atoms: C_24  and  O_31
REMARK    8  A    between atoms: C_25  and  C_33
REMARK    9  A    between atoms: C_33  and  O_34
REMARK                            x       y       z     vdW  Elec       q    Type
REMARK                         _______ _______ _______ _____ _____    ______ ____
ROOT
ATOM      1  O   UNL     1      36.913 -21.460 -17.759  0.00  0.00    -0.450 OA
ATOM      2  O   UNL     1      33.994 -23.354 -15.630  0.00  0.00    -0.286 OA
ATOM      3  C   UNL     1      34.085 -20.845 -19.971  0.00  0.00    +0.144 C 
ATOM      4  C   UNL     1      35.374 -20.846 -19.442  0.00  0.00    +0.075 C 
ATOM      5  C   UNL     1      33.048 -21.487 -19.293  0.00  0.00    +0.037 C 
ATOM      6  C   UNL     1      35.626 -21.491 -18.231  0.00  0.00    +0.151 C 
ATOM      7  C   UNL     1      34.591 -22.133 -17.552  0.00  0.00    +0.074 C 
ATOM      8  C   UNL     1      33.297 -22.133 -18.081  0.00  0.00    +0.009 C 
ATOM      9  C   UNL     1      34.880 -22.805 -16.272  0.00  0.00    +0.202 C 
ATOM     10  C   UNL     1      36.293 -22.764 -15.807  0.00  0.00    +0.077 C 
ATOM     11  C   UNL     1      37.174 -22.107 -16.576  0.00  0.00    +0.183 C 
ENDROOT
BRANCH  10  12
ATOM     12  C   UNL     1      36.725 -23.427 -14.565  0.00  0.00    +0.006 C 
ATOM     13  C   UNL     1      37.271 -24.712 -14.610  0.00  0.00    +0.003 C 
ATOM     14  C   UNL     1      36.588 -22.774 -13.338  0.00  0.00    +0.003 C 
ATOM     15  C   UNL     1      37.680 -25.339 -13.433  0.00  0.00    +0.037 C 
ATOM     16  C   UNL     1      36.996 -23.402 -12.162  0.00  0.00    +0.037 C 
ATOM     17  C   UNL     1      37.542 -24.685 -12.209  0.00  0.00    +0.134 C 
BRANCH  17  18
ATOM     18  O   UNL     1      37.940 -25.298 -11.061  0.00  0.00    -0.506 OA
ATOM     19  H   UNL     1      37.625 -24.992 -10.233  0.00  0.00    +0.292 HD
ENDBRANCH  17  18
ENDBRANCH  10  12
BRANCH   3  20
ATOM     20  O   UNL     1      33.835 -20.216 -21.155  0.00  0.00    -0.450 OA
BRANCH  20  26
ATOM     21  O   UNL     1      34.417 -18.014 -20.652  0.00  0.00    -0.316 OA
ATOM     22  C   UNL     1      35.219 -17.515 -23.364  0.00  0.00    +0.173 C 
ATOM     23  C   UNL     1      35.020 -16.390 -22.348  0.00  0.00    +0.169 C 
ATOM     24  C   UNL     1      34.445 -18.769 -22.960  0.00  0.00    +0.210 C 
ATOM     25  C   UNL     1      35.264 -16.896 -20.924  0.00  0.00    +0.177 C 
ATOM     26  C   UNL     1      34.696 -19.129 -21.495  0.00  0.00    +0.318 C 
BRANCH  22  27
ATOM     27  O   UNL     1      34.747 -17.054 -24.632  0.00  0.00    -0.379 OA
ATOM     28  H   UNL     1      34.223 -16.246 -24.508  0.00  0.00    +0.211 HD
ENDBRANCH  22  27
BRANCH  23  29
ATOM     29  O   UNL     1      35.929 -15.330 -22.634  0.00  0.00    -0.379 OA
ATOM     30  H   UNL     1      36.211 -15.388 -23.560  0.00  0.00    +0.211 HD
ENDBRANCH  23  29
BRANCH  24  31
ATOM     31  O   UNL     1      34.866 -19.867 -23.768  0.00  0.00    -0.377 OA
ATOM     32  H   UNL     1      35.331 -19.533 -24.551  0.00  0.00    +0.211 HD
ENDBRANCH  24  31
BRANCH  25  33
ATOM     33  C   UNL     1      34.959 -15.822 -19.884  0.00  0.00    +0.169 C 
BRANCH  33  34
ATOM     34  O   UNL     1      34.297 -14.748 -20.527  0.00  0.00    -0.379 OA
ATOM     35  H   UNL     1      33.768 -15.090 -21.263  0.00  0.00    +0.211 HD
ENDBRANCH  33  34
ENDBRANCH  25  33
ENDBRANCH  20  26
ENDBRANCH   3  20
TORSDOF 9
ENDMDL
MODEL 7
REMARK VINA RESULT:      -9.7      5.197     12.826
REMARK  Name = 107971
REMARK  9 active torsions:
REMARK  status: ('A' for Active; 'I' for Inactive)
REMARK    1  A    between atoms: C_3  and  O_20
REMARK    2  A    between atoms: C_10  and  C_12
REMARK    3  A    between atoms: C_17  and  O_18
REMARK    4  A    between atoms: O_20  and  C_26
REMARK    5  A    between atoms: C_22  and  O_27
REMARK    6  A    between atoms: C_23  and  O_29
REMARK    7  A    between atoms: C_24  and  O_31
REMARK    8  A    between atoms: C_25  and  C_33
REMARK    9  A    between atoms: C_33  and  O_34
REMARK                            x       y       z     vdW  Elec       q    Type
REMARK                         _______ _______ _______ _____ _____    ______ ____
ROOT
ATOM      1  O   UNL     1      34.930 -15.214 -20.774  0.00  0.00    -0.450 OA
ATOM      2  O   UNL     1      34.469 -18.405 -23.274  0.00  0.00    -0.286 OA
ATOM      3  C   UNL     1      34.190 -13.432 -23.864  0.00  0.00    +0.144 C 
ATOM      4  C   UNL     1      34.491 -13.696 -22.528  0.00  0.00    +0.075 C 
ATOM      5  C   UNL     1      34.032 -14.483 -24.767  0.00  0.00    +0.037 C 
ATOM      6  C   UNL     1      34.634 -15.015 -22.097  0.00  0.00    +0.151 C 
ATOM      7  C   UNL     1      34.476 -16.066 -23.000  0.00  0.00    +0.074 C 
ATOM      8  C   UNL     1      34.175 -15.804 -24.339  0.00  0.00    +0.009 C 
ATOM      9  C   UNL     1      34.629 -17.452 -22.521  0.00  0.00    +0.202 C 
ATOM     10  C   UNL     1      34.969 -17.622 -21.082  0.00  0.00    +0.077 C 
ATOM     11  C   UNL     1      35.090 -16.509 -20.343  0.00  0.00    +0.183 C 
ENDROOT
BRANCH  10  12
ATOM     12  C   UNL     1      35.187 -18.950 -20.484  0.00  0.00    +0.006 C 
ATOM     13  C   UNL     1      36.482 -19.383 -20.190  0.00  0.00    +0.003 C 
ATOM     14  C   UNL     1      34.098 -19.781 -20.208  0.00  0.00    +0.003 C 
ATOM     15  C   UNL     1      36.686 -20.641 -19.623  0.00  0.00    +0.037 C 
ATOM     16  C   UNL     1      34.303 -21.039 -19.643  0.00  0.00    +0.037 C 
ATOM     17  C   UNL     1      35.597 -21.470 -19.350  0.00  0.00    +0.134 C 
BRANCH  17  18
ATOM     18  O   UNL     1      35.798 -22.697 -18.797  0.00  0.00    -0.506 OA
ATOM     19  H   UNL     1      35.198 -23.394 -18.977  0.00  0.00    +0.292 HD
ENDBRANCH  17  18
ENDBRANCH  10  12
BRANCH   3  20
ATOM     20  O   UNL     1      34.051 -12.144 -24.289  0.00  0.00    -0.450 OA
BRANCH  20  26
ATOM     21  O   UNL     1      32.560 -11.228 -22.746  0.00  0.00    -0.316 OA
ATOM     22  C   UNL     1      33.817  -8.652 -22.931  0.00  0.00    +0.173 C 
ATOM     23  C   UNL     1      32.456  -8.854 -22.264  0.00  0.00    +0.169 C 
ATOM     24  C   UNL     1      34.126  -9.783 -23.911  0.00  0.00    +0.210 C 
ATOM     25  C   UNL     1      32.330 -10.275 -21.707  0.00  0.00    +0.177 C 
ATOM     26  C   UNL     1      33.881 -11.152 -23.276  0.00  0.00    +0.318 C 
BRANCH  22  27
ATOM     27  O   UNL     1      33.783  -7.409 -23.635  0.00  0.00    -0.379 OA
ATOM     28  H   UNL     1      33.073  -6.854 -23.277  0.00  0.00    +0.211 HD
ENDBRANCH  22  27
BRANCH  23  29
ATOM     29  O   UNL     1      32.309  -7.916 -21.200  0.00  0.00    -0.379 OA
ATOM     30  H   UNL     1      32.286  -8.389 -20.354  0.00  0.00    +0.211 HD
ENDBRANCH  23  29
BRANCH  24  31
ATOM     31  O   UNL     1      35.496  -9.710 -24.302  0.00  0.00    -0.377 OA
ATOM     32  H   UNL     1      36.054  -9.643 -23.511  0.00  0.00    +0.211 HD
ENDBRANCH  24  31
BRANCH  25  33
ATOM     33  C   UNL     1      30.939 -10.537 -21.139  0.00  0.00    +0.169 C 
BRANCH  33  34
ATOM     34  O   UNL     1      30.919 -10.121 -19.786  0.00  0.00    -0.379 OA
ATOM     35  H   UNL     1      31.492  -9.346 -19.678  0.00  0.00    +0.211 HD
ENDBRANCH  33  34
ENDBRANCH  25  33
ENDBRANCH  20  26
ENDBRANCH   3  20
TORSDOF 9
ENDMDL
MODEL 8
REMARK VINA RESULT:      -9.6      3.774      7.313
REMARK  Name = 107971
REMARK  9 active torsions:
REMARK  status: ('A' for Active; 'I' for Inactive)
REMARK    1  A    between atoms: C_3  and  O_20
REMARK    2  A    between atoms: C_10  and  C_12
REMARK    3  A    between atoms: C_17  and  O_18
REMARK    4  A    between atoms: O_20  and  C_26
REMARK    5  A    between atoms: C_22  and  O_27
REMARK    6  A    between atoms: C_23  and  O_29
REMARK    7  A    between atoms: C_24  and  O_31
REMARK    8  A    between atoms: C_25  and  C_33
REMARK    9  A    between atoms: C_33  and  O_34
REMARK                            x       y       z     vdW  Elec       q    Type
REMARK                         _______ _______ _______ _____ _____    ______ ____
ROOT
ATOM      1  O   UNL     1      34.892 -15.184 -20.151  0.00  0.00    -0.450 OA
ATOM      2  O   UNL     1      34.144 -14.603 -24.119  0.00  0.00    -0.286 OA
ATOM      3  C   UNL     1      35.761 -18.494 -21.400  0.00  0.00    +0.144 C 
ATOM      4  C   UNL     1      35.548 -17.420 -20.538  0.00  0.00    +0.075 C 
ATOM      5  C   UNL     1      35.511 -18.357 -22.766  0.00  0.00    +0.037 C 
ATOM      6  C   UNL     1      35.084 -16.206 -21.045  0.00  0.00    +0.151 C 
ATOM      7  C   UNL     1      34.834 -16.068 -22.410  0.00  0.00    +0.074 C 
ATOM      8  C   UNL     1      35.047 -17.144 -23.276  0.00  0.00    +0.009 C 
ATOM      9  C   UNL     1      34.347 -14.775 -22.924  0.00  0.00    +0.202 C 
ATOM     10  C   UNL     1      34.135 -13.699 -21.917  0.00  0.00    +0.077 C 
ATOM     11  C   UNL     1      34.420 -13.990 -20.639  0.00  0.00    +0.183 C 
ENDROOT
BRANCH  10  12
ATOM     12  C   UNL     1      33.616 -12.373 -22.290  0.00  0.00    +0.006 C 
ATOM     13  C   UNL     1      34.167 -11.684 -23.374  0.00  0.00    +0.003 C 
ATOM     14  C   UNL     1      32.571 -11.799 -21.562  0.00  0.00    +0.003 C 
ATOM     15  C   UNL     1      33.674 -10.428 -23.726  0.00  0.00    +0.037 C 
ATOM     16  C   UNL     1      32.080 -10.542 -21.915  0.00  0.00    +0.037 C 
ATOM     17  C   UNL     1      32.631  -9.856 -22.997  0.00  0.00    +0.134 C 
BRANCH  17  18
ATOM     18  O   UNL     1      32.152  -8.630 -23.342  0.00  0.00    -0.506 OA
ATOM     19  H   UNL     1      31.926  -8.450 -24.233  0.00  0.00    +0.292 HD
ENDBRANCH  17  18
ENDBRANCH  10  12
BRANCH   3  20
ATOM     20  O   UNL     1      36.213 -19.683 -20.908  0.00  0.00    -0.450 OA
BRANCH  20  26
ATOM     21  O   UNL     1      36.605 -20.884 -18.947  0.00  0.00    -0.316 OA
ATOM     22  C   UNL     1      33.833 -21.603 -18.730  0.00  0.00    +0.173 C 
ATOM     23  C   UNL     1      34.922 -22.278 -17.897  0.00  0.00    +0.169 C 
ATOM     24  C   UNL     1      34.416 -20.969 -19.993  0.00  0.00    +0.210 C 
ATOM     25  C   UNL     1      36.108 -21.333 -17.685  0.00  0.00    +0.177 C 
ATOM     26  C   UNL     1      35.646 -20.120 -19.672  0.00  0.00    +0.318 C 
BRANCH  22  27
ATOM     27  O   UNL     1      32.876 -22.598 -19.097  0.00  0.00    -0.379 OA
ATOM     28  H   UNL     1      33.242 -23.155 -19.801  0.00  0.00    +0.211 HD
ENDBRANCH  22  27
BRANCH  23  29
ATOM     29  O   UNL     1      34.384 -22.650 -16.631  0.00  0.00    -0.379 OA
ATOM     30  H   UNL     1      33.521 -22.225 -16.509  0.00  0.00    +0.211 HD
ENDBRANCH  23  29
BRANCH  24  31
ATOM     31  O   UNL     1      33.435 -20.125 -20.596  0.00  0.00    -0.377 OA
ATOM     32  H   UNL     1      32.678 -20.031 -19.997  0.00  0.00    +0.211 HD
ENDBRANCH  24  31
BRANCH  25  33
ATOM     33  C   UNL     1      37.256 -22.023 -16.956  0.00  0.00    +0.169 C 
BRANCH  33  34
ATOM     34  O   UNL     1      37.078 -21.842 -15.563  0.00  0.00    -0.379 OA
ATOM     35  H   UNL     1      37.923 -21.588 -15.160  0.00  0.00    +0.211 HD
ENDBRANCH  33  34
ENDBRANCH  25  33
ENDBRANCH  20  26
ENDBRANCH   3  20
TORSDOF 9
ENDMDL
MODEL 9
REMARK VINA RESULT:      -9.6      1.840     10.086
REMARK  Name = 107971
REMARK  9 active torsions:
REMARK  status: ('A' for Active; 'I' for Inactive)
REMARK    1  A    between atoms: C_3  and  O_20
REMARK    2  A    between atoms: C_10  and  C_12
REMARK    3  A    between atoms: C_17  and  O_18
REMARK    4  A    between atoms: O_20  and  C_26
REMARK    5  A    between atoms: C_22  and  O_27
REMARK    6  A    between atoms: C_23  and  O_29
REMARK    7  A    between atoms: C_24  and  O_31
REMARK    8  A    between atoms: C_25  and  C_33
REMARK    9  A    between atoms: C_33  and  O_34
REMARK                            x       y       z     vdW  Elec       q    Type
REMARK                         _______ _______ _______ _____ _____    ______ ____
ROOT
ATOM      1  O   UNL     1      37.430 -21.723 -16.678  0.00  0.00    -0.450 OA
ATOM      2  O   UNL     1      33.675 -23.020 -15.751  0.00  0.00    -0.286 OA
ATOM      3  C   UNL     1      35.754 -20.951 -19.819  0.00  0.00    +0.144 C 
ATOM      4  C   UNL     1      36.739 -21.071 -18.840  0.00  0.00    +0.075 C 
ATOM      5  C   UNL     1      34.454 -21.388 -19.563  0.00  0.00    +0.037 C 
ATOM      6  C   UNL     1      36.422 -21.630 -17.602  0.00  0.00    +0.151 C 
ATOM      7  C   UNL     1      35.122 -22.067 -17.345  0.00  0.00    +0.074 C 
ATOM      8  C   UNL     1      34.134 -21.948 -18.325  0.00  0.00    +0.009 C 
ATOM      9  C   UNL     1      34.809 -22.652 -16.028  0.00  0.00    +0.202 C 
ATOM     10  C   UNL     1      35.938 -22.751 -15.062  0.00  0.00    +0.077 C 
ATOM     11  C   UNL     1      37.131 -22.288 -15.462  0.00  0.00    +0.183 C 
ENDROOT
BRANCH  10  12
ATOM     12  C   UNL     1      35.771 -23.349 -13.727  0.00  0.00    +0.006 C 
ATOM     13  C   UNL     1      34.617 -24.076 -13.423  0.00  0.00    +0.003 C 
ATOM     14  C   UNL     1      36.766 -23.192 -12.760  0.00  0.00    +0.003 C 
ATOM     15  C   UNL     1      34.459 -24.641 -12.159  0.00  0.00    +0.037 C 
ATOM     16  C   UNL     1      36.607 -23.757 -11.494  0.00  0.00    +0.037 C 
ATOM     17  C   UNL     1      35.454 -24.482 -11.193  0.00  0.00    +0.134 C 
BRANCH  17  18
ATOM     18  O   UNL     1      35.300 -25.034  -9.959  0.00  0.00    -0.506 OA
ATOM     19  H   UNL     1      36.041 -25.391  -9.510  0.00  0.00    +0.292 HD
ENDBRANCH  17  18
ENDBRANCH  10  12
BRANCH   3  20
ATOM     20  O   UNL     1      36.061 -20.406 -21.031  0.00  0.00    -0.450 OA
BRANCH  20  26
ATOM     21  O   UNL     1      34.852 -19.610 -22.860  0.00  0.00    -0.316 OA
ATOM     22  C   UNL     1      35.157 -16.891 -21.989  0.00  0.00    +0.173 C 
ATOM     23  C   UNL     1      34.663 -17.252 -23.390  0.00  0.00    +0.169 C 
ATOM     24  C   UNL     1      35.950 -18.040 -21.368  0.00  0.00    +0.210 C 
ATOM     25  C   UNL     1      33.969 -18.617 -23.386  0.00  0.00    +0.177 C 
ATOM     26  C   UNL     1      35.201 -19.367 -21.500  0.00  0.00    +0.318 C 
BRANCH  22  27
ATOM     27  O   UNL     1      35.997 -15.740 -22.100  0.00  0.00    -0.379 OA
ATOM     28  H   UNL     1      36.312 -15.483 -21.219  0.00  0.00    +0.211 HD
ENDBRANCH  22  27
BRANCH  23  29
ATOM     29  O   UNL     1      33.745 -16.258 -23.837  0.00  0.00    -0.379 OA
ATOM     30  H   UNL     1      34.208 -15.620 -24.402  0.00  0.00    +0.211 HD
ENDBRANCH  23  29
BRANCH  24  31
ATOM     31  O   UNL     1      36.155 -17.779 -19.980  0.00  0.00    -0.377 OA
ATOM     32  H   UNL     1      35.535 -17.095 -19.685  0.00  0.00    +0.211 HD
ENDBRANCH  24  31
BRANCH  25  33
ATOM     33  C   UNL     1      33.571 -19.051 -24.793  0.00  0.00    +0.169 C 
BRANCH  33  34
ATOM     34  O   UNL     1      32.437 -18.303 -25.191  0.00  0.00    -0.379 OA
ATOM     35  H   UNL     1      32.522 -18.060 -26.126  0.00  0.00    +0.211 HD
ENDBRANCH  33  34
ENDBRANCH  25  33
ENDBRANCH  20  26
ENDBRANCH   3  20
TORSDOF 9
ENDMDL
