MODEL 1
REMARK VINA RESULT:     -12.2      0.000      0.000
REMARK  Name = 11538455
REMARK  6 active torsions:
REMARK  status: ('A' for Active; 'I' for Inactive)
REMARK    1  A    between atoms: C_4  and  C_19
REMARK    2  A    between atoms: C_12  and  C_15
REMARK    3  A    between atoms: N_14  and  O_17
REMARK    4  A    between atoms: C_19  and  N_20
REMARK    5  A    between atoms: N_20  and  C_23
REMARK    6  A    between atoms: C_23  and  C_25
REMARK                            x       y       z     vdW  Elec       q    Type
REMARK                         _______ _______ _______ _____ _____    ______ ____
ROOT
ATOM      1  N   UNL     1      35.163 -22.095 -17.424  0.00  0.00    -0.253 N 
ATOM      2  N   UNL     1      36.547 -23.027 -15.754  0.00  0.00    -0.203 NA
ATOM      3  N   UNL     1      34.147 -23.117 -15.554  0.00  0.00    -0.180 NA
ATOM      4  C   UNL     1      34.881 -20.831 -20.013  0.00  0.00    -0.018 C 
ATOM      5  C   UNL     1      36.069 -20.528 -19.094  0.00  0.00    +0.020 C 
ATOM      6  C   UNL     1      33.663 -21.209 -19.165  0.00  0.00    +0.020 C 
ATOM      7  C   UNL     1      36.369 -21.699 -18.158  0.00  0.00    +0.101 C 
ATOM      8  C   UNL     1      33.971 -22.381 -18.234  0.00  0.00    +0.101 C 
ATOM      9  C   UNL     1      35.289 -22.770 -16.203  0.00  0.00    +0.090 C 
ATOM     10  C   UNL     1      36.632 -23.675 -14.574  0.00  0.00    +0.170 C 
ATOM     11  C   UNL     1      34.305 -23.762 -14.380  0.00  0.00    +0.113 C 
ATOM     12  C   UNL     1      35.535 -24.072 -13.836  0.00  0.00    +0.078 C 
ENDROOT
BRANCH  12  15
ATOM     13  O   UNL     1      34.948 -24.467 -11.597  0.00  0.00    -0.268 OA
ATOM     14  N   UNL     1      36.627 -25.769 -12.491  0.00  0.00    -0.194 N 
ATOM     15  C   UNL     1      35.666 -24.769 -12.572  0.00  0.00    +0.267 C 
ATOM     16  H   UNL     1      37.191 -26.005 -13.264  0.00  0.00    +0.183 HD
BRANCH  14  17
ATOM     17  O   UNL     1      36.756 -26.430 -11.261  0.00  0.00    -0.295 OA
ATOM     18  H   UNL     1      36.823 -27.386 -11.412  0.00  0.00    +0.241 HD
ENDBRANCH  14  17
ENDBRANCH  12  15
BRANCH   4  19
ATOM     19  C   UNL     1      34.569 -19.635 -20.910  0.00  0.00    -0.081 C 
BRANCH  19  20
ATOM     20  N   UNL     1      35.476 -18.531 -20.637  0.00  0.00    +0.386 N 
ATOM     21  H   UNL     1      36.177 -18.835 -19.960  0.00  0.00    -0.084 HD
ATOM     22  H   UNL     1      34.936 -17.750 -20.266  0.00  0.00    -0.084 HD
BRANCH  20  23
ATOM     23  C   UNL     1      36.149 -18.094 -21.854  0.00  0.00    -0.053 C 
BRANCH  23  25
ATOM     24  N   UNL     1      34.324 -15.818 -24.051  0.00  0.00    -0.284 N 
ATOM     25  C   UNL     1      35.369 -16.995 -22.522  0.00  0.00    -0.028 C 
ATOM     26  C   UNL     1      34.887 -15.833 -21.893  0.00  0.00    +0.009 C 
ATOM     27  C   UNL     1      35.020 -16.977 -23.837  0.00  0.00    +0.059 C 
ATOM     28  C   UNL     1      34.227 -15.100 -22.881  0.00  0.00    +0.051 C 
ATOM     29  C   UNL     1      34.936 -15.315 -20.584  0.00  0.00    +0.001 C 
ATOM     30  C   UNL     1      33.612 -13.869 -22.625  0.00  0.00    +0.015 C 
ATOM     31  C   UNL     1      33.774 -15.421 -25.330  0.00  0.00    +0.117 C 
ATOM     32  C   UNL     1      34.325 -14.085 -20.311  0.00  0.00    +0.000 C 
ATOM     33  C   UNL     1      33.673 -13.375 -21.318  0.00  0.00    +0.001 C 
ENDBRANCH  23  25
ENDBRANCH  20  23
ENDBRANCH  19  20
ENDBRANCH   4  19
TORSDOF 6
ENDMDL
MODEL 2
REMARK VINA RESULT:     -12.2      0.725      1.915
REMARK  Name = 11538455
REMARK  6 active torsions:
REMARK  status: ('A' for Active; 'I' for Inactive)
REMARK    1  A    between atoms: C_4  and  C_19
REMARK    2  A    between atoms: C_12  and  C_15
REMARK    3  A    between atoms: N_14  and  O_17
REMARK    4  A    between atoms: C_19  and  N_20
REMARK    5  A    between atoms: N_20  and  C_23
REMARK    6  A    between atoms: C_23  and  C_25
REMARK                            x       y       z     vdW  Elec       q    Type
REMARK                         _______ _______ _______ _____ _____    ______ ____
ROOT
ATOM      1  N   UNL     1      35.234 -22.111 -17.421  0.00  0.00    -0.253 N 
ATOM      2  N   UNL     1      36.578 -23.018 -15.705  0.00  0.00    -0.203 NA
ATOM      3  N   UNL     1      34.174 -23.071 -15.543  0.00  0.00    -0.180 NA
ATOM      4  C   UNL     1      35.012 -20.910 -20.046  0.00  0.00    -0.018 C 
ATOM      5  C   UNL     1      36.188 -20.600 -19.115  0.00  0.00    +0.020 C 
ATOM      6  C   UNL     1      33.774 -21.250 -19.209  0.00  0.00    +0.020 C 
ATOM      7  C   UNL     1      36.457 -21.750 -18.145  0.00  0.00    +0.101 C 
ATOM      8  C   UNL     1      34.052 -22.401 -18.244  0.00  0.00    +0.101 C 
ATOM      9  C   UNL     1      35.331 -22.755 -16.182  0.00  0.00    +0.090 C 
ATOM     10  C   UNL     1      36.635 -23.637 -14.508  0.00  0.00    +0.170 C 
ATOM     11  C   UNL     1      34.304 -23.688 -14.351  0.00  0.00    +0.113 C 
ATOM     12  C   UNL     1      35.521 -24.000 -13.779  0.00  0.00    +0.078 C 
ENDROOT
BRANCH  12  15
ATOM     13  O   UNL     1      34.877 -24.345 -11.547  0.00  0.00    -0.268 OA
ATOM     14  N   UNL     1      36.585 -25.659 -12.365  0.00  0.00    -0.194 N 
ATOM     15  C   UNL     1      35.622 -24.665 -12.495  0.00  0.00    +0.267 C 
ATOM     16  H   UNL     1      37.170 -25.909 -13.117  0.00  0.00    +0.183 HD
BRANCH  14  17
ATOM     17  O   UNL     1      36.685 -26.289 -11.116  0.00  0.00    -0.295 OA
ATOM     18  H   UNL     1      37.044 -27.183 -11.233  0.00  0.00    +0.241 HD
ENDBRANCH  14  17
ENDBRANCH  12  15
BRANCH   4  19
ATOM     19  C   UNL     1      34.731 -19.733 -20.978  0.00  0.00    -0.081 C 
BRANCH  19  20
ATOM     20  N   UNL     1      35.932 -18.942 -21.191  0.00  0.00    +0.386 N 
ATOM     21  H   UNL     1      36.746 -19.557 -21.164  0.00  0.00    -0.084 HD
ATOM     22  H   UNL     1      35.993 -18.238 -20.456  0.00  0.00    -0.084 HD
BRANCH  20  23
ATOM     23  C   UNL     1      35.890 -18.264 -22.480  0.00  0.00    -0.053 C 
BRANCH  23  25
ATOM     24  N   UNL     1      34.666 -14.979 -21.457  0.00  0.00    -0.284 N 
ATOM     25  C   UNL     1      35.306 -16.886 -22.334  0.00  0.00    -0.028 C 
ATOM     26  C   UNL     1      34.709 -16.135 -23.364  0.00  0.00    +0.009 C 
ATOM     27  C   UNL     1      35.275 -16.173 -21.176  0.00  0.00    +0.059 C 
ATOM     28  C   UNL     1      34.310 -14.929 -22.785  0.00  0.00    +0.051 C 
ATOM     29  C   UNL     1      34.461 -16.345 -24.734  0.00  0.00    +0.001 C 
ATOM     30  C   UNL     1      33.672 -13.917 -23.513  0.00  0.00    +0.015 C 
ATOM     31  C   UNL     1      34.439 -13.931 -20.485  0.00  0.00    +0.117 C 
ATOM     32  C   UNL     1      33.823 -15.343 -25.475  0.00  0.00    +0.000 C 
ATOM     33  C   UNL     1      33.436 -14.147 -24.871  0.00  0.00    +0.001 C 
ENDBRANCH  23  25
ENDBRANCH  20  23
ENDBRANCH  19  20
ENDBRANCH   4  19
TORSDOF 6
ENDMDL
MODEL 3
REMARK VINA RESULT:     -11.5      2.464      2.825
REMARK  Name = 11538455
REMARK  6 active torsions:
REMARK  status: ('A' for Active; 'I' for Inactive)
REMARK    1  A    between atoms: C_4  and  C_19
REMARK    2  A    between atoms: C_12  and  C_15
REMARK    3  A    between atoms: N_14  and  O_17
REMARK    4  A    between atoms: C_19  and  N_20
REMARK    5  A    between atoms: N_20  and  C_23
REMARK    6  A    between atoms: C_23  and  C_25
REMARK                            x       y       z     vdW  Elec       q    Type
REMARK                         _______ _______ _______ _____ _____    ______ ____
ROOT
ATOM      1  N   UNL     1      33.660 -21.797 -18.317  0.00  0.00    -0.253 N 
ATOM      2  N   UNL     1      33.692 -23.374 -16.561  0.00  0.00    -0.203 NA
ATOM      3  N   UNL     1      31.664 -22.201 -17.124  0.00  0.00    -0.180 NA
ATOM      4  C   UNL     1      35.010 -20.482 -20.515  0.00  0.00    -0.018 C 
ATOM      5  C   UNL     1      35.752 -20.879 -19.235  0.00  0.00    +0.020 C 
ATOM      6  C   UNL     1      33.541 -20.196 -20.185  0.00  0.00    +0.020 C 
ATOM      7  C   UNL     1      35.084 -22.066 -18.542  0.00  0.00    +0.101 C 
ATOM      8  C   UNL     1      32.881 -21.388 -19.493  0.00  0.00    +0.101 C 
ATOM      9  C   UNL     1      32.982 -22.480 -17.300  0.00  0.00    +0.090 C 
ATOM     10  C   UNL     1      33.009 -24.012 -15.588  0.00  0.00    +0.170 C 
ATOM     11  C   UNL     1      31.042 -22.875 -16.134  0.00  0.00    +0.113 C 
ATOM     12  C   UNL     1      31.670 -23.802 -15.327  0.00  0.00    +0.078 C 
ENDROOT
BRANCH  12  15
ATOM     13  O   UNL     1      30.305 -25.534 -14.521  0.00  0.00    -0.268 OA
ATOM     14  N   UNL     1      31.056 -23.986 -12.988  0.00  0.00    -0.194 N 
ATOM     15  C   UNL     1      30.968 -24.508 -14.273  0.00  0.00    +0.267 C 
ATOM     16  H   UNL     1      31.582 -23.175 -12.796  0.00  0.00    +0.183 HD
BRANCH  14  17
ATOM     17  O   UNL     1      30.364 -24.667 -11.976  0.00  0.00    -0.295 OA
ATOM     18  H   UNL     1      30.911 -24.700 -11.176  0.00  0.00    +0.241 HD
ENDBRANCH  14  17
ENDBRANCH  12  15
BRANCH   4  19
ATOM     19  C   UNL     1      35.666 -19.270 -21.171  0.00  0.00    -0.081 C 
BRANCH  19  20
ATOM     20  N   UNL     1      34.847 -18.763 -22.262  0.00  0.00    +0.386 N 
ATOM     21  H   UNL     1      34.075 -18.219 -21.875  0.00  0.00    -0.084 HD
ATOM     22  H   UNL     1      34.493 -19.556 -22.797  0.00  0.00    -0.084 HD
BRANCH  20  23
ATOM     23  C   UNL     1      35.629 -17.914 -23.152  0.00  0.00    -0.053 C 
BRANCH  23  25
ATOM     24  N   UNL     1      33.946 -14.883 -24.296  0.00  0.00    -0.284 N 
ATOM     25  C   UNL     1      34.950 -16.587 -23.347  0.00  0.00    -0.028 C 
ATOM     26  C   UNL     1      34.684 -15.646 -22.335  0.00  0.00    +0.009 C 
ATOM     27  C   UNL     1      34.496 -16.113 -24.538  0.00  0.00    +0.059 C 
ATOM     28  C   UNL     1      34.047 -14.572 -22.959  0.00  0.00    +0.051 C 
ATOM     29  C   UNL     1      34.915 -15.584 -20.947  0.00  0.00    +0.001 C 
ATOM     30  C   UNL     1      33.627 -13.433 -22.262  0.00  0.00    +0.015 C 
ATOM     31  C   UNL     1      33.347 -14.043 -25.312  0.00  0.00    +0.117 C 
ATOM     32  C   UNL     1      34.501 -14.451 -20.235  0.00  0.00    +0.000 C 
ATOM     33  C   UNL     1      33.866 -13.393 -20.885  0.00  0.00    +0.001 C 
ENDBRANCH  23  25
ENDBRANCH  20  23
ENDBRANCH  19  20
ENDBRANCH   4  19
TORSDOF 6
ENDMDL
MODEL 4
REMARK VINA RESULT:     -11.3      2.518      3.410
REMARK  Name = 11538455
REMARK  6 active torsions:
REMARK  status: ('A' for Active; 'I' for Inactive)
REMARK    1  A    between atoms: C_4  and  C_19
REMARK    2  A    between atoms: C_12  and  C_15
REMARK    3  A    between atoms: N_14  and  O_17
REMARK    4  A    between atoms: C_19  and  N_20
REMARK    5  A    between atoms: N_20  and  C_23
REMARK    6  A    between atoms: C_23  and  C_25
REMARK                            x       y       z     vdW  Elec       q    Type
REMARK                         _______ _______ _______ _____ _____    ______ ____
ROOT
ATOM      1  N   UNL     1      33.810 -21.737 -18.341  0.00  0.00    -0.253 N 
ATOM      2  N   UNL     1      33.791 -23.332 -16.602  0.00  0.00    -0.203 NA
ATOM      3  N   UNL     1      31.783 -22.143 -17.202  0.00  0.00    -0.180 NA
ATOM      4  C   UNL     1      35.218 -20.405 -20.492  0.00  0.00    -0.018 C 
ATOM      5  C   UNL     1      35.928 -20.819 -19.199  0.00  0.00    +0.020 C 
ATOM      6  C   UNL     1      33.744 -20.116 -20.195  0.00  0.00    +0.020 C 
ATOM      7  C   UNL     1      35.238 -22.010 -18.534  0.00  0.00    +0.101 C 
ATOM      8  C   UNL     1      33.061 -21.311 -19.532  0.00  0.00    +0.101 C 
ATOM      9  C   UNL     1      33.103 -22.427 -17.349  0.00  0.00    +0.090 C 
ATOM     10  C   UNL     1      33.081 -23.977 -15.653  0.00  0.00    +0.170 C 
ATOM     11  C   UNL     1      31.134 -22.824 -16.235  0.00  0.00    +0.113 C 
ATOM     12  C   UNL     1      31.738 -23.762 -15.422  0.00  0.00    +0.078 C 
ENDROOT
BRANCH  12  15
ATOM     13  O   UNL     1      30.324 -25.481 -14.673  0.00  0.00    -0.268 OA
ATOM     14  N   UNL     1      31.090 -23.985 -13.096  0.00  0.00    -0.194 N 
ATOM     15  C   UNL     1      31.007 -24.476 -14.393  0.00  0.00    +0.267 C 
ATOM     16  H   UNL     1      31.632 -23.191 -12.880  0.00  0.00    +0.183 HD
BRANCH  14  17
ATOM     17  O   UNL     1      30.371 -24.673 -12.108  0.00  0.00    -0.295 OA
ATOM     18  H   UNL     1      30.533 -24.263 -11.244  0.00  0.00    +0.241 HD
ENDBRANCH  14  17
ENDBRANCH  12  15
BRANCH   4  19
ATOM     19  C   UNL     1      35.896 -19.189 -21.119  0.00  0.00    -0.081 C 
BRANCH  19  20
ATOM     20  N   UNL     1      34.967 -18.075 -21.225  0.00  0.00    +0.386 N 
ATOM     21  H   UNL     1      34.225 -18.192 -20.534  0.00  0.00    -0.084 HD
ATOM     22  H   UNL     1      34.578 -18.063 -22.168  0.00  0.00    -0.084 HD
BRANCH  20  23
ATOM     23  C   UNL     1      35.644 -16.806 -20.987  0.00  0.00    -0.053 C 
BRANCH  23  25
ATOM     24  N   UNL     1      33.599 -13.830 -21.531  0.00  0.00    -0.284 N 
ATOM     25  C   UNL     1      34.809 -15.660 -21.487  0.00  0.00    -0.028 C 
ATOM     26  C   UNL     1      34.443 -15.436 -22.827  0.00  0.00    +0.009 C 
ATOM     27  C   UNL     1      34.290 -14.675 -20.705  0.00  0.00    +0.059 C 
ATOM     28  C   UNL     1      33.675 -14.270 -22.832  0.00  0.00    +0.051 C 
ATOM     29  C   UNL     1      34.679 -16.099 -24.048  0.00  0.00    +0.001 C 
ATOM     30  C   UNL     1      33.129 -13.730 -24.003  0.00  0.00    +0.015 C 
ATOM     31  C   UNL     1      32.896 -12.646 -21.083  0.00  0.00    +0.117 C 
ATOM     32  C   UNL     1      34.139 -15.571 -25.228  0.00  0.00    +0.000 C 
ATOM     33  C   UNL     1      33.376 -14.404 -25.203  0.00  0.00    +0.001 C 
ENDBRANCH  23  25
ENDBRANCH  20  23
ENDBRANCH  19  20
ENDBRANCH   4  19
TORSDOF 6
ENDMDL
MODEL 5
REMARK VINA RESULT:     -10.9      5.517     11.418
REMARK  Name = 11538455
REMARK  6 active torsions:
REMARK  status: ('A' for Active; 'I' for Inactive)
REMARK    1  A    between atoms: C_4  and  C_19
REMARK    2  A    between atoms: C_12  and  C_15
REMARK    3  A    between atoms: N_14  and  O_17
REMARK    4  A    between atoms: C_19  and  N_20
REMARK    5  A    between atoms: N_20  and  C_23
REMARK    6  A    between atoms: C_23  and  C_25
REMARK                            x       y       z     vdW  Elec       q    Type
REMARK                         _______ _______ _______ _____ _____    ______ ____
ROOT
ATOM      1  N   UNL     1      34.467 -14.994 -21.781  0.00  0.00    -0.253 N 
ATOM      2  N   UNL     1      34.022 -13.032 -23.016  0.00  0.00    -0.203 NA
ATOM      3  N   UNL     1      33.156 -13.303 -20.784  0.00  0.00    -0.180 NA
ATOM      4  C   UNL     1      35.830 -17.537 -21.541  0.00  0.00    -0.018 C 
ATOM      5  C   UNL     1      35.308 -17.027 -22.888  0.00  0.00    +0.020 C 
ATOM      6  C   UNL     1      34.956 -16.982 -20.412  0.00  0.00    +0.020 C 
ATOM      7  C   UNL     1      35.236 -15.500 -22.922  0.00  0.00    +0.101 C 
ATOM      8  C   UNL     1      34.891 -15.456 -20.453  0.00  0.00    +0.101 C 
ATOM      9  C   UNL     1      33.862 -13.734 -21.862  0.00  0.00    +0.090 C 
ATOM     10  C   UNL     1      33.424 -11.824 -23.061  0.00  0.00    +0.170 C 
ATOM     11  C   UNL     1      32.584 -12.086 -20.897  0.00  0.00    +0.113 C 
ATOM     12  C   UNL     1      32.686 -11.294 -22.023  0.00  0.00    +0.078 C 
ENDROOT
BRANCH  12  15
ATOM     13  O   UNL     1      31.183  -9.646 -21.287  0.00  0.00    -0.268 OA
ATOM     14  N   UNL     1      32.462  -9.154 -23.141  0.00  0.00    -0.194 N 
ATOM     15  C   UNL     1      32.058  -9.990 -22.107  0.00  0.00    +0.267 C 
ATOM     16  H   UNL     1      33.154  -9.430 -23.786  0.00  0.00    +0.183 HD
BRANCH  14  17
ATOM     17  O   UNL     1      31.841  -7.899 -23.224  0.00  0.00    -0.295 OA
ATOM     18  H   UNL     1      30.878  -8.015 -23.238  0.00  0.00    +0.241 HD
ENDBRANCH  14  17
ENDBRANCH  12  15
BRANCH   4  19
ATOM     19  C   UNL     1      35.854 -19.063 -21.510  0.00  0.00    -0.081 C 
BRANCH  19  20
ATOM     20  N   UNL     1      35.915 -19.554 -20.142  0.00  0.00    +0.386 N 
ATOM     21  H   UNL     1      35.450 -18.885 -19.527  0.00  0.00    -0.084 HD
ATOM     22  H   UNL     1      36.894 -19.661 -19.878  0.00  0.00    -0.084 HD
BRANCH  20  23
ATOM     23  C   UNL     1      35.257 -20.849 -20.021  0.00  0.00    -0.053 C 
BRANCH  23  25
ATOM     24  N   UNL     1      36.503 -22.074 -16.815  0.00  0.00    -0.284 N 
ATOM     25  C   UNL     1      35.499 -21.439 -18.660  0.00  0.00    -0.028 C 
ATOM     26  C   UNL     1      34.528 -22.058 -17.850  0.00  0.00    +0.009 C 
ATOM     27  C   UNL     1      36.699 -21.453 -18.019  0.00  0.00    +0.059 C 
ATOM     28  C   UNL     1      35.187 -22.453 -16.685  0.00  0.00    +0.051 C 
ATOM     29  C   UNL     1      33.151 -22.329 -17.977  0.00  0.00    +0.001 C 
ATOM     30  C   UNL     1      34.535 -23.111 -15.635  0.00  0.00    +0.015 C 
ATOM     31  C   UNL     1      37.542 -22.290 -15.831  0.00  0.00    +0.117 C 
ATOM     32  C   UNL     1      32.485 -22.986 -16.935  0.00  0.00    +0.000 C 
ATOM     33  C   UNL     1      33.169 -23.369 -15.782  0.00  0.00    +0.001 C 
ENDBRANCH  23  25
ENDBRANCH  20  23
ENDBRANCH  19  20
ENDBRANCH   4  19
TORSDOF 6
ENDMDL
MODEL 6
REMARK VINA RESULT:     -10.7      1.143      2.468
REMARK  Name = 11538455
REMARK  6 active torsions:
REMARK  status: ('A' for Active; 'I' for Inactive)
REMARK    1  A    between atoms: C_4  and  C_19
REMARK    2  A    between atoms: C_12  and  C_15
REMARK    3  A    between atoms: N_14  and  O_17
REMARK    4  A    between atoms: C_19  and  N_20
REMARK    5  A    between atoms: N_20  and  C_23
REMARK    6  A    between atoms: C_23  and  C_25
REMARK                            x       y       z     vdW  Elec       q    Type
REMARK                         _______ _______ _______ _____ _____    ______ ____
ROOT
ATOM      1  N   UNL     1      35.737 -21.981 -17.541  0.00  0.00    -0.253 N 
ATOM      2  N   UNL     1      35.121 -23.315 -15.693  0.00  0.00    -0.203 NA
ATOM      3  N   UNL     1      37.421 -22.687 -16.045  0.00  0.00    -0.180 NA
ATOM      4  C   UNL     1      34.973 -20.405 -19.846  0.00  0.00    -0.018 C 
ATOM      5  C   UNL     1      34.209 -21.671 -19.447  0.00  0.00    +0.020 C 
ATOM      6  C   UNL     1      36.435 -20.530 -19.406  0.00  0.00    +0.020 C 
ATOM      7  C   UNL     1      34.328 -21.953 -17.950  0.00  0.00    +0.101 C 
ATOM      8  C   UNL     1      36.545 -20.810 -17.908  0.00  0.00    +0.101 C 
ATOM      9  C   UNL     1      36.106 -22.684 -16.388  0.00  0.00    +0.090 C 
ATOM     10  C   UNL     1      35.512 -23.985 -14.589  0.00  0.00    +0.170 C 
ATOM     11  C   UNL     1      37.742 -23.375 -14.930  0.00  0.00    +0.113 C 
ATOM     12  C   UNL     1      36.820 -24.050 -14.155  0.00  0.00    +0.078 C 
ENDROOT
BRANCH  12  15
ATOM     13  O   UNL     1      38.149 -24.389 -12.249  0.00  0.00    -0.268 OA
ATOM     14  N   UNL     1      36.482 -25.927 -12.658  0.00  0.00    -0.194 N 
ATOM     15  C   UNL     1      37.203 -24.779 -12.962  0.00  0.00    +0.267 C 
ATOM     16  H   UNL     1      35.734 -26.230 -13.223  0.00  0.00    +0.183 HD
BRANCH  14  17
ATOM     17  O   UNL     1      36.866 -26.634 -11.509  0.00  0.00    -0.295 OA
ATOM     18  H   UNL     1      36.283 -26.394 -10.772  0.00  0.00    +0.241 HD
ENDBRANCH  14  17
ENDBRANCH  12  15
BRANCH   4  19
ATOM     19  C   UNL     1      34.878 -20.163 -21.351  0.00  0.00    -0.081 C 
BRANCH  19  20
ATOM     20  N   UNL     1      35.821 -19.140 -21.773  0.00  0.00    +0.386 N 
ATOM     21  H   UNL     1      36.715 -19.581 -21.995  0.00  0.00    -0.084 HD
ATOM     22  H   UNL     1      35.934 -18.468 -21.014  0.00  0.00    -0.084 HD
BRANCH  20  23
ATOM     23  C   UNL     1      35.334 -18.433 -22.951  0.00  0.00    -0.053 C 
BRANCH  23  25
ATOM     24  N   UNL     1      34.776 -15.132 -21.492  0.00  0.00    -0.284 N 
ATOM     25  C   UNL     1      35.010 -17.004 -22.613  0.00  0.00    -0.028 C 
ATOM     26  C   UNL     1      34.486 -16.050 -23.504  0.00  0.00    +0.009 C 
ATOM     27  C   UNL     1      35.184 -16.435 -21.389  0.00  0.00    +0.059 C 
ATOM     28  C   UNL     1      34.344 -14.869 -22.772  0.00  0.00    +0.051 C 
ATOM     29  C   UNL     1      34.112 -16.055 -24.862  0.00  0.00    +0.001 C 
ATOM     30  C   UNL     1      33.845 -13.688 -23.332  0.00  0.00    +0.015 C 
ATOM     31  C   UNL     1      34.802 -14.182 -20.401  0.00  0.00    +0.117 C 
ATOM     32  C   UNL     1      33.610 -14.880 -25.437  0.00  0.00    +0.000 C 
ATOM     33  C   UNL     1      33.480 -13.716 -24.681  0.00  0.00    +0.001 C 
ENDBRANCH  23  25
ENDBRANCH  20  23
ENDBRANCH  19  20
ENDBRANCH   4  19
TORSDOF 6
ENDMDL
MODEL 7
REMARK VINA RESULT:     -10.6      1.790      3.197
REMARK  Name = 11538455
REMARK  6 active torsions:
REMARK  status: ('A' for Active; 'I' for Inactive)
REMARK    1  A    between atoms: C_4  and  C_19
REMARK    2  A    between atoms: C_12  and  C_15
REMARK    3  A    between atoms: N_14  and  O_17
REMARK    4  A    between atoms: C_19  and  N_20
REMARK    5  A    between atoms: N_20  and  C_23
REMARK    6  A    between atoms: C_23  and  C_25
REMARK                            x       y       z     vdW  Elec       q    Type
REMARK                         _______ _______ _______ _____ _____    ______ ____
ROOT
ATOM      1  N   UNL     1      35.620 -20.157 -19.927  0.00  0.00    -0.253 N 
ATOM      2  N   UNL     1      36.791 -20.927 -18.027  0.00  0.00    -0.203 NA
ATOM      3  N   UNL     1      34.526 -21.636 -18.447  0.00  0.00    -0.180 NA
ATOM      4  C   UNL     1      35.596 -18.673 -22.413  0.00  0.00    -0.018 C 
ATOM      5  C   UNL     1      36.416 -18.208 -21.205  0.00  0.00    +0.020 C 
ATOM      6  C   UNL     1      34.368 -19.451 -21.928  0.00  0.00    +0.020 C 
ATOM      7  C   UNL     1      36.805 -19.380 -20.304  0.00  0.00    +0.101 C 
ATOM      8  C   UNL     1      34.767 -20.621 -21.030  0.00  0.00    +0.101 C 
ATOM      9  C   UNL     1      35.646 -20.933 -18.762  0.00  0.00    +0.090 C 
ATOM     10  C   UNL     1      36.781 -21.683 -16.910  0.00  0.00    +0.170 C 
ATOM     11  C   UNL     1      34.586 -22.371 -17.317  0.00  0.00    +0.113 C 
ATOM     12  C   UNL     1      35.697 -22.433 -16.502  0.00  0.00    +0.078 C 
ENDROOT
BRANCH  12  15
ATOM     13  O   UNL     1      36.222 -24.379 -15.296  0.00  0.00    -0.268 OA
ATOM     14  N   UNL     1      35.163 -22.683 -14.150  0.00  0.00    -0.194 N 
ATOM     15  C   UNL     1      35.724 -23.236 -15.295  0.00  0.00    +0.267 C 
ATOM     16  H   UNL     1      34.772 -21.779 -14.153  0.00  0.00    +0.183 HD
BRANCH  14  17
ATOM     17  O   UNL     1      35.181 -23.470 -12.989  0.00  0.00    -0.295 OA
ATOM     18  H   UNL     1      34.402 -23.268 -12.449  0.00  0.00    +0.241 HD
ENDBRANCH  14  17
ENDBRANCH  12  15
BRANCH   4  19
ATOM     19  C   UNL     1      35.180 -17.485 -23.277  0.00  0.00    -0.081 C 
BRANCH  19  20
ATOM     20  N   UNL     1      35.748 -16.247 -22.766  0.00  0.00    +0.386 N 
ATOM     21  H   UNL     1      35.865 -15.590 -23.538  0.00  0.00    -0.084 HD
ATOM     22  H   UNL     1      36.648 -16.455 -22.335  0.00  0.00    -0.084 HD
BRANCH  20  23
ATOM     23  C   UNL     1      34.878 -15.650 -21.760  0.00  0.00    -0.053 C 
BRANCH  23  25
ATOM     24  N   UNL     1      33.804 -12.670 -23.576  0.00  0.00    -0.284 N 
ATOM     25  C   UNL     1      34.287 -14.365 -22.269  0.00  0.00    -0.028 C 
ATOM     26  C   UNL     1      33.410 -13.527 -21.555  0.00  0.00    +0.009 C 
ATOM     27  C   UNL     1      34.520 -13.834 -23.500  0.00  0.00    +0.059 C 
ATOM     28  C   UNL     1      33.117 -12.457 -22.403  0.00  0.00    +0.051 C 
ATOM     29  C   UNL     1      32.828 -13.556 -20.273  0.00  0.00    +0.001 C 
ATOM     30  C   UNL     1      32.266 -11.410 -22.031  0.00  0.00    +0.015 C 
ATOM     31  C   UNL     1      33.782 -11.801 -24.733  0.00  0.00    +0.117 C 
ATOM     32  C   UNL     1      31.974 -12.515 -19.886  0.00  0.00    +0.000 C 
ATOM     33  C   UNL     1      31.699 -11.459 -20.754  0.00  0.00    +0.001 C 
ENDBRANCH  23  25
ENDBRANCH  20  23
ENDBRANCH  19  20
ENDBRANCH   4  19
TORSDOF 6
ENDMDL
MODEL 8
REMARK VINA RESULT:     -10.6      3.249      6.109
REMARK  Name = 11538455
REMARK  6 active torsions:
REMARK  status: ('A' for Active; 'I' for Inactive)
REMARK    1  A    between atoms: C_4  and  C_19
REMARK    2  A    between atoms: C_12  and  C_15
REMARK    3  A    between atoms: N_14  and  O_17
REMARK    4  A    between atoms: C_19  and  N_20
REMARK    5  A    between atoms: N_20  and  C_23
REMARK    6  A    between atoms: C_23  and  C_25
REMARK                            x       y       z     vdW  Elec       q    Type
REMARK                         _______ _______ _______ _____ _____    ______ ____
ROOT
ATOM      1  N   UNL     1      34.902 -17.997 -22.559  0.00  0.00    -0.253 N 
ATOM      2  N   UNL     1      36.254 -18.732 -20.769  0.00  0.00    -0.203 NA
ATOM      3  N   UNL     1      34.209 -19.883 -21.319  0.00  0.00    -0.180 NA
ATOM      4  C   UNL     1      34.489 -16.225 -24.811  0.00  0.00    -0.018 C 
ATOM      5  C   UNL     1      35.200 -15.757 -23.537  0.00  0.00    +0.020 C 
ATOM      6  C   UNL     1      33.485 -17.328 -24.460  0.00  0.00    +0.020 C 
ATOM      7  C   UNL     1      35.867 -16.921 -22.805  0.00  0.00    +0.101 C 
ATOM      8  C   UNL     1      34.160 -18.487 -23.729  0.00  0.00    +0.101 C 
ATOM      9  C   UNL     1      35.129 -18.902 -21.514  0.00  0.00    +0.090 C 
ATOM     10  C   UNL     1      36.440 -19.619 -19.770  0.00  0.00    +0.170 C 
ATOM     11  C   UNL     1      34.458 -20.735 -20.303  0.00  0.00    +0.113 C 
ATOM     12  C   UNL     1      35.568 -20.651 -19.488  0.00  0.00    +0.078 C 
ENDROOT
BRANCH  12  15
ATOM     13  O   UNL     1      35.111 -22.618 -18.290  0.00  0.00    -0.268 OA
ATOM     14  N   UNL     1      36.814 -21.278 -17.504  0.00  0.00    -0.194 N 
ATOM     15  C   UNL     1      35.802 -21.586 -18.405  0.00  0.00    +0.267 C 
ATOM     16  H   UNL     1      37.358 -20.462 -17.600  0.00  0.00    +0.183 HD
BRANCH  14  17
ATOM     17  O   UNL     1      37.026 -22.181 -16.452  0.00  0.00    -0.295 OA
ATOM     18  H   UNL     1      37.174 -23.069 -16.813  0.00  0.00    +0.241 HD
ENDBRANCH  14  17
ENDBRANCH  12  15
BRANCH   4  19
ATOM     19  C   UNL     1      33.793 -15.058 -25.506  0.00  0.00    -0.081 C 
BRANCH  19  20
ATOM     20  N   UNL     1      33.296 -14.096 -24.534  0.00  0.00    +0.386 N 
ATOM     21  H   UNL     1      33.444 -14.466 -23.594  0.00  0.00    -0.084 HD
ATOM     22  H   UNL     1      32.302 -13.944 -24.706  0.00  0.00    -0.084 HD
BRANCH  20  23
ATOM     23  C   UNL     1      33.990 -12.820 -24.659  0.00  0.00    -0.053 C 
BRANCH  23  25
ATOM     24  N   UNL     1      32.783  -9.924 -22.792  0.00  0.00    -0.284 N 
ATOM     25  C   UNL     1      33.434 -11.820 -23.684  0.00  0.00    -0.028 C 
ATOM     26  C   UNL     1      32.932 -12.115 -22.403  0.00  0.00    +0.009 C 
ATOM     27  C   UNL     1      33.338 -10.482 -23.912  0.00  0.00    +0.059 C 
ATOM     28  C   UNL     1      32.525 -10.897 -21.854  0.00  0.00    +0.051 C 
ATOM     29  C   UNL     1      32.776 -13.289 -21.640  0.00  0.00    +0.001 C 
ATOM     30  C   UNL     1      31.968 -10.794 -20.574  0.00  0.00    +0.015 C 
ATOM     31  C   UNL     1      32.512  -8.511 -22.634  0.00  0.00    +0.117 C 
ATOM     32  C   UNL     1      32.221 -13.202 -20.358  0.00  0.00    +0.000 C 
ATOM     33  C   UNL     1      31.823 -11.972 -19.835  0.00  0.00    +0.001 C 
ENDBRANCH  23  25
ENDBRANCH  20  23
ENDBRANCH  19  20
ENDBRANCH   4  19
TORSDOF 6
ENDMDL
MODEL 9
REMARK VINA RESULT:     -10.5      5.688     11.367
REMARK  Name = 11538455
REMARK  6 active torsions:
REMARK  status: ('A' for Active; 'I' for Inactive)
REMARK    1  A    between atoms: C_4  and  C_19
REMARK    2  A    between atoms: C_12  and  C_15
REMARK    3  A    between atoms: N_14  and  O_17
REMARK    4  A    between atoms: C_19  and  N_20
REMARK    5  A    between atoms: N_20  and  C_23
REMARK    6  A    between atoms: C_23  and  C_25
REMARK                            x       y       z     vdW  Elec       q    Type
REMARK                         _______ _______ _______ _____ _____    ______ ____
ROOT
ATOM      1  N   UNL     1      34.555 -15.162 -21.875  0.00  0.00    -0.253 N 
ATOM      2  N   UNL     1      34.258 -13.249 -23.226  0.00  0.00    -0.203 NA
ATOM      3  N   UNL     1      33.323 -13.345 -21.007  0.00  0.00    -0.180 NA
ATOM      4  C   UNL     1      35.758 -17.762 -21.460  0.00  0.00    -0.018 C 
ATOM      5  C   UNL     1      35.300 -17.298 -22.846  0.00  0.00    +0.020 C 
ATOM      6  C   UNL     1      34.892 -17.096 -20.386  0.00  0.00    +0.020 C 
ATOM      7  C   UNL     1      35.321 -15.775 -22.965  0.00  0.00    +0.101 C 
ATOM      8  C   UNL     1      34.919 -15.573 -20.512  0.00  0.00    +0.101 C 
ATOM      9  C   UNL     1      34.028 -13.875 -22.040  0.00  0.00    +0.090 C 
ATOM     10  C   UNL     1      33.733 -12.013 -23.353  0.00  0.00    +0.170 C 
ATOM     11  C   UNL     1      32.828 -12.105 -21.202  0.00  0.00    +0.113 C 
ATOM     12  C   UNL     1      33.003 -11.384 -22.365  0.00  0.00    +0.078 C 
ENDROOT
BRANCH  12  15
ATOM     13  O   UNL     1      32.700  -9.388 -23.564  0.00  0.00    -0.268 OA
ATOM     14  N   UNL     1      31.664  -9.551 -21.512  0.00  0.00    -0.194 N 
ATOM     15  C   UNL     1      32.456 -10.053 -22.538  0.00  0.00    +0.267 C 
ATOM     16  H   UNL     1      31.473 -10.081 -20.703  0.00  0.00    +0.183 HD
BRANCH  14  17
ATOM     17  O   UNL     1      31.149  -8.258 -21.680  0.00  0.00    -0.295 OA
ATOM     18  H   UNL     1      31.696  -7.772 -22.317  0.00  0.00    +0.241 HD
ENDBRANCH  14  17
ENDBRANCH  12  15
BRANCH   4  19
ATOM     19  C   UNL     1      35.691 -19.283 -21.345  0.00  0.00    -0.081 C 
BRANCH  19  20
ATOM     20  N   UNL     1      35.599 -19.695 -19.953  0.00  0.00    +0.386 N 
ATOM     21  H   UNL     1      34.636 -19.579 -19.634  0.00  0.00    -0.084 HD
ATOM     22  H   UNL     1      36.231 -19.117 -19.400  0.00  0.00    -0.084 HD
BRANCH  20  23
ATOM     23  C   UNL     1      35.988 -21.091 -19.794  0.00  0.00    -0.053 C 
BRANCH  23  25
ATOM     24  N   UNL     1      33.725 -22.581 -17.347  0.00  0.00    -0.284 N 
ATOM     25  C   UNL     1      35.286 -21.704 -18.614  0.00  0.00    -0.028 C 
ATOM     26  C   UNL     1      35.875 -21.991 -17.369  0.00  0.00    +0.009 C 
ATOM     27  C   UNL     1      33.976 -22.068 -18.591  0.00  0.00    +0.059 C 
ATOM     28  C   UNL     1      34.867 -22.547 -16.579  0.00  0.00    +0.051 C 
ATOM     29  C   UNL     1      37.163 -21.840 -16.817  0.00  0.00    +0.001 C 
ATOM     30  C   UNL     1      35.082 -22.961 -15.259  0.00  0.00    +0.015 C 
ATOM     31  C   UNL     1      32.438 -23.086 -16.917  0.00  0.00    +0.117 C 
ATOM     32  C   UNL     1      37.394 -22.249 -15.498  0.00  0.00    +0.000 C 
ATOM     33  C   UNL     1      36.367 -22.802 -14.733  0.00  0.00    +0.001 C 
ENDBRANCH  23  25
ENDBRANCH  20  23
ENDBRANCH  19  20
ENDBRANCH   4  19
TORSDOF 6
ENDMDL
