MODEL 1
REMARK VINA RESULT:     -11.5      0.000      0.000
REMARK  Name = 6914657
REMARK  8 active torsions:
REMARK  status: ('A' for Active; 'I' for Inactive)
REMARK    1  A    between atoms: C_1  and  C_4
REMARK    2  A    between atoms: C_1  and  C_16
REMARK    3  A    between atoms: C_9  and  C_10
REMARK    4  A    between atoms: C_16  and  C_17
REMARK    5  A    between atoms: C_17  and  C_18
REMARK    6  A    between atoms: C_18  and  N_20
REMARK    7  A    between atoms: C_21  and  C_23
REMARK    8  A    between atoms: C_24  and  C_26
REMARK                            x       y       z     vdW  Elec       q    Type
REMARK                         _______ _______ _______ _____ _____    ______ ____
ROOT
ATOM      1  C   UNL     1      32.982 -13.480 -21.251  0.00  0.00    +0.000 C 
ENDROOT
BRANCH   1   4
ATOM      2  O   UNL     1      32.251  -7.777 -18.861  0.00  0.00    -0.270 OA
ATOM      3  N   UNL     1      31.742  -9.454 -20.408  0.00  0.00    -0.276 N 
ATOM      4  C   UNL     1      32.087 -12.262 -21.029  0.00  0.00    +0.003 C 
ATOM      5  C   UNL     1      32.397 -11.161 -22.056  0.00  0.00    +0.022 C 
ATOM      6  C   UNL     1      32.247 -11.720 -19.599  0.00  0.00    +0.022 C 
ATOM      7  C   UNL     1      31.560  -9.911 -21.792  0.00  0.00    +0.094 C 
ATOM      8  C   UNL     1      31.421 -10.453 -19.389  0.00  0.00    +0.094 C 
ATOM      9  C   UNL     1      32.139  -8.173 -20.020  0.00  0.00    +0.249 C 
BRANCH   9  10
ATOM     10  C   UNL     1      32.466  -7.200 -21.070  0.00  0.00    +0.054 C 
ATOM     11  C   UNL     1      33.700  -7.262 -21.718  0.00  0.00    +0.005 C 
ATOM     12  C   UNL     1      31.543  -6.215 -21.420  0.00  0.00    +0.005 C 
ATOM     13  C   UNL     1      34.010  -6.339 -22.715  0.00  0.00    +0.000 C 
ATOM     14  C   UNL     1      31.854  -5.291 -22.418  0.00  0.00    +0.000 C 
ATOM     15  C   UNL     1      33.088  -5.353 -23.066  0.00  0.00    +0.000 C 
ENDBRANCH   9  10
ENDBRANCH   1   4
BRANCH   1  16
ATOM     16  C   UNL     1      33.805 -13.334 -22.528  0.00  0.00    +0.002 C 
BRANCH  16  17
ATOM     17  C   UNL     1      33.797 -14.630 -23.339  0.00  0.00    +0.021 C 
BRANCH  17  18
ATOM     18  C   UNL     1      35.132 -15.357 -23.237  0.00  0.00    +0.090 C 
BRANCH  18  20
ATOM     19  O   UNL     1      34.314 -17.772 -24.613  0.00  0.00    -0.270 OA
ATOM     20  N   UNL     1      34.978 -16.671 -22.675  0.00  0.00    -0.301 N 
ATOM     21  C   UNL     1      34.579 -17.776 -23.415  0.00  0.00    +0.246 C 
ATOM     22  H   UNL     1      35.166 -16.793 -21.717  0.00  0.00    +0.150 HD
BRANCH  21  23
ATOM     23  C   UNL     1      34.503 -19.011 -22.583  0.00  0.00    +0.058 C 
ATOM     24  C   UNL     1      34.367 -18.914 -21.253  0.00  0.00    +0.006 C 
BRANCH  24  26
ATOM     25  N   UNL     1      32.885 -21.597 -19.085  0.00  0.00    -0.242 NA
ATOM     26  C   UNL     1      34.273 -20.063 -20.336  0.00  0.00    +0.019 C 
ATOM     27  C   UNL     1      35.415 -20.694 -19.856  0.00  0.00    +0.003 C 
ATOM     28  C   UNL     1      33.042 -20.549 -19.924  0.00  0.00    +0.099 C 
ATOM     29  C   UNL     1      35.294 -21.776 -18.991  0.00  0.00    +0.021 C 
ATOM     30  C   UNL     1      34.018 -22.185 -18.639  0.00  0.00    +0.099 C 
ENDBRANCH  24  26
ENDBRANCH  21  23
ENDBRANCH  18  20
ENDBRANCH  17  18
ENDBRANCH  16  17
ENDBRANCH   1  16
TORSDOF 8
ENDMDL
MODEL 2
REMARK VINA RESULT:     -11.2      7.357     11.174
REMARK  Name = 6914657
REMARK  8 active torsions:
REMARK  status: ('A' for Active; 'I' for Inactive)
REMARK    1  A    between atoms: C_1  and  C_4
REMARK    2  A    between atoms: C_1  and  C_16
REMARK    3  A    between atoms: C_9  and  C_10
REMARK    4  A    between atoms: C_16  and  C_17
REMARK    5  A    between atoms: C_17  and  C_18
REMARK    6  A    between atoms: C_18  and  N_20
REMARK    7  A    between atoms: C_21  and  C_23
REMARK    8  A    between atoms: C_24  and  C_26
REMARK                            x       y       z     vdW  Elec       q    Type
REMARK                         _______ _______ _______ _____ _____    ______ ____
ROOT
ATOM      1  C   UNL     1      37.000 -21.864 -15.999  0.00  0.00    +0.000 C 
ENDROOT
BRANCH   1   4
ATOM      2  O   UNL     1      32.551 -20.366 -20.088  0.00  0.00    -0.270 OA
ATOM      3  N   UNL     1      34.676 -21.175 -19.545  0.00  0.00    -0.276 N 
ATOM      4  C   UNL     1      36.361 -22.078 -17.369  0.00  0.00    +0.003 C 
ATOM      5  C   UNL     1      36.829 -21.005 -18.365  0.00  0.00    +0.022 C 
ATOM      6  C   UNL     1      34.827 -22.076 -17.262  0.00  0.00    +0.022 C 
ATOM      7  C   UNL     1      36.134 -21.167 -19.715  0.00  0.00    +0.094 C 
ATOM      8  C   UNL     1      34.174 -22.206 -18.637  0.00  0.00    +0.094 C 
ATOM      9  C   UNL     1      33.775 -20.332 -20.199  0.00  0.00    +0.249 C 
BRANCH   9  10
ATOM     10  C   UNL     1      34.316 -19.301 -21.093  0.00  0.00    +0.054 C 
ATOM     11  C   UNL     1      35.024 -18.221 -20.564  0.00  0.00    +0.005 C 
ATOM     12  C   UNL     1      34.121 -19.399 -22.470  0.00  0.00    +0.005 C 
ATOM     13  C   UNL     1      35.538 -17.241 -21.413  0.00  0.00    +0.000 C 
ATOM     14  C   UNL     1      34.635 -18.419 -23.319  0.00  0.00    +0.000 C 
ATOM     15  C   UNL     1      35.343 -17.339 -22.790  0.00  0.00    +0.000 C 
ENDBRANCH   9  10
ENDBRANCH   1   4
BRANCH   1  16
ATOM     16  C   UNL     1      36.286 -22.677 -14.922  0.00  0.00    +0.002 C 
BRANCH  16  17
ATOM     17  C   UNL     1      37.094 -23.917 -14.542  0.00  0.00    +0.021 C 
BRANCH  17  18
ATOM     18  C   UNL     1      36.268 -24.881 -13.700  0.00  0.00    +0.090 C 
BRANCH  18  20
ATOM     19  O   UNL     1      34.422 -23.945 -11.673  0.00  0.00    -0.270 OA
ATOM     20  N   UNL     1      34.859 -24.640 -13.849  0.00  0.00    -0.301 N 
ATOM     21  C   UNL     1      34.048 -24.189 -12.816  0.00  0.00    +0.246 C 
ATOM     22  H   UNL     1      34.449 -24.802 -14.729  0.00  0.00    +0.150 HD
BRANCH  21  23
ATOM     23  C   UNL     1      32.630 -24.023 -13.247  0.00  0.00    +0.058 C 
ATOM     24  C   UNL     1      32.347 -23.766 -14.532  0.00  0.00    +0.006 C 
BRANCH  24  26
ATOM     25  N   UNL     1      29.512 -22.494 -16.641  0.00  0.00    -0.242 NA
ATOM     26  C   UNL     1      30.987 -23.593 -15.070  0.00  0.00    +0.019 C 
ATOM     27  C   UNL     1      29.915 -24.318 -14.561  0.00  0.00    +0.003 C 
ATOM     28  C   UNL     1      30.735 -22.702 -16.101  0.00  0.00    +0.099 C 
ATOM     29  C   UNL     1      28.643 -24.133 -15.089  0.00  0.00    +0.021 C 
ATOM     30  C   UNL     1      28.495 -23.217 -16.119  0.00  0.00    +0.099 C 
ENDBRANCH  24  26
ENDBRANCH  21  23
ENDBRANCH  18  20
ENDBRANCH  17  18
ENDBRANCH  16  17
ENDBRANCH   1  16
TORSDOF 8
ENDMDL
MODEL 3
REMARK VINA RESULT:     -11.2      3.819      7.328
REMARK  Name = 6914657
REMARK  8 active torsions:
REMARK  status: ('A' for Active; 'I' for Inactive)
REMARK    1  A    between atoms: C_1  and  C_4
REMARK    2  A    between atoms: C_1  and  C_16
REMARK    3  A    between atoms: C_9  and  C_10
REMARK    4  A    between atoms: C_16  and  C_17
REMARK    5  A    between atoms: C_17  and  C_18
REMARK    6  A    between atoms: C_18  and  N_20
REMARK    7  A    between atoms: C_21  and  C_23
REMARK    8  A    between atoms: C_24  and  C_26
REMARK                            x       y       z     vdW  Elec       q    Type
REMARK                         _______ _______ _______ _____ _____    ______ ____
ROOT
ATOM      1  C   UNL     1      35.315 -19.189 -20.964  0.00  0.00    +0.000 C 
ENDROOT
BRANCH   1   4
ATOM      2  O   UNL     1      32.734 -15.597 -25.346  0.00  0.00    -0.270 OA
ATOM      3  N   UNL     1      34.490 -16.180 -23.916  0.00  0.00    -0.276 N 
ATOM      4  C   UNL     1      35.495 -18.243 -22.149  0.00  0.00    +0.003 C 
ATOM      5  C   UNL     1      35.380 -16.777 -21.701  0.00  0.00    +0.022 C 
ATOM      6  C   UNL     1      34.468 -18.547 -23.251  0.00  0.00    +0.022 C 
ATOM      7  C   UNL     1      35.482 -15.828 -22.892  0.00  0.00    +0.094 C 
ATOM      8  C   UNL     1      34.583 -17.555 -24.407  0.00  0.00    +0.094 C 
ATOM      9  C   UNL     1      33.538 -15.314 -24.459  0.00  0.00    +0.249 C 
BRANCH   9  10
ATOM     10  C   UNL     1      33.465 -13.946 -23.933  0.00  0.00    +0.054 C 
ATOM     11  C   UNL     1      33.793 -12.865 -24.752  0.00  0.00    +0.005 C 
ATOM     12  C   UNL     1      33.069 -13.725 -22.614  0.00  0.00    +0.005 C 
ATOM     13  C   UNL     1      33.725 -11.565 -24.252  0.00  0.00    +0.000 C 
ATOM     14  C   UNL     1      33.000 -12.425 -22.114  0.00  0.00    +0.000 C 
ATOM     15  C   UNL     1      33.328 -11.345 -22.934  0.00  0.00    +0.000 C 
ENDBRANCH   9  10
ENDBRANCH   1   4
BRANCH   1  16
ATOM     16  C   UNL     1      36.640 -19.432 -20.245  0.00  0.00    +0.002 C 
BRANCH  16  17
ATOM     17  C   UNL     1      36.492 -20.508 -19.169  0.00  0.00    +0.021 C 
BRANCH  17  18
ATOM     18  C   UNL     1      35.471 -21.563 -19.576  0.00  0.00    +0.090 C 
BRANCH  18  20
ATOM     19  O   UNL     1      32.647 -21.957 -19.057  0.00  0.00    -0.270 OA
ATOM     20  N   UNL     1      34.874 -22.192 -18.429  0.00  0.00    -0.301 N 
ATOM     21  C   UNL     1      33.503 -22.337 -18.265  0.00  0.00    +0.246 C 
ATOM     22  H   UNL     1      35.469 -22.537 -17.725  0.00  0.00    +0.150 HD
BRANCH  21  23
ATOM     23  C   UNL     1      33.161 -23.026 -16.987  0.00  0.00    +0.058 C 
ATOM     24  C   UNL     1      31.946 -22.864 -16.443  0.00  0.00    +0.006 C 
BRANCH  24  26
ATOM     25  N   UNL     1      31.883 -23.941 -12.847  0.00  0.00    -0.242 NA
ATOM     26  C   UNL     1      31.498 -23.500 -15.193  0.00  0.00    +0.019 C 
ATOM     27  C   UNL     1      30.320 -24.238 -15.145  0.00  0.00    +0.003 C 
ATOM     28  C   UNL     1      32.236 -23.383 -14.026  0.00  0.00    +0.099 C 
ATOM     29  C   UNL     1      29.923 -24.827 -13.950  0.00  0.00    +0.021 C 
ATOM     30  C   UNL     1      30.732 -24.651 -12.840  0.00  0.00    +0.099 C 
ENDBRANCH  24  26
ENDBRANCH  21  23
ENDBRANCH  18  20
ENDBRANCH  17  18
ENDBRANCH  16  17
ENDBRANCH   1  16
TORSDOF 8
ENDMDL
MODEL 4
REMARK VINA RESULT:     -11.0      3.516      7.100
REMARK  Name = 6914657
REMARK  8 active torsions:
REMARK  status: ('A' for Active; 'I' for Inactive)
REMARK    1  A    between atoms: C_1  and  C_4
REMARK    2  A    between atoms: C_1  and  C_16
REMARK    3  A    between atoms: C_9  and  C_10
REMARK    4  A    between atoms: C_16  and  C_17
REMARK    5  A    between atoms: C_17  and  C_18
REMARK    6  A    between atoms: C_18  and  N_20
REMARK    7  A    between atoms: C_21  and  C_23
REMARK    8  A    between atoms: C_24  and  C_26
REMARK                            x       y       z     vdW  Elec       q    Type
REMARK                         _______ _______ _______ _____ _____    ______ ____
ROOT
ATOM      1  C   UNL     1      34.851 -19.014 -21.371  0.00  0.00    +0.000 C 
ENDROOT
BRANCH   1   4
ATOM      2  O   UNL     1      32.860 -14.798 -25.497  0.00  0.00    -0.270 OA
ATOM      3  N   UNL     1      34.398 -15.590 -23.924  0.00  0.00    -0.276 N 
ATOM      4  C   UNL     1      35.181 -17.897 -22.358  0.00  0.00    +0.003 C 
ATOM      5  C   UNL     1      34.965 -16.517 -21.716  0.00  0.00    +0.022 C 
ATOM      6  C   UNL     1      34.336 -18.030 -23.636  0.00  0.00    +0.022 C 
ATOM      7  C   UNL     1      35.219 -15.396 -22.722  0.00  0.00    +0.094 C 
ATOM      8  C   UNL     1      34.596 -16.872 -24.597  0.00  0.00    +0.094 C 
ATOM      9  C   UNL     1      33.516 -14.652 -24.467  0.00  0.00    +0.249 C 
BRANCH   9  10
ATOM     10  C   UNL     1      33.333 -13.381 -23.757  0.00  0.00    +0.054 C 
ATOM     11  C   UNL     1      32.691 -13.360 -22.518  0.00  0.00    +0.005 C 
ATOM     12  C   UNL     1      33.799 -12.193 -24.319  0.00  0.00    +0.005 C 
ATOM     13  C   UNL     1      32.516 -12.152 -21.843  0.00  0.00    +0.000 C 
ATOM     14  C   UNL     1      33.626 -10.985 -23.644  0.00  0.00    +0.000 C 
ATOM     15  C   UNL     1      32.983 -10.965 -22.406  0.00  0.00    +0.000 C 
ENDBRANCH   9  10
ENDBRANCH   1   4
BRANCH   1  16
ATOM     16  C   UNL     1      36.094 -19.460 -20.605  0.00  0.00    +0.002 C 
BRANCH  16  17
ATOM     17  C   UNL     1      35.772 -20.617 -19.660  0.00  0.00    +0.021 C 
BRANCH  17  18
ATOM     18  C   UNL     1      34.275 -20.901 -19.620  0.00  0.00    +0.090 C 
BRANCH  18  20
ATOM     19  O   UNL     1      34.009 -23.751 -19.172  0.00  0.00    -0.270 OA
ATOM     20  N   UNL     1      33.894 -21.560 -18.400  0.00  0.00    -0.301 N 
ATOM     21  C   UNL     1      33.793 -22.940 -18.278  0.00  0.00    +0.246 C 
ATOM     22  H   UNL     1      33.696 -21.005 -17.612  0.00  0.00    +0.150 HD
BRANCH  21  23
ATOM     23  C   UNL     1      33.381 -23.352 -16.905  0.00  0.00    +0.058 C 
ATOM     24  C   UNL     1      32.132 -23.116 -16.482  0.00  0.00    +0.006 C 
BRANCH  24  26
ATOM     25  N   UNL     1      31.880 -23.450 -12.750  0.00  0.00    -0.242 NA
ATOM     26  C   UNL     1      31.614 -23.487 -15.153  0.00  0.00    +0.019 C 
ATOM     27  C   UNL     1      30.424 -24.193 -15.018  0.00  0.00    +0.003 C 
ATOM     28  C   UNL     1      32.298 -23.141 -13.998  0.00  0.00    +0.099 C 
ATOM     29  C   UNL     1      29.962 -24.529 -13.751  0.00  0.00    +0.021 C 
ATOM     30  C   UNL     1      30.720 -24.138 -12.659  0.00  0.00    +0.099 C 
ENDBRANCH  24  26
ENDBRANCH  21  23
ENDBRANCH  18  20
ENDBRANCH  17  18
ENDBRANCH  16  17
ENDBRANCH   1  16
TORSDOF 8
ENDMDL
MODEL 5
REMARK VINA RESULT:     -11.0      6.542     10.494
REMARK  Name = 6914657
REMARK  8 active torsions:
REMARK  status: ('A' for Active; 'I' for Inactive)
REMARK    1  A    between atoms: C_1  and  C_4
REMARK    2  A    between atoms: C_1  and  C_16
REMARK    3  A    between atoms: C_9  and  C_10
REMARK    4  A    between atoms: C_16  and  C_17
REMARK    5  A    between atoms: C_17  and  C_18
REMARK    6  A    between atoms: C_18  and  N_20
REMARK    7  A    between atoms: C_21  and  C_23
REMARK    8  A    between atoms: C_24  and  C_26
REMARK                            x       y       z     vdW  Elec       q    Type
REMARK                         _______ _______ _______ _____ _____    ______ ____
ROOT
ATOM      1  C   UNL     1      33.820 -22.692 -18.891  0.00  0.00    +0.000 C 
ENDROOT
BRANCH   1   4
ATOM      2  O   UNL     1      37.417 -18.650 -21.971  0.00  0.00    -0.270 OA
ATOM      3  N   UNL     1      35.575 -19.180 -20.631  0.00  0.00    -0.276 N 
ATOM      4  C   UNL     1      34.347 -21.267 -19.043  0.00  0.00    +0.003 C 
ATOM      5  C   UNL     1      33.566 -20.508 -20.128  0.00  0.00    +0.022 C 
ATOM      6  C   UNL     1      35.850 -21.273 -19.372  0.00  0.00    +0.022 C 
ATOM      7  C   UNL     1      34.138 -19.108 -20.340  0.00  0.00    +0.094 C 
ATOM      8  C   UNL     1      36.372 -19.857 -19.609  0.00  0.00    +0.094 C 
ATOM      9  C   UNL     1      36.208 -18.627 -21.747  0.00  0.00    +0.249 C 
BRANCH   9  10
ATOM     10  C   UNL     1      35.375 -17.966 -22.759  0.00  0.00    +0.054 C 
ATOM     11  C   UNL     1      34.591 -18.729 -23.625  0.00  0.00    +0.005 C 
ATOM     12  C   UNL     1      35.367 -16.574 -22.856  0.00  0.00    +0.005 C 
ATOM     13  C   UNL     1      33.800 -18.101 -24.586  0.00  0.00    +0.000 C 
ATOM     14  C   UNL     1      34.575 -15.946 -23.818  0.00  0.00    +0.000 C 
ATOM     15  C   UNL     1      33.792 -16.710 -24.683  0.00  0.00    +0.000 C 
ENDBRANCH   9  10
ENDBRANCH   1   4
BRANCH   1  16
ATOM     16  C   UNL     1      33.622 -23.054 -17.421  0.00  0.00    +0.002 C 
BRANCH  16  17
ATOM     17  C   UNL     1      32.200 -22.731 -16.962  0.00  0.00    +0.021 C 
BRANCH  17  18
ATOM     18  C   UNL     1      31.992 -23.102 -15.498  0.00  0.00    +0.090 C 
BRANCH  18  20
ATOM     19  O   UNL     1      32.390 -23.888 -12.738  0.00  0.00    -0.270 OA
ATOM     20  N   UNL     1      33.216 -23.539 -14.884  0.00  0.00    -0.301 N 
ATOM     21  C   UNL     1      33.313 -23.898 -13.546  0.00  0.00    +0.246 C 
ATOM     22  H   UNL     1      34.026 -23.587 -15.441  0.00  0.00    +0.150 HD
BRANCH  21  23
ATOM     23  C   UNL     1      34.697 -24.313 -13.176  0.00  0.00    +0.058 C 
ATOM     24  C   UNL     1      35.539 -24.754 -14.121  0.00  0.00    +0.006 C 
BRANCH  24  26
ATOM     25  N   UNL     1      38.686 -26.800 -14.230  0.00  0.00    -0.242 NA
ATOM     26  C   UNL     1      36.927 -25.179 -13.872  0.00  0.00    +0.019 C 
ATOM     27  C   UNL     1      37.781 -24.418 -13.081  0.00  0.00    +0.003 C 
ATOM     28  C   UNL     1      37.424 -26.352 -14.419  0.00  0.00    +0.099 C 
ATOM     29  C   UNL     1      39.085 -24.846 -12.863  0.00  0.00    +0.021 C 
ATOM     30  C   UNL     1      39.486 -26.033 -13.454  0.00  0.00    +0.099 C 
ENDBRANCH  24  26
ENDBRANCH  21  23
ENDBRANCH  18  20
ENDBRANCH  17  18
ENDBRANCH  16  17
ENDBRANCH   1  16
TORSDOF 8
ENDMDL
MODEL 6
REMARK VINA RESULT:     -10.9      4.242      8.030
REMARK  Name = 6914657
REMARK  8 active torsions:
REMARK  status: ('A' for Active; 'I' for Inactive)
REMARK    1  A    between atoms: C_1  and  C_4
REMARK    2  A    between atoms: C_1  and  C_16
REMARK    3  A    between atoms: C_9  and  C_10
REMARK    4  A    between atoms: C_16  and  C_17
REMARK    5  A    between atoms: C_17  and  C_18
REMARK    6  A    between atoms: C_18  and  N_20
REMARK    7  A    between atoms: C_21  and  C_23
REMARK    8  A    between atoms: C_24  and  C_26
REMARK                            x       y       z     vdW  Elec       q    Type
REMARK                         _______ _______ _______ _____ _____    ______ ____
ROOT
ATOM      1  C   UNL     1      35.444 -19.117 -20.570  0.00  0.00    +0.000 C 
ENDROOT
BRANCH   1   4
ATOM      2  O   UNL     1      32.737 -16.347 -25.445  0.00  0.00    -0.270 OA
ATOM      3  N   UNL     1      34.546 -16.703 -24.008  0.00  0.00    -0.276 N 
ATOM      4  C   UNL     1      35.588 -18.422 -21.922  0.00  0.00    +0.003 C 
ATOM      5  C   UNL     1      35.530 -16.894 -21.760  0.00  0.00    +0.022 C 
ATOM      6  C   UNL     1      34.500 -18.897 -22.899  0.00  0.00    +0.022 C 
ATOM      7  C   UNL     1      35.596 -16.194 -23.116  0.00  0.00    +0.094 C 
ATOM      8  C   UNL     1      34.582 -18.148 -24.228  0.00  0.00    +0.094 C 
ATOM      9  C   UNL     1      33.589 -15.927 -24.666  0.00  0.00    +0.249 C 
BRANCH   9  10
ATOM     10  C   UNL     1      33.576 -14.481 -24.410  0.00  0.00    +0.054 C 
ATOM     11  C   UNL     1      33.578 -14.004 -23.099  0.00  0.00    +0.005 C 
ATOM     12  C   UNL     1      33.560 -13.584 -25.477  0.00  0.00    +0.005 C 
ATOM     13  C   UNL     1      33.564 -12.631 -22.856  0.00  0.00    +0.000 C 
ATOM     14  C   UNL     1      33.548 -12.210 -25.235  0.00  0.00    +0.000 C 
ATOM     15  C   UNL     1      33.549 -11.734 -23.923  0.00  0.00    +0.000 C 
ENDBRANCH   9  10
ENDBRANCH   1   4
BRANCH   1  16
ATOM     16  C   UNL     1      34.135 -19.898 -20.487  0.00  0.00    +0.002 C 
BRANCH  16  17
ATOM     17  C   UNL     1      34.206 -20.977 -19.407  0.00  0.00    +0.021 C 
BRANCH  17  18
ATOM     18  C   UNL     1      35.648 -21.366 -19.105  0.00  0.00    +0.090 C 
BRANCH  18  20
ATOM     19  O   UNL     1      37.288 -20.682 -16.816  0.00  0.00    -0.270 OA
ATOM     20  N   UNL     1      35.754 -22.083 -17.863  0.00  0.00    -0.301 N 
ATOM     21  C   UNL     1      36.571 -21.678 -16.815  0.00  0.00    +0.246 C 
ATOM     22  H   UNL     1      35.220 -22.901 -17.750  0.00  0.00    +0.150 HD
BRANCH  21  23
ATOM     23  C   UNL     1      36.486 -22.603 -15.649  0.00  0.00    +0.058 C 
ATOM     24  C   UNL     1      37.594 -23.199 -15.186  0.00  0.00    +0.006 C 
BRANCH  24  26
ATOM     25  N   UNL     1      38.471 -26.167 -13.059  0.00  0.00    -0.242 NA
ATOM     26  C   UNL     1      37.630 -24.122 -14.038  0.00  0.00    +0.019 C 
ATOM     27  C   UNL     1      36.900 -23.861 -12.884  0.00  0.00    +0.003 C 
ATOM     28  C   UNL     1      38.394 -25.278 -14.075  0.00  0.00    +0.099 C 
ATOM     29  C   UNL     1      36.954 -24.751 -11.818  0.00  0.00    +0.021 C 
ATOM     30  C   UNL     1      37.747 -25.879 -11.954  0.00  0.00    +0.099 C 
ENDBRANCH  24  26
ENDBRANCH  21  23
ENDBRANCH  18  20
ENDBRANCH  17  18
ENDBRANCH  16  17
ENDBRANCH   1  16
TORSDOF 8
ENDMDL
MODEL 7
REMARK VINA RESULT:     -10.9      6.843     13.078
REMARK  Name = 6914657
REMARK  8 active torsions:
REMARK  status: ('A' for Active; 'I' for Inactive)
REMARK    1  A    between atoms: C_1  and  C_4
REMARK    2  A    between atoms: C_1  and  C_16
REMARK    3  A    between atoms: C_9  and  C_10
REMARK    4  A    between atoms: C_16  and  C_17
REMARK    5  A    between atoms: C_17  and  C_18
REMARK    6  A    between atoms: C_18  and  N_20
REMARK    7  A    between atoms: C_21  and  C_23
REMARK    8  A    between atoms: C_24  and  C_26
REMARK                            x       y       z     vdW  Elec       q    Type
REMARK                         _______ _______ _______ _____ _____    ______ ____
ROOT
ATOM      1  C   UNL     1      37.309 -22.944 -15.440  0.00  0.00    +0.000 C 
ENDROOT
BRANCH   1   4
ATOM      2  O   UNL     1      32.189 -22.937 -11.897  0.00  0.00    -0.270 OA
ATOM      3  N   UNL     1      33.697 -23.970 -13.355  0.00  0.00    -0.276 N 
ATOM      4  C   UNL     1      36.297 -23.728 -14.607  0.00  0.00    +0.003 C 
ATOM      5  C   UNL     1      35.029 -24.023 -15.424  0.00  0.00    +0.022 C 
ATOM      6  C   UNL     1      35.939 -22.964 -13.321  0.00  0.00    +0.022 C 
ATOM      7  C   UNL     1      33.981 -24.739 -14.574  0.00  0.00    +0.094 C 
ATOM      8  C   UNL     1      34.865 -23.697 -12.520  0.00  0.00    +0.094 C 
ATOM      9  C   UNL     1      32.433 -23.544 -12.938  0.00  0.00    +0.249 C 
BRANCH   9  10
ATOM     10  C   UNL     1      31.285 -23.825 -13.809  0.00  0.00    +0.054 C 
ATOM     11  C   UNL     1      30.500 -24.956 -13.584  0.00  0.00    +0.005 C 
ATOM     12  C   UNL     1      30.978 -22.961 -14.860  0.00  0.00    +0.005 C 
ATOM     13  C   UNL     1      29.409 -25.223 -14.411  0.00  0.00    +0.000 C 
ATOM     14  C   UNL     1      29.886 -23.228 -15.686  0.00  0.00    +0.000 C 
ATOM     15  C   UNL     1      29.102 -24.360 -15.462  0.00  0.00    +0.000 C 
ENDBRANCH   9  10
ENDBRANCH   1   4
BRANCH   1  16
ATOM     16  C   UNL     1      36.692 -21.666 -16.000  0.00  0.00    +0.002 C 
BRANCH  16  17
ATOM     17  C   UNL     1      36.781 -21.634 -17.525  0.00  0.00    +0.021 C 
BRANCH  17  18
ATOM     18  C   UNL     1      35.453 -22.015 -18.167  0.00  0.00    +0.090 C 
BRANCH  18  20
ATOM     19  O   UNL     1      32.781 -21.542 -19.184  0.00  0.00    -0.270 OA
ATOM     20  N   UNL     1      35.057 -21.064 -19.169  0.00  0.00    -0.301 N 
ATOM     21  C   UNL     1      33.745 -20.906 -19.597  0.00  0.00    +0.246 C 
ATOM     22  H   UNL     1      35.752 -20.495 -19.573  0.00  0.00    +0.150 HD
BRANCH  21  23
ATOM     23  C   UNL     1      33.619 -19.850 -20.642  0.00  0.00    +0.058 C 
ATOM     24  C   UNL     1      34.684 -19.510 -21.382  0.00  0.00    +0.006 C 
BRANCH  24  26
ATOM     25  N   UNL     1      34.059 -17.863 -24.698  0.00  0.00    -0.242 NA
ATOM     26  C   UNL     1      34.673 -18.490 -22.445  0.00  0.00    +0.019 C 
ATOM     27  C   UNL     1      35.235 -17.234 -22.241  0.00  0.00    +0.003 C 
ATOM     28  C   UNL     1      34.103 -18.752 -23.680  0.00  0.00    +0.099 C 
ATOM     29  C   UNL     1      35.210 -16.293 -23.264  0.00  0.00    +0.021 C 
ATOM     30  C   UNL     1      34.616 -16.654 -24.462  0.00  0.00    +0.099 C 
ENDBRANCH  24  26
ENDBRANCH  21  23
ENDBRANCH  18  20
ENDBRANCH  17  18
ENDBRANCH  16  17
ENDBRANCH   1  16
TORSDOF 8
ENDMDL
MODEL 8
REMARK VINA RESULT:     -10.9      5.661     13.373
REMARK  Name = 6914657
REMARK  8 active torsions:
REMARK  status: ('A' for Active; 'I' for Inactive)
REMARK    1  A    between atoms: C_1  and  C_4
REMARK    2  A    between atoms: C_1  and  C_16
REMARK    3  A    between atoms: C_9  and  C_10
REMARK    4  A    between atoms: C_16  and  C_17
REMARK    5  A    between atoms: C_17  and  C_18
REMARK    6  A    between atoms: C_18  and  N_20
REMARK    7  A    between atoms: C_21  and  C_23
REMARK    8  A    between atoms: C_24  and  C_26
REMARK                            x       y       z     vdW  Elec       q    Type
REMARK                         _______ _______ _______ _____ _____    ______ ____
ROOT
ATOM      1  C   UNL     1      33.595 -22.943 -18.278  0.00  0.00    +0.000 C 
ENDROOT
BRANCH   1   4
ATOM      2  O   UNL     1      33.193 -24.818 -12.355  0.00  0.00    -0.270 OA
ATOM      3  N   UNL     1      33.881 -23.315 -14.009  0.00  0.00    -0.276 N 
ATOM      4  C   UNL     1      33.573 -22.584 -16.794  0.00  0.00    +0.003 C 
ATOM      5  C   UNL     1      34.957 -22.796 -16.160  0.00  0.00    +0.022 C 
ATOM      6  C   UNL     1      32.511 -23.409 -16.048  0.00  0.00    +0.022 C 
ATOM      7  C   UNL     1      34.924 -22.512 -14.660  0.00  0.00    +0.094 C 
ATOM      8  C   UNL     1      32.536 -23.120 -14.549  0.00  0.00    +0.094 C 
ATOM      9  C   UNL     1      34.073 -24.177 -12.927  0.00  0.00    +0.249 C 
BRANCH   9  10
ATOM     10  C   UNL     1      35.439 -24.358 -12.420  0.00  0.00    +0.054 C 
ATOM     11  C   UNL     1      35.912 -23.549 -11.387  0.00  0.00    +0.005 C 
ATOM     12  C   UNL     1      36.263 -25.339 -12.970  0.00  0.00    +0.005 C 
ATOM     13  C   UNL     1      37.209 -23.720 -10.905  0.00  0.00    +0.000 C 
ATOM     14  C   UNL     1      37.561 -25.512 -12.487  0.00  0.00    +0.000 C 
ATOM     15  C   UNL     1      38.034 -24.701 -11.455  0.00  0.00    +0.000 C 
ENDBRANCH   9  10
ENDBRANCH   1   4
BRANCH   1  16
ATOM     16  C   UNL     1      34.145 -21.793 -19.117  0.00  0.00    +0.002 C 
BRANCH  16  17
ATOM     17  C   UNL     1      35.627 -21.998 -19.427  0.00  0.00    +0.021 C 
BRANCH  17  18
ATOM     18  C   UNL     1      36.414 -20.704 -19.256  0.00  0.00    +0.090 C 
BRANCH  18  20
ATOM     19  O   UNL     1      37.766 -18.749 -20.913  0.00  0.00    -0.270 OA
ATOM     20  N   UNL     1      35.818 -19.621 -19.989  0.00  0.00    -0.301 N 
ATOM     21  C   UNL     1      36.548 -18.728 -20.762  0.00  0.00    +0.246 C 
ATOM     22  H   UNL     1      34.841 -19.507 -19.941  0.00  0.00    +0.150 HD
BRANCH  21  23
ATOM     23  C   UNL     1      35.678 -17.707 -21.413  0.00  0.00    +0.058 C 
ATOM     24  C   UNL     1      35.667 -17.590 -22.748  0.00  0.00    +0.006 C 
BRANCH  24  26
ATOM     25  N   UNL     1      33.432 -16.157 -25.404  0.00  0.00    -0.242 NA
ATOM     26  C   UNL     1      34.842 -16.625 -23.496  0.00  0.00    +0.019 C 
ATOM     27  C   UNL     1      34.682 -15.318 -23.049  0.00  0.00    +0.003 C 
ATOM     28  C   UNL     1      34.202 -16.992 -24.669  0.00  0.00    +0.099 C 
ATOM     29  C   UNL     1      33.898 -14.431 -23.777  0.00  0.00    +0.021 C 
ATOM     30  C   UNL     1      33.300 -14.895 -24.937  0.00  0.00    +0.099 C 
ENDBRANCH  24  26
ENDBRANCH  21  23
ENDBRANCH  18  20
ENDBRANCH  17  18
ENDBRANCH  16  17
ENDBRANCH   1  16
TORSDOF 8
ENDMDL
MODEL 9
REMARK VINA RESULT:     -10.7      4.456      8.014
REMARK  Name = 6914657
REMARK  8 active torsions:
REMARK  status: ('A' for Active; 'I' for Inactive)
REMARK    1  A    between atoms: C_1  and  C_4
REMARK    2  A    between atoms: C_1  and  C_16
REMARK    3  A    between atoms: C_9  and  C_10
REMARK    4  A    between atoms: C_16  and  C_17
REMARK    5  A    between atoms: C_17  and  C_18
REMARK    6  A    between atoms: C_18  and  N_20
REMARK    7  A    between atoms: C_21  and  C_23
REMARK    8  A    between atoms: C_24  and  C_26
REMARK                            x       y       z     vdW  Elec       q    Type
REMARK                         _______ _______ _______ _____ _____    ______ ____
ROOT
ATOM      1  C   UNL     1      35.079 -19.463 -20.250  0.00  0.00    +0.000 C 
ENDROOT
BRANCH   1   4
ATOM      2  O   UNL     1      33.068 -16.788 -25.501  0.00  0.00    -0.270 OA
ATOM      3  N   UNL     1      34.662 -17.112 -23.820  0.00  0.00    -0.276 N 
ATOM      4  C   UNL     1      35.407 -18.790 -21.581  0.00  0.00    +0.003 C 
ATOM      5  C   UNL     1      35.325 -17.260 -21.455  0.00  0.00    +0.022 C 
ATOM      6  C   UNL     1      34.467 -19.287 -22.691  0.00  0.00    +0.022 C 
ATOM      7  C   UNL     1      35.576 -16.584 -22.801  0.00  0.00    +0.094 C 
ATOM      8  C   UNL     1      34.730 -18.560 -24.009  0.00  0.00    +0.094 C 
ATOM      9  C   UNL     1      33.804 -16.351 -24.618  0.00  0.00    +0.249 C 
BRANCH   9  10
ATOM     10  C   UNL     1      33.752 -14.901 -24.392  0.00  0.00    +0.054 C 
ATOM     11  C   UNL     1      33.493 -14.038 -25.457  0.00  0.00    +0.005 C 
ATOM     12  C   UNL     1      33.962 -14.386 -23.113  0.00  0.00    +0.005 C 
ATOM     13  C   UNL     1      33.444 -12.661 -25.243  0.00  0.00    +0.000 C 
ATOM     14  C   UNL     1      33.912 -13.009 -22.898  0.00  0.00    +0.000 C 
ATOM     15  C   UNL     1      33.653 -12.146 -23.964  0.00  0.00    +0.000 C 
ENDBRANCH   9  10
ENDBRANCH   1   4
BRANCH   1  16
ATOM     16  C   UNL     1      33.722 -20.160 -20.304  0.00  0.00    +0.002 C 
BRANCH  16  17
ATOM     17  C   UNL     1      33.562 -21.142 -19.143  0.00  0.00    +0.021 C 
BRANCH  17  18
ATOM     18  C   UNL     1      34.728 -22.121 -19.080  0.00  0.00    +0.090 C 
BRANCH  18  20
ATOM     19  O   UNL     1      36.956 -20.841 -17.740  0.00  0.00    -0.270 OA
ATOM     20  N   UNL     1      35.170 -22.330 -17.728  0.00  0.00    -0.301 N 
ATOM     21  C   UNL     1      36.254 -21.668 -17.167  0.00  0.00    +0.246 C 
ATOM     22  H   UNL     1      34.677 -22.976 -17.171  0.00  0.00    +0.150 HD
BRANCH  21  23
ATOM     23  C   UNL     1      36.489 -22.075 -15.752  0.00  0.00    +0.058 C 
ATOM     24  C   UNL     1      35.728 -23.027 -15.194  0.00  0.00    +0.006 C 
BRANCH  24  26
ATOM     25  N   UNL     1      34.836 -24.336 -11.790  0.00  0.00    -0.242 NA
ATOM     26  C   UNL     1      35.876 -23.513 -13.811  0.00  0.00    +0.019 C 
ATOM     27  C   UNL     1      37.129 -23.614 -13.216  0.00  0.00    +0.003 C 
ATOM     28  C   UNL     1      34.771 -23.883 -13.062  0.00  0.00    +0.099 C 
ATOM     29  C   UNL     1      37.236 -24.076 -11.909  0.00  0.00    +0.021 C 
ATOM     30  C   UNL     1      36.071 -24.420 -11.245  0.00  0.00    +0.099 C 
ENDBRANCH  24  26
ENDBRANCH  21  23
ENDBRANCH  18  20
ENDBRANCH  17  18
ENDBRANCH  16  17
ENDBRANCH   1  16
TORSDOF 8
ENDMDL
