MODEL 1
REMARK VINA RESULT:     -12.0      0.000      0.000
REMARK  Name = 25243828
REMARK  6 active torsions:
REMARK  status: ('A' for Active; 'I' for Inactive)
REMARK    1  A    between atoms: C_1  and  C_18
REMARK    2  A    between atoms: C_4  and  O_7
REMARK    3  A    between atoms: O_7  and  C_9
REMARK    4  A    between atoms: C_11  and  C_17
REMARK    5  A    between atoms: C_18  and  C_21
REMARK    6  A    between atoms: C_26  and  O_27
REMARK                            x       y       z     vdW  Elec       q    Type
REMARK                         _______ _______ _______ _____ _____    ______ ____
ROOT
ATOM      1  C   UNL     1      33.836 -23.363 -14.584  0.00  0.00    -0.019 C 
ATOM      2  C   UNL     1      34.008 -23.447 -15.965  0.00  0.00    +0.033 C 
ATOM      3  C   UNL     1      32.587 -23.034 -14.055  0.00  0.00    -0.004 C 
ATOM      4  C   UNL     1      32.932 -23.202 -16.818  0.00  0.00    +0.147 C 
ATOM      5  C   UNL     1      31.511 -22.789 -14.908  0.00  0.00    +0.003 C 
ATOM      6  C   UNL     1      31.683 -22.873 -16.290  0.00  0.00    +0.038 C 
ENDROOT
BRANCH   4   7
ATOM      7  O   UNL     1      33.100 -23.282 -18.166  0.00  0.00    -0.436 OA
BRANCH   7   9
ATOM      8  N   UNL     1      35.136 -22.345 -18.813  0.00  0.00    -0.210 NA
ATOM      9  C   UNL     1      33.787 -22.255 -18.792  0.00  0.00    +0.230 C 
ATOM     10  C   UNL     1      33.070 -21.212 -19.355  0.00  0.00    +0.058 C 
ATOM     11  C   UNL     1      35.173 -20.251 -20.021  0.00  0.00    +0.091 C 
ATOM     12  C   UNL     1      33.784 -20.194 -19.980  0.00  0.00    +0.010 C 
ATOM     13  C   UNL     1      35.796 -21.337 -19.428  0.00  0.00    +0.106 C 
BRANCH  11  17
ATOM     14  F   UNL     1      35.593 -17.914 -20.312  0.00  0.00    -0.166 F 
ATOM     15  F   UNL     1      37.305 -19.242 -20.418  0.00  0.00    -0.166 F 
ATOM     16  F   UNL     1      35.860 -19.204 -22.042  0.00  0.00    -0.166 F 
ATOM     17  C   UNL     1      35.964 -19.178 -20.681  0.00  0.00    +0.420 C 
ENDBRANCH  11  17
ENDBRANCH   7   9
ENDBRANCH   4   7
BRANCH   1  18
ATOM     18  C   UNL     1      34.995 -23.625 -13.662  0.00  0.00    +0.027 C 
BRANCH  18  21
ATOM     19  O   UNL     1      41.085 -24.502 -14.014  0.00  0.00    -0.226 OA
ATOM     20  N   UNL     1      38.910 -25.205 -14.452  0.00  0.00    -0.246 N 
ATOM     21  C   UNL     1      36.166 -24.271 -14.400  0.00  0.00    +0.008 C 
ATOM     22  C   UNL     1      37.354 -23.300 -14.499  0.00  0.00    +0.022 C 
ATOM     23  C   UNL     1      36.595 -25.575 -13.708  0.00  0.00    +0.022 C 
ATOM     24  C   UNL     1      38.562 -23.967 -15.155  0.00  0.00    +0.097 C 
ATOM     25  C   UNL     1      37.817 -26.185 -14.392  0.00  0.00    +0.097 C 
ATOM     26  C   UNL     1      40.199 -25.352 -13.928  0.00  0.00    +0.402 C 
BRANCH  26  27
ATOM     27  O   UNL     1      40.459 -26.522 -13.278  0.00  0.00    -0.466 OA
ATOM     28  H   UNL     1      39.751 -27.067 -12.994  0.00  0.00    +0.297 HD
ENDBRANCH  26  27
ENDBRANCH  18  21
ENDBRANCH   1  18
TORSDOF 6
ENDMDL
MODEL 2
REMARK VINA RESULT:     -11.4      5.397      8.849
REMARK  Name = 25243828
REMARK  6 active torsions:
REMARK  status: ('A' for Active; 'I' for Inactive)
REMARK    1  A    between atoms: C_1  and  C_18
REMARK    2  A    between atoms: C_4  and  O_7
REMARK    3  A    between atoms: O_7  and  C_9
REMARK    4  A    between atoms: C_11  and  C_17
REMARK    5  A    between atoms: C_18  and  C_21
REMARK    6  A    between atoms: C_26  and  O_27
REMARK                            x       y       z     vdW  Elec       q    Type
REMARK                         _______ _______ _______ _____ _____    ______ ____
ROOT
ATOM      1  C   UNL     1      35.288 -18.256 -21.827  0.00  0.00    -0.019 C 
ATOM      2  C   UNL     1      35.521 -16.886 -21.939  0.00  0.00    +0.033 C 
ATOM      3  C   UNL     1      34.639 -18.941 -22.854  0.00  0.00    -0.004 C 
ATOM      4  C   UNL     1      35.104 -16.199 -23.079  0.00  0.00    +0.147 C 
ATOM      5  C   UNL     1      34.221 -18.254 -23.994  0.00  0.00    +0.003 C 
ATOM      6  C   UNL     1      34.454 -16.883 -24.107  0.00  0.00    +0.038 C 
ENDROOT
BRANCH   4   7
ATOM      7  O   UNL     1      35.328 -14.861 -23.189  0.00  0.00    -0.436 OA
BRANCH   7   9
ATOM      8  N   UNL     1      34.023 -12.928 -23.229  0.00  0.00    -0.210 NA
ATOM      9  C   UNL     1      34.456 -14.006 -22.537  0.00  0.00    +0.230 C 
ATOM     10  C   UNL     1      34.080 -14.294 -21.235  0.00  0.00    +0.058 C 
ATOM     11  C   UNL     1      32.733 -12.302 -21.283  0.00  0.00    +0.091 C 
ATOM     12  C   UNL     1      33.200 -13.421 -20.603  0.00  0.00    +0.010 C 
ATOM     13  C   UNL     1      33.170 -12.102 -22.582  0.00  0.00    +0.106 C 
BRANCH  11  17
ATOM     14  F   UNL     1      32.073 -10.035 -20.895  0.00  0.00    -0.166 F 
ATOM     15  F   UNL     1      30.490 -11.514 -21.015  0.00  0.00    -0.166 F 
ATOM     16  F   UNL     1      31.789 -11.454 -19.272  0.00  0.00    -0.166 F 
ATOM     17  C   UNL     1      31.793 -11.348 -20.634  0.00  0.00    +0.420 C 
ENDBRANCH  11  17
ENDBRANCH   7   9
ENDBRANCH   4   7
BRANCH   1  18
ATOM     18  C   UNL     1      35.736 -18.998 -20.597  0.00  0.00    +0.027 C 
BRANCH  18  21
ATOM     19  O   UNL     1      33.780 -23.387 -16.740  0.00  0.00    -0.226 OA
ATOM     20  N   UNL     1      33.539 -22.167 -18.706  0.00  0.00    -0.246 N 
ATOM     21  C   UNL     1      34.958 -20.298 -20.409  0.00  0.00    +0.008 C 
ATOM     22  C   UNL     1      35.695 -21.244 -19.449  0.00  0.00    +0.022 C 
ATOM     23  C   UNL     1      33.536 -20.015 -19.897  0.00  0.00    +0.022 C 
ATOM     24  C   UNL     1      34.881 -22.510 -19.183  0.00  0.00    +0.097 C 
ATOM     25  C   UNL     1      32.778 -21.314 -19.629  0.00  0.00    +0.097 C 
ATOM     26  C   UNL     1      33.105 -22.665 -17.473  0.00  0.00    +0.402 C 
BRANCH  26  27
ATOM     27  O   UNL     1      31.850 -22.304 -17.081  0.00  0.00    -0.466 OA
ATOM     28  H   UNL     1      31.117 -22.479 -17.638  0.00  0.00    +0.297 HD
ENDBRANCH  26  27
ENDBRANCH  18  21
ENDBRANCH   1  18
TORSDOF 6
ENDMDL
MODEL 3
REMARK VINA RESULT:     -11.3      3.213      5.932
REMARK  Name = 25243828
REMARK  6 active torsions:
REMARK  status: ('A' for Active; 'I' for Inactive)
REMARK    1  A    between atoms: C_1  and  C_18
REMARK    2  A    between atoms: C_4  and  O_7
REMARK    3  A    between atoms: O_7  and  C_9
REMARK    4  A    between atoms: C_11  and  C_17
REMARK    5  A    between atoms: C_18  and  C_21
REMARK    6  A    between atoms: C_26  and  O_27
REMARK                            x       y       z     vdW  Elec       q    Type
REMARK                         _______ _______ _______ _____ _____    ______ ____
ROOT
ATOM      1  C   UNL     1      33.449 -23.978 -14.244  0.00  0.00    -0.019 C 
ATOM      2  C   UNL     1      33.124 -23.989 -15.600  0.00  0.00    +0.033 C 
ATOM      3  C   UNL     1      34.594 -23.312 -13.806  0.00  0.00    -0.004 C 
ATOM      4  C   UNL     1      33.945 -23.336 -16.519  0.00  0.00    +0.147 C 
ATOM      5  C   UNL     1      35.415 -22.659 -14.725  0.00  0.00    +0.003 C 
ATOM      6  C   UNL     1      35.090 -22.670 -16.082  0.00  0.00    +0.038 C 
ENDROOT
BRANCH   4   7
ATOM      7  O   UNL     1      33.630 -23.348 -17.843  0.00  0.00    -0.436 OA
BRANCH   7   9
ATOM      8  N   UNL     1      35.401 -22.212 -18.849  0.00  0.00    -0.210 NA
ATOM      9  C   UNL     1      34.071 -22.291 -18.620  0.00  0.00    +0.230 C 
ATOM     10  C   UNL     1      33.144 -21.388 -19.114  0.00  0.00    +0.058 C 
ATOM     11  C   UNL     1      34.974 -20.221 -20.152  0.00  0.00    +0.091 C 
ATOM     12  C   UNL     1      33.612 -20.336 -19.895  0.00  0.00    +0.010 C 
ATOM     13  C   UNL     1      35.819 -21.176 -19.611  0.00  0.00    +0.106 C 
BRANCH  11  17
ATOM     14  F   UNL     1      36.867 -18.984 -20.933  0.00  0.00    -0.166 F 
ATOM     15  F   UNL     1      35.209 -19.221 -22.312  0.00  0.00    -0.166 F 
ATOM     16  F   UNL     1      35.018 -17.887 -20.605  0.00  0.00    -0.166 F 
ATOM     17  C   UNL     1      35.506 -19.106 -20.982  0.00  0.00    +0.420 C 
ENDBRANCH  11  17
ENDBRANCH   7   9
ENDBRANCH   4   7
BRANCH   1  18
ATOM     18  C   UNL     1      32.566 -24.684 -13.251  0.00  0.00    +0.027 C 
BRANCH  18  21
ATOM     19  O   UNL     1      28.241 -22.072 -16.778  0.00  0.00    -0.226 OA
ATOM     20  N   UNL     1      28.854 -23.554 -15.093  0.00  0.00    -0.246 N 
ATOM     21  C   UNL     1      31.103 -24.279 -13.412  0.00  0.00    +0.008 C 
ATOM     22  C   UNL     1      30.986 -22.890 -14.060  0.00  0.00    +0.022 C 
ATOM     23  C   UNL     1      30.335 -25.324 -14.239  0.00  0.00    +0.022 C 
ATOM     24  C   UNL     1      29.526 -22.515 -14.308  0.00  0.00    +0.097 C 
ATOM     25  C   UNL     1      28.890 -24.886 -14.474  0.00  0.00    +0.097 C 
ATOM     26  C   UNL     1      28.251 -23.209 -16.307  0.00  0.00    +0.402 C 
BRANCH  26  27
ATOM     27  O   UNL     1      27.650 -24.222 -16.994  0.00  0.00    -0.466 OA
ATOM     28  H   UNL     1      26.819 -24.549 -16.713  0.00  0.00    +0.297 HD
ENDBRANCH  26  27
ENDBRANCH  18  21
ENDBRANCH   1  18
TORSDOF 6
ENDMDL
MODEL 4
REMARK VINA RESULT:     -11.2      6.539     11.280
REMARK  Name = 25243828
REMARK  6 active torsions:
REMARK  status: ('A' for Active; 'I' for Inactive)
REMARK    1  A    between atoms: C_1  and  C_18
REMARK    2  A    between atoms: C_4  and  O_7
REMARK    3  A    between atoms: O_7  and  C_9
REMARK    4  A    between atoms: C_11  and  C_17
REMARK    5  A    between atoms: C_18  and  C_21
REMARK    6  A    between atoms: C_26  and  O_27
REMARK                            x       y       z     vdW  Elec       q    Type
REMARK                         _______ _______ _______ _____ _____    ______ ____
ROOT
ATOM      1  C   UNL     1      35.009 -16.011 -21.349  0.00  0.00    -0.019 C 
ATOM      2  C   UNL     1      35.644 -17.055 -20.678  0.00  0.00    +0.033 C 
ATOM      3  C   UNL     1      34.698 -16.136 -22.703  0.00  0.00    -0.004 C 
ATOM      4  C   UNL     1      35.971 -18.226 -21.363  0.00  0.00    +0.147 C 
ATOM      5  C   UNL     1      35.025 -17.307 -23.388  0.00  0.00    +0.003 C 
ATOM      6  C   UNL     1      35.661 -18.352 -22.718  0.00  0.00    +0.038 C 
ENDROOT
BRANCH   4   7
ATOM      7  O   UNL     1      36.594 -19.245 -20.711  0.00  0.00    -0.436 OA
BRANCH   7   9
ATOM      8  N   UNL     1      36.439 -20.827 -19.003  0.00  0.00    -0.210 NA
ATOM      9  C   UNL     1      35.810 -20.100 -19.954  0.00  0.00    +0.230 C 
ATOM     10  C   UNL     1      34.449 -20.162 -20.204  0.00  0.00    +0.058 C 
ATOM     11  C   UNL     1      34.295 -21.790 -18.440  0.00  0.00    +0.091 C 
ATOM     12  C   UNL     1      33.683 -21.026 -19.427  0.00  0.00    +0.010 C 
ATOM     13  C   UNL     1      35.663 -21.656 -18.269  0.00  0.00    +0.106 C 
BRANCH  11  17
ATOM     14  F   UNL     1      33.475 -24.007 -18.069  0.00  0.00    -0.166 F 
ATOM     15  F   UNL     1      33.967 -22.833 -16.312  0.00  0.00    -0.166 F 
ATOM     16  F   UNL     1      32.195 -22.352 -17.477  0.00  0.00    -0.166 F 
ATOM     17  C   UNL     1      33.504 -22.725 -17.595  0.00  0.00    +0.420 C 
ENDBRANCH  11  17
ENDBRANCH   7   9
ENDBRANCH   4   7
BRANCH   1  18
ATOM     18  C   UNL     1      34.657 -14.747 -20.612  0.00  0.00    +0.027 C 
BRANCH  18  21
ATOM     19  O   UNL     1      31.616  -9.411 -21.116  0.00  0.00    -0.226 OA
ATOM     20  N   UNL     1      32.511 -11.329 -22.083  0.00  0.00    -0.246 N 
ATOM     21  C   UNL     1      33.647 -13.905 -21.389  0.00  0.00    +0.008 C 
ATOM     22  C   UNL     1      32.720 -13.141 -20.431  0.00  0.00    +0.022 C 
ATOM     23  C   UNL     1      34.364 -12.928 -22.336  0.00  0.00    +0.022 C 
ATOM     24  C   UNL     1      31.765 -12.226 -21.197  0.00  0.00    +0.097 C 
ATOM     25  C   UNL     1      33.363 -12.026 -23.056  0.00  0.00    +0.097 C 
ATOM     26  C   UNL     1      32.353  -9.946 -21.945  0.00  0.00    +0.402 C 
BRANCH  26  27
ATOM     27  O   UNL     1      33.081  -9.165 -22.793  0.00  0.00    -0.466 OA
ATOM     28  H   UNL     1      32.850  -8.266 -22.916  0.00  0.00    +0.297 HD
ENDBRANCH  26  27
ENDBRANCH  18  21
ENDBRANCH   1  18
TORSDOF 6
ENDMDL
MODEL 5
REMARK VINA RESULT:     -11.2      6.156     10.985
REMARK  Name = 25243828
REMARK  6 active torsions:
REMARK  status: ('A' for Active; 'I' for Inactive)
REMARK    1  A    between atoms: C_1  and  C_18
REMARK    2  A    between atoms: C_4  and  O_7
REMARK    3  A    between atoms: O_7  and  C_9
REMARK    4  A    between atoms: C_11  and  C_17
REMARK    5  A    between atoms: C_18  and  C_21
REMARK    6  A    between atoms: C_26  and  O_27
REMARK                            x       y       z     vdW  Elec       q    Type
REMARK                         _______ _______ _______ _____ _____    ______ ____
ROOT
ATOM      1  C   UNL     1      34.954 -16.207 -22.856  0.00  0.00    -0.019 C 
ATOM      2  C   UNL     1      35.656 -16.934 -21.896  0.00  0.00    +0.033 C 
ATOM      3  C   UNL     1      34.286 -16.871 -23.885  0.00  0.00    -0.004 C 
ATOM      4  C   UNL     1      35.693 -18.327 -21.964  0.00  0.00    +0.147 C 
ATOM      5  C   UNL     1      34.322 -18.264 -23.954  0.00  0.00    +0.003 C 
ATOM      6  C   UNL     1      35.025 -18.992 -22.993  0.00  0.00    +0.038 C 
ENDROOT
BRANCH   4   7
ATOM      7  O   UNL     1      36.380 -19.037 -21.029  0.00  0.00    -0.436 OA
BRANCH   7   9
ATOM      8  N   UNL     1      36.378 -20.710 -19.404  0.00  0.00    -0.210 NA
ATOM      9  C   UNL     1      35.665 -19.918 -20.235  0.00  0.00    +0.230 C 
ATOM     10  C   UNL     1      34.283 -19.938 -20.331  0.00  0.00    +0.058 C 
ATOM     11  C   UNL     1      34.287 -21.661 -18.652  0.00  0.00    +0.091 C 
ATOM     12  C   UNL     1      33.588 -20.830 -19.520  0.00  0.00    +0.010 C 
ATOM     13  C   UNL     1      35.669 -21.564 -18.632  0.00  0.00    +0.106 C 
BRANCH  11  17
ATOM     14  F   UNL     1      33.538 -23.901 -18.269  0.00  0.00    -0.166 F 
ATOM     15  F   UNL     1      34.121 -22.747 -16.527  0.00  0.00    -0.166 F 
ATOM     16  F   UNL     1      32.267 -22.284 -17.564  0.00  0.00    -0.166 F 
ATOM     17  C   UNL     1      33.572 -22.627 -17.774  0.00  0.00    +0.420 C 
ENDBRANCH  11  17
ENDBRANCH   7   9
ENDBRANCH   4   7
BRANCH   1  18
ATOM     18  C   UNL     1      34.915 -14.705 -22.785  0.00  0.00    +0.027 C 
BRANCH  18  21
ATOM     19  O   UNL     1      31.994 -10.929 -18.888  0.00  0.00    -0.226 OA
ATOM     20  N   UNL     1      32.028 -12.180 -20.850  0.00  0.00    -0.246 N 
ATOM     21  C   UNL     1      33.585 -14.201 -22.228  0.00  0.00    +0.008 C 
ATOM     22  C   UNL     1      33.665 -14.012 -20.705  0.00  0.00    +0.022 C 
ATOM     23  C   UNL     1      33.169 -12.888 -22.911  0.00  0.00    +0.022 C 
ATOM     24  C   UNL     1      32.369 -13.422 -20.151  0.00  0.00    +0.097 C 
ATOM     25  C   UNL     1      31.881 -12.335 -22.303  0.00  0.00    +0.097 C 
ATOM     26  C   UNL     1      31.868 -11.004 -20.111  0.00  0.00    +0.402 C 
BRANCH  26  27
ATOM     27  O   UNL     1      31.560  -9.880 -20.819  0.00  0.00    -0.466 OA
ATOM     28  H   UNL     1      31.259  -9.953 -21.703  0.00  0.00    +0.297 HD
ENDBRANCH  26  27
ENDBRANCH  18  21
ENDBRANCH   1  18
TORSDOF 6
ENDMDL
MODEL 6
REMARK VINA RESULT:     -10.7      6.988     11.723
REMARK  Name = 25243828
REMARK  6 active torsions:
REMARK  status: ('A' for Active; 'I' for Inactive)
REMARK    1  A    between atoms: C_1  and  C_18
REMARK    2  A    between atoms: C_4  and  O_7
REMARK    3  A    between atoms: O_7  and  C_9
REMARK    4  A    between atoms: C_11  and  C_17
REMARK    5  A    between atoms: C_18  and  C_21
REMARK    6  A    between atoms: C_26  and  O_27
REMARK                            x       y       z     vdW  Elec       q    Type
REMARK                         _______ _______ _______ _____ _____    ______ ____
ROOT
ATOM      1  C   UNL     1      34.594 -15.287 -21.628  0.00  0.00    -0.019 C 
ATOM      2  C   UNL     1      35.333 -16.359 -21.128  0.00  0.00    +0.033 C 
ATOM      3  C   UNL     1      34.243 -15.251 -22.978  0.00  0.00    -0.004 C 
ATOM      4  C   UNL     1      35.723 -17.394 -21.978  0.00  0.00    +0.147 C 
ATOM      5  C   UNL     1      34.632 -16.286 -23.828  0.00  0.00    +0.003 C 
ATOM      6  C   UNL     1      35.372 -17.358 -23.328  0.00  0.00    +0.038 C 
ENDROOT
BRANCH   4   7
ATOM      7  O   UNL     1      36.446 -18.439 -21.491  0.00  0.00    -0.436 OA
BRANCH   7   9
ATOM      8  N   UNL     1      36.532 -20.092 -19.848  0.00  0.00    -0.210 NA
ATOM      9  C   UNL     1      35.784 -19.376 -20.717  0.00  0.00    +0.230 C 
ATOM     10  C   UNL     1      34.415 -19.527 -20.869  0.00  0.00    +0.058 C 
ATOM     11  C   UNL     1      34.509 -21.229 -19.172  0.00  0.00    +0.091 C 
ATOM     12  C   UNL     1      33.772 -20.473 -20.077  0.00  0.00    +0.010 C 
ATOM     13  C   UNL     1      35.873 -21.003 -19.096  0.00  0.00    +0.106 C 
BRANCH  11  17
ATOM     14  F   UNL     1      32.589 -21.904 -17.913  0.00  0.00    -0.166 F 
ATOM     15  F   UNL     1      33.707 -23.468 -18.917  0.00  0.00    -0.166 F 
ATOM     16  F   UNL     1      34.541 -22.496 -17.160  0.00  0.00    -0.166 F 
ATOM     17  C   UNL     1      33.850 -22.250 -18.312  0.00  0.00    +0.420 C 
ENDBRANCH  11  17
ENDBRANCH   7   9
ENDBRANCH   4   7
BRANCH   1  18
ATOM     18  C   UNL     1      34.175 -14.169 -20.713  0.00  0.00    +0.027 C 
BRANCH  18  21
ATOM     19  O   UNL     1      31.490  -8.623 -20.745  0.00  0.00    -0.226 OA
ATOM     20  N   UNL     1      32.253 -10.508 -21.875  0.00  0.00    -0.246 N 
ATOM     21  C   UNL     1      33.220 -13.201 -21.408  0.00  0.00    +0.008 C 
ATOM     22  C   UNL     1      32.348 -12.461 -20.382  0.00  0.00    +0.022 C 
ATOM     23  C   UNL     1      33.996 -12.197 -22.277  0.00  0.00    +0.022 C 
ATOM     24  C   UNL     1      31.453 -11.424 -21.059  0.00  0.00    +0.097 C 
ATOM     25  C   UNL     1      33.054 -11.175 -22.911  0.00  0.00    +0.097 C 
ATOM     26  C   UNL     1      32.187  -9.134 -21.622  0.00  0.00    +0.402 C 
BRANCH  26  27
ATOM     27  O   UNL     1      32.962  -8.334 -22.408  0.00  0.00    -0.466 OA
ATOM     28  H   UNL     1      32.944  -8.435 -23.339  0.00  0.00    +0.297 HD
ENDBRANCH  26  27
ENDBRANCH  18  21
ENDBRANCH   1  18
TORSDOF 6
ENDMDL
MODEL 7
REMARK VINA RESULT:     -10.7      4.119      5.882
REMARK  Name = 25243828
REMARK  6 active torsions:
REMARK  status: ('A' for Active; 'I' for Inactive)
REMARK    1  A    between atoms: C_1  and  C_18
REMARK    2  A    between atoms: C_4  and  O_7
REMARK    3  A    between atoms: O_7  and  C_9
REMARK    4  A    between atoms: C_11  and  C_17
REMARK    5  A    between atoms: C_18  and  C_21
REMARK    6  A    between atoms: C_26  and  O_27
REMARK                            x       y       z     vdW  Elec       q    Type
REMARK                         _______ _______ _______ _____ _____    ______ ____
ROOT
ATOM      1  C   UNL     1      34.503 -21.752 -18.592  0.00  0.00    -0.019 C 
ATOM      2  C   UNL     1      35.476 -20.918 -19.141  0.00  0.00    +0.033 C 
ATOM      3  C   UNL     1      33.176 -21.647 -19.012  0.00  0.00    -0.004 C 
ATOM      4  C   UNL     1      35.124 -19.977 -20.109  0.00  0.00    +0.147 C 
ATOM      5  C   UNL     1      32.824 -20.706 -19.980  0.00  0.00    +0.003 C 
ATOM      6  C   UNL     1      33.798 -19.871 -20.529  0.00  0.00    +0.038 C 
ENDROOT
BRANCH   4   7
ATOM      7  O   UNL     1      36.073 -19.161 -20.643  0.00  0.00    -0.436 OA
BRANCH   7   9
ATOM      8  N   UNL     1      35.330 -16.987 -20.239  0.00  0.00    -0.210 NA
ATOM      9  C   UNL     1      35.663 -17.936 -21.142  0.00  0.00    +0.230 C 
ATOM     10  C   UNL     1      35.618 -17.751 -22.515  0.00  0.00    +0.058 C 
ATOM     11  C   UNL     1      34.854 -15.509 -22.092  0.00  0.00    +0.091 C 
ATOM     12  C   UNL     1      35.205 -16.510 -22.991  0.00  0.00    +0.010 C 
ATOM     13  C   UNL     1      34.933 -15.795 -20.739  0.00  0.00    +0.106 C 
BRANCH  11  17
ATOM     14  F   UNL     1      35.080 -13.129 -21.998  0.00  0.00    -0.166 F 
ATOM     15  F   UNL     1      34.556 -13.993 -23.918  0.00  0.00    -0.166 F 
ATOM     16  F   UNL     1      33.086 -13.935 -22.316  0.00  0.00    -0.166 F 
ATOM     17  C   UNL     1      34.407 -14.173 -22.570  0.00  0.00    +0.420 C 
ENDBRANCH  11  17
ENDBRANCH   7   9
ENDBRANCH   4   7
BRANCH   1  18
ATOM     18  C   UNL     1      34.881 -22.765 -17.547  0.00  0.00    +0.027 C 
BRANCH  18  21
ATOM     19  O   UNL     1      30.500 -25.258 -14.003  0.00  0.00    -0.226 OA
ATOM     20  N   UNL     1      32.339 -23.857 -14.261  0.00  0.00    -0.246 N 
ATOM     21  C   UNL     1      34.003 -22.645 -16.303  0.00  0.00    +0.008 C 
ATOM     22  C   UNL     1      32.570 -23.117 -16.596  0.00  0.00    +0.022 C 
ATOM     23  C   UNL     1      34.602 -23.442 -15.133  0.00  0.00    +0.022 C 
ATOM     24  C   UNL     1      31.707 -23.087 -15.335  0.00  0.00    +0.097 C 
ATOM     25  C   UNL     1      33.688 -23.395 -13.909  0.00  0.00    +0.097 C 
ATOM     26  C   UNL     1      31.636 -24.916 -13.677  0.00  0.00    +0.402 C 
BRANCH  26  27
ATOM     27  O   UNL     1      32.281 -25.600 -12.689  0.00  0.00    -0.466 OA
ATOM     28  H   UNL     1      33.196 -25.785 -12.769  0.00  0.00    +0.297 HD
ENDBRANCH  26  27
ENDBRANCH  18  21
ENDBRANCH   1  18
TORSDOF 6
ENDMDL
MODEL 8
REMARK VINA RESULT:     -10.7      3.551      5.222
REMARK  Name = 25243828
REMARK  6 active torsions:
REMARK  status: ('A' for Active; 'I' for Inactive)
REMARK    1  A    between atoms: C_1  and  C_18
REMARK    2  A    between atoms: C_4  and  O_7
REMARK    3  A    between atoms: O_7  and  C_9
REMARK    4  A    between atoms: C_11  and  C_17
REMARK    5  A    between atoms: C_18  and  C_21
REMARK    6  A    between atoms: C_26  and  O_27
REMARK                            x       y       z     vdW  Elec       q    Type
REMARK                         _______ _______ _______ _____ _____    ______ ____
ROOT
ATOM      1  C   UNL     1      34.470 -21.593 -19.094  0.00  0.00    -0.019 C 
ATOM      2  C   UNL     1      35.398 -20.804 -19.773  0.00  0.00    +0.033 C 
ATOM      3  C   UNL     1      33.108 -21.309 -19.192  0.00  0.00    -0.004 C 
ATOM      4  C   UNL     1      34.964 -19.729 -20.549  0.00  0.00    +0.147 C 
ATOM      5  C   UNL     1      32.674 -20.234 -19.968  0.00  0.00    +0.003 C 
ATOM      6  C   UNL     1      33.602 -19.444 -20.647  0.00  0.00    +0.038 C 
ENDROOT
BRANCH   4   7
ATOM      7  O   UNL     1      35.869 -18.957 -21.210  0.00  0.00    -0.436 OA
BRANCH   7   9
ATOM      8  N   UNL     1      35.313 -16.715 -20.880  0.00  0.00    -0.210 NA
ATOM      9  C   UNL     1      35.427 -17.755 -21.737  0.00  0.00    +0.230 C 
ATOM     10  C   UNL     1      35.133 -17.682 -23.089  0.00  0.00    +0.058 C 
ATOM     11  C   UNL     1      34.564 -15.370 -22.743  0.00  0.00    +0.091 C 
ATOM     12  C   UNL     1      34.695 -16.462 -23.594  0.00  0.00    +0.010 C 
ATOM     13  C   UNL     1      34.883 -15.547 -21.407  0.00  0.00    +0.106 C 
BRANCH  11  17
ATOM     14  F   UNL     1      34.857 -12.997 -22.836  0.00  0.00    -0.166 F 
ATOM     15  F   UNL     1      34.086 -13.964 -24.618  0.00  0.00    -0.166 F 
ATOM     16  F   UNL     1      32.820 -13.758 -22.862  0.00  0.00    -0.166 F 
ATOM     17  C   UNL     1      34.095 -14.053 -23.253  0.00  0.00    +0.420 C 
ENDBRANCH  11  17
ENDBRANCH   7   9
ENDBRANCH   4   7
BRANCH   1  18
ATOM     18  C   UNL     1      34.936 -22.752 -18.256  0.00  0.00    +0.027 C 
BRANCH  18  21
ATOM     19  O   UNL     1      36.085 -24.519 -12.465  0.00  0.00    -0.226 OA
ATOM     20  N   UNL     1      36.158 -22.906 -14.141  0.00  0.00    -0.246 N 
ATOM     21  C   UNL     1      35.145 -22.344 -16.799  0.00  0.00    +0.008 C 
ATOM     22  C   UNL     1      34.437 -23.323 -15.849  0.00  0.00    +0.022 C 
ATOM     23  C   UNL     1      36.644 -22.261 -16.465  0.00  0.00    +0.022 C 
ATOM     24  C   UNL     1      34.715 -22.976 -14.387  0.00  0.00    +0.097 C 
ATOM     25  C   UNL     1      36.861 -21.934 -14.988  0.00  0.00    +0.097 C 
ATOM     26  C   UNL     1      36.722 -23.725 -13.157  0.00  0.00    +0.402 C 
BRANCH  26  27
ATOM     27  O   UNL     1      38.070 -23.620 -12.982  0.00  0.00    -0.466 OA
ATOM     28  H   UNL     1      38.581 -24.387 -12.815  0.00  0.00    +0.297 HD
ENDBRANCH  26  27
ENDBRANCH  18  21
ENDBRANCH   1  18
TORSDOF 6
ENDMDL
MODEL 9
REMARK VINA RESULT:     -10.4      8.035     12.885
REMARK  Name = 25243828
REMARK  6 active torsions:
REMARK  status: ('A' for Active; 'I' for Inactive)
REMARK    1  A    between atoms: C_1  and  C_18
REMARK    2  A    between atoms: C_4  and  O_7
REMARK    3  A    between atoms: O_7  and  C_9
REMARK    4  A    between atoms: C_11  and  C_17
REMARK    5  A    between atoms: C_18  and  C_21
REMARK    6  A    between atoms: C_26  and  O_27
REMARK                            x       y       z     vdW  Elec       q    Type
REMARK                         _______ _______ _______ _____ _____    ______ ____
ROOT
ATOM      1  C   UNL     1      34.286 -13.777 -22.496  0.00  0.00    -0.019 C 
ATOM      2  C   UNL     1      34.780 -14.996 -22.959  0.00  0.00    +0.033 C 
ATOM      3  C   UNL     1      34.156 -13.552 -21.125  0.00  0.00    -0.004 C 
ATOM      4  C   UNL     1      35.143 -15.992 -22.052  0.00  0.00    +0.147 C 
ATOM      5  C   UNL     1      34.519 -14.548 -20.218  0.00  0.00    +0.003 C 
ATOM      6  C   UNL     1      35.013 -15.768 -20.681  0.00  0.00    +0.038 C 
ENDROOT
BRANCH   4   7
ATOM      7  O   UNL     1      35.623 -17.183 -22.503  0.00  0.00    -0.436 OA
BRANCH   7   9
ATOM      8  N   UNL     1      34.384 -18.893 -21.511  0.00  0.00    -0.210 NA
ATOM      9  C   UNL     1      35.575 -18.265 -21.641  0.00  0.00    +0.230 C 
ATOM     10  C   UNL     1      36.727 -18.642 -20.971  0.00  0.00    +0.058 C 
ATOM     11  C   UNL     1      35.446 -20.405 -19.953  0.00  0.00    +0.091 C 
ATOM     12  C   UNL     1      36.654 -19.735 -20.113  0.00  0.00    +0.010 C 
ATOM     13  C   UNL     1      34.351 -19.949 -20.668  0.00  0.00    +0.106 C 
BRANCH  11  17
ATOM     14  F   UNL     1      35.323 -22.780 -19.689  0.00  0.00    -0.166 F 
ATOM     15  F   UNL     1      36.360 -21.670 -18.140  0.00  0.00    -0.166 F 
ATOM     16  F   UNL     1      34.194 -21.556 -18.292  0.00  0.00    -0.166 F 
ATOM     17  C   UNL     1      35.335 -21.576 -19.041  0.00  0.00    +0.420 C 
ENDBRANCH  11  17
ENDBRANCH   7   9
ENDBRANCH   4   7
BRANCH   1  18
ATOM     18  C   UNL     1      33.893 -12.703 -23.472  0.00  0.00    +0.027 C 
BRANCH  18  21
ATOM     19  O   UNL     1      32.236  -6.785 -23.922  0.00  0.00    -0.226 OA
ATOM     20  N   UNL     1      32.614  -8.688 -22.638  0.00  0.00    -0.246 N 
ATOM     21  C   UNL     1      33.777 -11.340 -22.794  0.00  0.00    +0.008 C 
ATOM     22  C   UNL     1      34.190 -10.213 -23.754  0.00  0.00    +0.022 C 
ATOM     23  C   UNL     1      32.348 -11.107 -22.276  0.00  0.00    +0.022 C 
ATOM     24  C   UNL     1      33.991  -8.840 -23.116  0.00  0.00    +0.097 C 
ATOM     25  C   UNL     1      32.203  -9.713 -21.669  0.00  0.00    +0.097 C 
ATOM     26  C   UNL     1      31.840  -7.625 -23.114  0.00  0.00    +0.402 C 
BRANCH  26  27
ATOM     27  O   UNL     1      30.564  -7.544 -22.639  0.00  0.00    -0.466 OA
ATOM     28  H   UNL     1      30.216  -8.236 -22.113  0.00  0.00    +0.297 HD
ENDBRANCH  26  27
ENDBRANCH  18  21
ENDBRANCH   1  18
TORSDOF 6
ENDMDL
