MODEL 1
REMARK VINA RESULT:     -13.0      0.000      0.000
REMARK  Name = 24767976
REMARK  5 active torsions:
REMARK  status: ('A' for Active; 'I' for Inactive)
REMARK    1  A    between atoms: C_1  and  N_9
REMARK    2  A    between atoms: C_2  and  O_19
REMARK    3  A    between atoms: C_10  and  C_14
REMARK    4  A    between atoms: O_19  and  C_27
REMARK    5  A    between atoms: C_31  and  C_33
REMARK                            x       y       z     vdW  Elec       q    Type
REMARK                         _______ _______ _______ _____ _____    ______ ____
ROOT
ATOM      1  C   UNL     1      34.934 -21.855 -18.080  0.00  0.00    +0.050 C 
ATOM      2  C   UNL     1      35.494 -20.401 -19.926  0.00  0.00    +0.148 C 
ATOM      3  C   UNL     1      33.579 -21.705 -18.372  0.00  0.00    -0.008 C 
ATOM      4  C   UNL     1      35.892 -21.203 -18.857  0.00  0.00    +0.052 C 
ATOM      5  C   UNL     1      33.181 -20.902 -19.442  0.00  0.00    +0.000 C 
ATOM      6  C   UNL     1      34.138 -20.251 -20.219  0.00  0.00    +0.037 C 
ATOM      7  C   UNL     1      32.532 -22.391 -17.556  0.00  0.00    +0.032 C 
ENDROOT
BRANCH   1   9
ATOM      8  O   UNL     1      36.931 -21.304 -15.912  0.00  0.00    -0.268 OA
ATOM      9  N   UNL     1      35.353 -22.654 -17.014  0.00  0.00    -0.279 N 
ATOM     10  C   UNL     1      36.294 -22.347 -16.025  0.00  0.00    +0.265 C 
ATOM     11  H   UNL     1      34.935 -23.544 -16.951  0.00  0.00    +0.155 HD
BRANCH  10  14
ATOM     12  N   UNL     1      35.596 -24.061 -14.293  0.00  0.00    -0.206 N 
ATOM     13  N   UNL     1      36.088 -24.998 -13.465  0.00  0.00    -0.182 NA
ATOM     14  C   UNL     1      36.550 -23.423 -15.032  0.00  0.00    +0.124 C 
ATOM     15  C   UNL     1      37.748 -23.982 -14.660  0.00  0.00    +0.037 C 
ATOM     16  C   UNL     1      37.403 -24.945 -13.694  0.00  0.00    +0.078 C 
ATOM     17  C   UNL     1      34.171 -23.824 -14.326  0.00  0.00    +0.140 C 
ATOM     18  C   UNL     1      38.310 -25.844 -12.960  0.00  0.00    +0.054 C 
ENDBRANCH  10  14
ENDBRANCH   1   9
BRANCH   2  19
ATOM     19  O   UNL     1      36.449 -19.750 -20.703  0.00  0.00    -0.435 OA
BRANCH  19  27
ATOM     20  N   UNL     1      34.011 -16.512 -24.171  0.00  0.00    -0.373 NA
ATOM     21  N   UNL     1      35.162 -16.931 -22.307  0.00  0.00    -0.173 N 
ATOM     22  N   UNL     1      35.820 -17.619 -21.332  0.00  0.00    -0.138 NA
ATOM     23  C   UNL     1      34.265 -15.343 -23.500  0.00  0.00    +0.187 C 
ATOM     24  C   UNL     1      34.973 -15.575 -22.346  0.00  0.00    +0.193 C 
ATOM     25  C   UNL     1      34.560 -17.459 -23.437  0.00  0.00    +0.204 C 
ATOM     26  C   UNL     1      34.628 -18.862 -23.610  0.00  0.00    +0.054 C 
ATOM     27  C   UNL     1      35.846 -18.894 -21.551  0.00  0.00    +0.245 C 
ATOM     28  C   UNL     1      35.256 -19.615 -22.699  0.00  0.00    +0.063 C 
ATOM     29  O   UNL     1      34.620 -12.592 -22.330  0.00  0.00    -0.275 OA
ATOM     30  N   UNL     1      33.845 -14.116 -23.958  0.00  0.00    -0.261 N 
ATOM     31  C   UNL     1      34.035 -12.847 -23.374  0.00  0.00    +0.227 C 
ATOM     32  H   UNL     1      33.347 -14.126 -24.805  0.00  0.00    +0.157 HD
BRANCH  31  33
ATOM     33  C   UNL     1      33.441 -11.712 -24.151  0.00  0.00    +0.077 C 
ATOM     34  C   UNL     1      34.353 -10.789 -24.905  0.00  0.00    +0.010 C 
ATOM     35  C   UNL     1      33.655 -10.308 -23.667  0.00  0.00    +0.010 C 
ENDBRANCH  31  33
ENDBRANCH  19  27
ENDBRANCH   2  19
TORSDOF 5
ENDMDL
MODEL 2
REMARK VINA RESULT:     -12.8      3.922     13.000
REMARK  Name = 24767976
REMARK  5 active torsions:
REMARK  status: ('A' for Active; 'I' for Inactive)
REMARK    1  A    between atoms: C_1  and  N_9
REMARK    2  A    between atoms: C_2  and  O_19
REMARK    3  A    between atoms: C_10  and  C_14
REMARK    4  A    between atoms: O_19  and  C_27
REMARK    5  A    between atoms: C_31  and  C_33
REMARK                            x       y       z     vdW  Elec       q    Type
REMARK                         _______ _______ _______ _____ _____    ______ ____
ROOT
ATOM      1  C   UNL     1      32.395 -10.074 -22.176  0.00  0.00    +0.050 C 
ATOM      2  C   UNL     1      33.507 -12.027 -23.060  0.00  0.00    +0.148 C 
ATOM      3  C   UNL     1      31.778 -10.863 -21.206  0.00  0.00    -0.008 C 
ATOM      4  C   UNL     1      33.259 -10.656 -23.103  0.00  0.00    +0.052 C 
ATOM      5  C   UNL     1      32.026 -12.236 -21.163  0.00  0.00    +0.000 C 
ATOM      6  C   UNL     1      32.891 -12.818 -22.090  0.00  0.00    +0.037 C 
ATOM      7  C   UNL     1      30.847 -10.267 -20.201  0.00  0.00    +0.032 C 
ENDROOT
BRANCH   1   9
ATOM      8  O   UNL     1      34.258  -7.769 -21.727  0.00  0.00    -0.268 OA
ATOM      9  N   UNL     1      32.160  -8.698 -22.235  0.00  0.00    -0.279 N 
ATOM     10  C   UNL     1      33.071  -7.659 -22.015  0.00  0.00    +0.265 C 
ATOM     11  H   UNL     1      31.239  -8.426 -22.458  0.00  0.00    +0.155 HD
BRANCH  10  14
ATOM     12  N   UNL     1      32.866  -5.357 -23.056  0.00  0.00    -0.206 N 
ATOM     13  N   UNL     1      32.210  -4.190 -22.937  0.00  0.00    -0.182 NA
ATOM     14  C   UNL     1      32.510  -6.286 -22.123  0.00  0.00    +0.124 C 
ATOM     15  C   UNL     1      31.554  -5.686 -21.341  0.00  0.00    +0.037 C 
ATOM     16  C   UNL     1      31.410  -4.397 -21.889  0.00  0.00    +0.078 C 
ATOM     17  C   UNL     1      33.844  -5.514 -24.108  0.00  0.00    +0.140 C 
ATOM     18  C   UNL     1      30.508  -3.325 -21.434  0.00  0.00    +0.054 C 
ENDBRANCH  10  14
ENDBRANCH   1   9
BRANCH   2  19
ATOM     19  O   UNL     1      34.370 -12.609 -23.985  0.00  0.00    -0.435 OA
BRANCH  19  27
ATOM     20  N   UNL     1      34.313 -17.923 -23.520  0.00  0.00    -0.373 NA
ATOM     21  N   UNL     1      34.848 -15.868 -22.835  0.00  0.00    -0.173 N 
ATOM     22  N   UNL     1      34.948 -14.510 -22.809  0.00  0.00    -0.138 NA
ATOM     23  C   UNL     1      35.010 -17.985 -22.340  0.00  0.00    +0.187 C 
ATOM     24  C   UNL     1      35.352 -16.730 -21.897  0.00  0.00    +0.193 C 
ATOM     25  C   UNL     1      34.225 -16.639 -23.803  0.00  0.00    +0.204 C 
ATOM     26  C   UNL     1      33.625 -15.955 -24.887  0.00  0.00    +0.054 C 
ATOM     27  C   UNL     1      34.380 -13.948 -23.826  0.00  0.00    +0.245 C 
ATOM     28  C   UNL     1      33.677 -14.618 -24.940  0.00  0.00    +0.063 C 
ATOM     29  O   UNL     1      36.495 -18.526 -19.779  0.00  0.00    -0.275 OA
ATOM     30  N   UNL     1      35.308 -19.172 -21.714  0.00  0.00    -0.261 N 
ATOM     31  C   UNL     1      36.010 -19.380 -20.509  0.00  0.00    +0.227 C 
ATOM     32  H   UNL     1      34.988 -19.985 -22.166  0.00  0.00    +0.157 HD
BRANCH  31  33
ATOM     33  C   UNL     1      36.152 -20.817 -20.113  0.00  0.00    +0.077 C 
ATOM     34  C   UNL     1      35.107 -21.438 -19.233  0.00  0.00    +0.010 C 
ATOM     35  C   UNL     1      36.475 -21.152 -18.687  0.00  0.00    +0.010 C 
ENDBRANCH  31  33
ENDBRANCH  19  27
ENDBRANCH   2  19
TORSDOF 5
ENDMDL
MODEL 3
REMARK VINA RESULT:     -12.6      1.790      2.047
REMARK  Name = 24767976
REMARK  5 active torsions:
REMARK  status: ('A' for Active; 'I' for Inactive)
REMARK    1  A    between atoms: C_1  and  N_9
REMARK    2  A    between atoms: C_2  and  O_19
REMARK    3  A    between atoms: C_10  and  C_14
REMARK    4  A    between atoms: O_19  and  C_27
REMARK    5  A    between atoms: C_31  and  C_33
REMARK                            x       y       z     vdW  Elec       q    Type
REMARK                         _______ _______ _______ _____ _____    ______ ____
ROOT
ATOM      1  C   UNL     1      35.351 -21.206 -18.723  0.00  0.00    +0.050 C 
ATOM      2  C   UNL     1      35.728 -19.501 -20.391  0.00  0.00    +0.148 C 
ATOM      3  C   UNL     1      34.015 -21.293 -19.111  0.00  0.00    -0.008 C 
ATOM      4  C   UNL     1      36.208 -20.310 -19.363  0.00  0.00    +0.052 C 
ATOM      5  C   UNL     1      33.535 -20.483 -20.141  0.00  0.00    +0.000 C 
ATOM      6  C   UNL     1      34.391 -19.587 -20.781  0.00  0.00    +0.037 C 
ATOM      7  C   UNL     1      33.075 -22.244 -18.443  0.00  0.00    +0.032 C 
ENDROOT
BRANCH   1   9
ATOM      8  O   UNL     1      37.305 -20.567 -16.539  0.00  0.00    -0.268 OA
ATOM      9  N   UNL     1      35.852 -22.010 -17.695  0.00  0.00    -0.279 N 
ATOM     10  C   UNL     1      36.768 -21.659 -16.696  0.00  0.00    +0.265 C 
ATOM     11  H   UNL     1      35.520 -22.937 -17.670  0.00  0.00    +0.155 HD
BRANCH  10  14
ATOM     12  N   UNL     1      36.253 -23.452 -14.980  0.00  0.00    -0.206 N 
ATOM     13  N   UNL     1      36.835 -24.387 -14.211  0.00  0.00    -0.182 NA
ATOM     14  C   UNL     1      37.130 -22.750 -15.753  0.00  0.00    +0.124 C 
ATOM     15  C   UNL     1      38.373 -23.261 -15.470  0.00  0.00    +0.037 C 
ATOM     16  C   UNL     1      38.130 -24.267 -14.515  0.00  0.00    +0.078 C 
ATOM     17  C   UNL     1      34.819 -23.281 -14.921  0.00  0.00    +0.140 C 
ATOM     18  C   UNL     1      39.119 -25.142 -13.863  0.00  0.00    +0.054 C 
ENDBRANCH  10  14
ENDBRANCH   1   9
BRANCH   2  19
ATOM     19  O   UNL     1      36.582 -18.606 -21.030  0.00  0.00    -0.435 OA
BRANCH  19  27
ATOM     20  N   UNL     1      33.825 -14.557 -23.142  0.00  0.00    -0.373 NA
ATOM     21  N   UNL     1      34.651 -15.728 -21.433  0.00  0.00    -0.173 N 
ATOM     22  N   UNL     1      35.315 -16.697 -20.743  0.00  0.00    -0.138 NA
ATOM     23  C   UNL     1      33.466 -13.974 -21.953  0.00  0.00    +0.187 C 
ATOM     24  C   UNL     1      33.963 -14.679 -20.883  0.00  0.00    +0.193 C 
ATOM     25  C   UNL     1      34.539 -15.613 -22.808  0.00  0.00    +0.204 C 
ATOM     26  C   UNL     1      35.179 -16.601 -23.594  0.00  0.00    +0.054 C 
ATOM     27  C   UNL     1      35.876 -17.567 -21.519  0.00  0.00    +0.245 C 
ATOM     28  C   UNL     1      35.855 -17.591 -22.997  0.00  0.00    +0.063 C 
ATOM     29  O   UNL     1      32.486 -12.416 -19.572  0.00  0.00    -0.275 OA
ATOM     30  N   UNL     1      32.704 -12.832 -21.885  0.00  0.00    -0.261 N 
ATOM     31  C   UNL     1      32.265 -12.132 -20.742  0.00  0.00    +0.227 C 
ATOM     32  H   UNL     1      32.428 -12.451 -22.749  0.00  0.00    +0.157 HD
BRANCH  31  33
ATOM     33  C   UNL     1      31.447 -10.914 -21.036  0.00  0.00    +0.077 C 
ATOM     34  C   UNL     1      32.143  -9.601 -21.246  0.00  0.00    +0.010 C 
ATOM     35  C   UNL     1      31.346  -9.836 -19.997  0.00  0.00    +0.010 C 
ENDBRANCH  31  33
ENDBRANCH  19  27
ENDBRANCH   2  19
TORSDOF 5
ENDMDL
MODEL 4
REMARK VINA RESULT:     -11.8      1.675     11.291
REMARK  Name = 24767976
REMARK  5 active torsions:
REMARK  status: ('A' for Active; 'I' for Inactive)
REMARK    1  A    between atoms: C_1  and  N_9
REMARK    2  A    between atoms: C_2  and  O_19
REMARK    3  A    between atoms: C_10  and  C_14
REMARK    4  A    between atoms: O_19  and  C_27
REMARK    5  A    between atoms: C_31  and  C_33
REMARK                            x       y       z     vdW  Elec       q    Type
REMARK                         _______ _______ _______ _____ _____    ______ ____
ROOT
ATOM      1  C   UNL     1      35.026 -19.048 -20.748  0.00  0.00    +0.050 C 
ATOM      2  C   UNL     1      34.093 -20.973 -19.626  0.00  0.00    +0.148 C 
ATOM      3  C   UNL     1      36.311 -19.536 -20.516  0.00  0.00    -0.008 C 
ATOM      4  C   UNL     1      33.916 -19.767 -20.302  0.00  0.00    +0.052 C 
ATOM      5  C   UNL     1      36.488 -20.743 -19.839  0.00  0.00    +0.000 C 
ATOM      6  C   UNL     1      35.378 -21.462 -19.394  0.00  0.00    +0.037 C 
ATOM      7  C   UNL     1      37.518 -18.787 -20.982  0.00  0.00    +0.032 C 
ENDROOT
BRANCH   1   9
ATOM      8  O   UNL     1      35.258 -16.221 -19.777  0.00  0.00    -0.268 OA
ATOM      9  N   UNL     1      34.829 -17.842 -21.424  0.00  0.00    -0.279 N 
ATOM     10  C   UNL     1      34.950 -16.542 -20.920  0.00  0.00    +0.265 C 
ATOM     11  H   UNL     1      34.571 -17.916 -22.372  0.00  0.00    +0.155 HD
BRANCH  10  14
ATOM     12  N   UNL     1      34.529 -15.604 -23.237  0.00  0.00    -0.206 N 
ATOM     13  N   UNL     1      34.249 -14.462 -23.888  0.00  0.00    -0.182 NA
ATOM     14  C   UNL     1      34.646 -15.454 -21.886  0.00  0.00    +0.124 C 
ATOM     15  C   UNL     1      34.427 -14.121 -21.636  0.00  0.00    +0.037 C 
ATOM     16  C   UNL     1      34.188 -13.560 -22.905  0.00  0.00    +0.078 C 
ATOM     17  C   UNL     1      34.674 -16.829 -23.989  0.00  0.00    +0.140 C 
ATOM     18  C   UNL     1      33.893 -12.152 -23.222  0.00  0.00    +0.054 C 
ENDBRANCH  10  14
ENDBRANCH   1   9
BRANCH   2  19
ATOM     19  O   UNL     1      32.985 -21.691 -19.181  0.00  0.00    -0.435 OA
BRANCH  19  27
ATOM     20  N   UNL     1      33.791 -23.784 -14.341  0.00  0.00    -0.373 NA
ATOM     21  N   UNL     1      34.481 -22.947 -16.289  0.00  0.00    -0.173 N 
ATOM     22  N   UNL     1      34.444 -22.407 -17.539  0.00  0.00    -0.138 NA
ATOM     23  C   UNL     1      35.162 -23.771 -14.390  0.00  0.00    +0.187 C 
ATOM     24  C   UNL     1      35.612 -23.259 -15.582  0.00  0.00    +0.193 C 
ATOM     25  C   UNL     1      33.398 -23.284 -15.495  0.00  0.00    +0.204 C 
ATOM     26  C   UNL     1      32.108 -23.047 -16.026  0.00  0.00    +0.054 C 
ATOM     27  C   UNL     1      33.237 -22.216 -17.965  0.00  0.00    +0.245 C 
ATOM     28  C   UNL     1      31.979 -22.518 -17.249  0.00  0.00    +0.063 C 
ATOM     29  O   UNL     1      38.157 -23.903 -14.122  0.00  0.00    -0.275 OA
ATOM     30  N   UNL     1      35.947 -24.222 -13.356  0.00  0.00    -0.261 N 
ATOM     31  C   UNL     1      37.354 -24.267 -13.273  0.00  0.00    +0.227 C 
ATOM     32  H   UNL     1      35.463 -24.559 -12.568  0.00  0.00    +0.157 HD
BRANCH  31  33
ATOM     33  C   UNL     1      37.883 -24.822 -11.987  0.00  0.00    +0.077 C 
ATOM     34  C   UNL     1      37.558 -26.240 -11.617  0.00  0.00    +0.010 C 
ATOM     35  C   UNL     1      36.926 -25.104 -10.866  0.00  0.00    +0.010 C 
ENDBRANCH  31  33
ENDBRANCH  19  27
ENDBRANCH   2  19
TORSDOF 5
ENDMDL
MODEL 5
REMARK VINA RESULT:     -11.7      2.188      3.511
REMARK  Name = 24767976
REMARK  5 active torsions:
REMARK  status: ('A' for Active; 'I' for Inactive)
REMARK    1  A    between atoms: C_1  and  N_9
REMARK    2  A    between atoms: C_2  and  O_19
REMARK    3  A    between atoms: C_10  and  C_14
REMARK    4  A    between atoms: O_19  and  C_27
REMARK    5  A    between atoms: C_31  and  C_33
REMARK                            x       y       z     vdW  Elec       q    Type
REMARK                         _______ _______ _______ _____ _____    ______ ____
ROOT
ATOM      1  C   UNL     1      34.880 -21.150 -18.702  0.00  0.00    +0.050 C 
ATOM      2  C   UNL     1      35.262 -20.095 -20.841  0.00  0.00    +0.148 C 
ATOM      3  C   UNL     1      36.255 -21.185 -18.473  0.00  0.00    -0.008 C 
ATOM      4  C   UNL     1      34.383 -20.605 -19.887  0.00  0.00    +0.052 C 
ATOM      5  C   UNL     1      37.134 -20.674 -19.428  0.00  0.00    +0.000 C 
ATOM      6  C   UNL     1      36.638 -20.129 -20.613  0.00  0.00    +0.037 C 
ATOM      7  C   UNL     1      36.815 -21.763 -17.214  0.00  0.00    +0.032 C 
ENDROOT
BRANCH   1   9
ATOM      8  O   UNL     1      33.786 -23.920 -18.356  0.00  0.00    -0.268 OA
ATOM      9  N   UNL     1      33.983 -21.655 -17.757  0.00  0.00    -0.279 N 
ATOM     10  C   UNL     1      33.503 -22.965 -17.641  0.00  0.00    +0.265 C 
ATOM     11  H   UNL     1      33.647 -21.011 -17.092  0.00  0.00    +0.155 HD
BRANCH  10  14
ATOM     12  N   UNL     1      32.836 -23.646 -15.292  0.00  0.00    -0.206 N 
ATOM     13  N   UNL     1      31.771 -23.763 -14.480  0.00  0.00    -0.182 NA
ATOM     14  C   UNL     1      32.528 -23.190 -16.540  0.00  0.00    +0.124 C 
ATOM     15  C   UNL     1      31.169 -22.996 -16.546  0.00  0.00    +0.037 C 
ATOM     16  C   UNL     1      30.756 -23.364 -15.251  0.00  0.00    +0.078 C 
ATOM     17  C   UNL     1      34.146 -23.996 -14.795  0.00  0.00    +0.140 C 
ATOM     18  C   UNL     1      29.387 -23.349 -14.708  0.00  0.00    +0.054 C 
ENDBRANCH  10  14
ENDBRANCH   1   9
BRANCH   2  19
ATOM     19  O   UNL     1      34.767 -19.551 -22.024  0.00  0.00    -0.435 OA
BRANCH  19  27
ATOM     20  N   UNL     1      34.901 -14.238 -21.564  0.00  0.00    -0.373 NA
ATOM     21  N   UNL     1      34.569 -16.133 -22.693  0.00  0.00    -0.173 N 
ATOM     22  N   UNL     1      34.487 -17.464 -22.971  0.00  0.00    -0.138 NA
ATOM     23  C   UNL     1      34.522 -13.959 -22.852  0.00  0.00    +0.187 C 
ATOM     24  C   UNL     1      34.311 -15.111 -23.570  0.00  0.00    +0.193 C 
ATOM     25  C   UNL     1      34.924 -15.554 -21.486  0.00  0.00    +0.204 C 
ATOM     26  C   UNL     1      35.239 -16.427 -20.419  0.00  0.00    +0.054 C 
ATOM     27  C   UNL     1      34.787 -18.205 -21.954  0.00  0.00    +0.245 C 
ATOM     28  C   UNL     1      35.184 -17.752 -20.604  0.00  0.00    +0.063 C 
ATOM     29  O   UNL     1      33.720 -12.953 -25.573  0.00  0.00    -0.275 OA
ATOM     30  N   UNL     1      34.383 -12.676 -23.325  0.00  0.00    -0.261 N 
ATOM     31  C   UNL     1      34.004 -12.248 -24.614  0.00  0.00    +0.227 C 
ATOM     32  H   UNL     1      34.573 -11.960 -22.677  0.00  0.00    +0.157 HD
BRANCH  31  33
ATOM     33  C   UNL     1      33.951 -10.762 -24.785  0.00  0.00    +0.077 C 
ATOM     34  C   UNL     1      35.221 -10.015 -25.072  0.00  0.00    +0.010 C 
ATOM     35  C   UNL     1      34.561  -9.885 -23.731  0.00  0.00    +0.010 C 
ENDBRANCH  31  33
ENDBRANCH  19  27
ENDBRANCH   2  19
TORSDOF 5
ENDMDL
MODEL 6
REMARK VINA RESULT:     -11.6      1.752     11.070
REMARK  Name = 24767976
REMARK  5 active torsions:
REMARK  status: ('A' for Active; 'I' for Inactive)
REMARK    1  A    between atoms: C_1  and  N_9
REMARK    2  A    between atoms: C_2  and  O_19
REMARK    3  A    between atoms: C_10  and  C_14
REMARK    4  A    between atoms: O_19  and  C_27
REMARK    5  A    between atoms: C_31  and  C_33
REMARK                            x       y       z     vdW  Elec       q    Type
REMARK                         _______ _______ _______ _____ _____    ______ ____
ROOT
ATOM      1  C   UNL     1      34.619 -16.700 -23.080  0.00  0.00    +0.050 C 
ATOM      2  C   UNL     1      35.833 -18.531 -22.078  0.00  0.00    +0.148 C 
ATOM      3  C   UNL     1      34.129 -17.560 -24.061  0.00  0.00    -0.008 C 
ATOM      4  C   UNL     1      35.471 -17.185 -22.088  0.00  0.00    +0.052 C 
ATOM      5  C   UNL     1      34.491 -18.908 -24.051  0.00  0.00    +0.000 C 
ATOM      6  C   UNL     1      35.344 -19.393 -23.059  0.00  0.00    +0.037 C 
ATOM      7  C   UNL     1      33.215 -17.068 -25.136  0.00  0.00    +0.032 C 
ENDROOT
BRANCH   1   9
ATOM      8  O   UNL     1      34.587 -14.717 -20.831  0.00  0.00    -0.268 OA
ATOM      9  N   UNL     1      34.266 -15.347 -23.073  0.00  0.00    -0.279 N 
ATOM     10  C   UNL     1      34.270 -14.463 -21.988  0.00  0.00    +0.265 C 
ATOM     11  H   UNL     1      33.980 -14.971 -23.937  0.00  0.00    +0.155 HD
BRANCH  10  14
ATOM     12  N   UNL     1      32.796 -12.427 -21.659  0.00  0.00    -0.206 N 
ATOM     13  N   UNL     1      32.578 -11.185 -22.123  0.00  0.00    -0.182 NA
ATOM     14  C   UNL     1      33.812 -13.081 -22.292  0.00  0.00    +0.124 C 
ATOM     15  C   UNL     1      34.292 -12.206 -23.236  0.00  0.00    +0.037 C 
ATOM     16  C   UNL     1      33.495 -11.055 -23.085  0.00  0.00    +0.078 C 
ATOM     17  C   UNL     1      31.974 -12.934 -20.584  0.00  0.00    +0.140 C 
ATOM     18  C   UNL     1      33.580  -9.800 -23.850  0.00  0.00    +0.054 C 
ENDBRANCH  10  14
ENDBRANCH   1   9
BRANCH   2  19
ATOM     19  O   UNL     1      36.684 -19.016 -21.088  0.00  0.00    -0.435 OA
BRANCH  19  27
ATOM     20  N   UNL     1      33.824 -22.168 -17.872  0.00  0.00    -0.373 NA
ATOM     21  N   UNL     1      35.712 -21.177 -18.526  0.00  0.00    -0.173 N 
ATOM     22  N   UNL     1      36.574 -20.409 -19.249  0.00  0.00    -0.138 NA
ATOM     23  C   UNL     1      34.853 -22.514 -17.035  0.00  0.00    +0.187 C 
ATOM     24  C   UNL     1      36.029 -21.916 -17.417  0.00  0.00    +0.193 C 
ATOM     25  C   UNL     1      34.360 -21.361 -18.766  0.00  0.00    +0.204 C 
ATOM     26  C   UNL     1      33.802 -20.686 -19.877  0.00  0.00    +0.054 C 
ATOM     27  C   UNL     1      36.001 -19.821 -20.249  0.00  0.00    +0.245 C 
ATOM     28  C   UNL     1      34.579 -19.910 -20.642  0.00  0.00    +0.063 C 
ATOM     29  O   UNL     1      36.837 -23.497 -14.995  0.00  0.00    -0.275 OA
ATOM     30  N   UNL     1      34.687 -23.357 -15.961  0.00  0.00    -0.261 N 
ATOM     31  C   UNL     1      35.649 -23.793 -15.026  0.00  0.00    +0.227 C 
ATOM     32  H   UNL     1      33.776 -23.700 -15.826  0.00  0.00    +0.157 HD
BRANCH  31  33
ATOM     33  C   UNL     1      35.118 -24.714 -13.973  0.00  0.00    +0.077 C 
ATOM     34  C   UNL     1      34.395 -24.133 -12.793  0.00  0.00    +0.010 C 
ATOM     35  C   UNL     1      35.764 -24.722 -12.618  0.00  0.00    +0.010 C 
ENDBRANCH  31  33
ENDBRANCH  19  27
ENDBRANCH   2  19
TORSDOF 5
ENDMDL
MODEL 7
REMARK VINA RESULT:     -10.8      2.419      4.553
REMARK  Name = 24767976
REMARK  5 active torsions:
REMARK  status: ('A' for Active; 'I' for Inactive)
REMARK    1  A    between atoms: C_1  and  N_9
REMARK    2  A    between atoms: C_2  and  O_19
REMARK    3  A    between atoms: C_10  and  C_14
REMARK    4  A    between atoms: O_19  and  C_27
REMARK    5  A    between atoms: C_31  and  C_33
REMARK                            x       y       z     vdW  Elec       q    Type
REMARK                         _______ _______ _______ _____ _____    ______ ____
ROOT
ATOM      1  C   UNL     1      34.251 -23.893 -14.818  0.00  0.00    +0.050 C 
ATOM      2  C   UNL     1      32.779 -23.264 -16.627  0.00  0.00    +0.148 C 
ATOM      3  C   UNL     1      33.317 -23.427 -13.895  0.00  0.00    -0.008 C 
ATOM      4  C   UNL     1      33.983 -23.812 -16.185  0.00  0.00    +0.052 C 
ATOM      5  C   UNL     1      32.112 -22.879 -14.337  0.00  0.00    +0.000 C 
ATOM      6  C   UNL     1      31.844 -22.797 -15.704  0.00  0.00    +0.037 C 
ATOM      7  C   UNL     1      33.578 -23.502 -12.425  0.00  0.00    +0.032 C 
ENDROOT
BRANCH   1   9
ATOM      8  O   UNL     1      36.951 -22.630 -14.495  0.00  0.00    -0.268 OA
ATOM      9  N   UNL     1      35.462 -24.447 -14.395  0.00  0.00    -0.279 N 
ATOM     10  C   UNL     1      36.700 -23.808 -14.262  0.00  0.00    +0.265 C 
ATOM     11  H   UNL     1      35.442 -25.404 -14.162  0.00  0.00    +0.155 HD
BRANCH  10  14
ATOM     12  N   UNL     1      37.861 -25.370 -12.638  0.00  0.00    -0.206 N 
ATOM     13  N   UNL     1      38.988 -26.082 -12.468  0.00  0.00    -0.182 NA
ATOM     14  C   UNL     1      37.820 -24.677 -13.812  0.00  0.00    +0.124 C 
ATOM     15  C   UNL     1      39.001 -24.955 -14.455  0.00  0.00    +0.037 C 
ATOM     16  C   UNL     1      39.680 -25.826 -13.581  0.00  0.00    +0.078 C 
ATOM     17  C   UNL     1      36.845 -25.400 -11.612  0.00  0.00    +0.140 C 
ATOM     18  C   UNL     1      41.005 -26.439 -13.776  0.00  0.00    +0.054 C 
ENDBRANCH  10  14
ENDBRANCH   1   9
BRANCH   2  19
ATOM     19  O   UNL     1      32.511 -23.182 -17.991  0.00  0.00    -0.435 OA
BRANCH  19  27
ATOM     20  N   UNL     1      35.920 -19.695 -20.154  0.00  0.00    -0.373 NA
ATOM     21  N   UNL     1      33.942 -20.715 -20.002  0.00  0.00    -0.173 N 
ATOM     22  N   UNL     1      32.959 -21.551 -19.563  0.00  0.00    -0.138 NA
ATOM     23  C   UNL     1      35.063 -19.209 -21.109  0.00  0.00    +0.187 C 
ATOM     24  C   UNL     1      33.836 -19.823 -21.036  0.00  0.00    +0.193 C 
ATOM     25  C   UNL     1      35.226 -20.602 -19.496  0.00  0.00    +0.204 C 
ATOM     26  C   UNL     1      35.568 -21.439 -18.408  0.00  0.00    +0.054 C 
ATOM     27  C   UNL     1      33.337 -22.287 -18.569  0.00  0.00    +0.245 C 
ATOM     28  C   UNL     1      34.662 -22.292 -17.914  0.00  0.00    +0.063 C 
ATOM     29  O   UNL     1      33.492 -17.901 -23.318  0.00  0.00    -0.275 OA
ATOM     30  N   UNL     1      35.426 -18.233 -22.006  0.00  0.00    -0.261 N 
ATOM     31  C   UNL     1      34.654 -17.647 -23.030  0.00  0.00    +0.227 C 
ATOM     32  H   UNL     1      36.347 -17.898 -21.922  0.00  0.00    +0.157 HD
BRANCH  31  33
ATOM     33  C   UNL     1      35.370 -16.601 -23.827  0.00  0.00    +0.077 C 
ATOM     34  C   UNL     1      35.000 -15.159 -23.637  0.00  0.00    +0.010 C 
ATOM     35  C   UNL     1      34.627 -15.869 -24.905  0.00  0.00    +0.010 C 
ENDBRANCH  31  33
ENDBRANCH  19  27
ENDBRANCH   2  19
TORSDOF 5
ENDMDL
MODEL 8
REMARK VINA RESULT:     -10.1      2.568      5.207
REMARK  Name = 24767976
REMARK  5 active torsions:
REMARK  status: ('A' for Active; 'I' for Inactive)
REMARK    1  A    between atoms: C_1  and  N_9
REMARK    2  A    between atoms: C_2  and  O_19
REMARK    3  A    between atoms: C_10  and  C_14
REMARK    4  A    between atoms: O_19  and  C_27
REMARK    5  A    between atoms: C_31  and  C_33
REMARK                            x       y       z     vdW  Elec       q    Type
REMARK                         _______ _______ _______ _____ _____    ______ ____
ROOT
ATOM      1  C   UNL     1      35.193 -22.969 -15.309  0.00  0.00    +0.050 C 
ATOM      2  C   UNL     1      37.085 -21.754 -16.191  0.00  0.00    +0.148 C 
ATOM      3  C   UNL     1      36.053 -23.940 -14.799  0.00  0.00    -0.008 C 
ATOM      4  C   UNL     1      35.708 -21.876 -16.005  0.00  0.00    +0.052 C 
ATOM      5  C   UNL     1      37.431 -23.819 -14.985  0.00  0.00    +0.000 C 
ATOM      6  C   UNL     1      37.946 -22.725 -15.681  0.00  0.00    +0.037 C 
ATOM      7  C   UNL     1      35.528 -25.123 -14.050  0.00  0.00    +0.032 C 
ENDROOT
BRANCH   1   9
ATOM      8  O   UNL     1      33.017 -23.491 -17.305  0.00  0.00    -0.268 OA
ATOM      9  N   UNL     1      33.810 -23.073 -15.132  0.00  0.00    -0.279 N 
ATOM     10  C   UNL     1      32.834 -23.318 -16.105  0.00  0.00    +0.265 C 
ATOM     11  H   UNL     1      33.483 -22.958 -14.210  0.00  0.00    +0.155 HD
BRANCH  10  14
ATOM     12  N   UNL     1      30.994 -24.030 -14.514  0.00  0.00    -0.206 N 
ATOM     13  N   UNL     1      29.678 -23.889 -14.278  0.00  0.00    -0.182 NA
ATOM     14  C   UNL     1      31.433 -23.344 -15.608  0.00  0.00    +0.124 C 
ATOM     15  C   UNL     1      30.329 -22.710 -16.123  0.00  0.00    +0.037 C 
ATOM     16  C   UNL     1      29.278 -23.081 -15.263  0.00  0.00    +0.078 C 
ATOM     17  C   UNL     1      31.785 -24.856 -13.633  0.00  0.00    +0.140 C 
ATOM     18  C   UNL     1      27.863 -22.681 -15.351  0.00  0.00    +0.054 C 
ENDBRANCH  10  14
ENDBRANCH   1   9
BRANCH   2  19
ATOM     19  O   UNL     1      37.600 -20.663 -16.886  0.00  0.00    -0.435 OA
BRANCH  19  27
ATOM     20  N   UNL     1      34.889 -20.198 -21.456  0.00  0.00    -0.373 NA
ATOM     21  N   UNL     1      36.269 -19.447 -19.873  0.00  0.00    -0.173 N 
ATOM     22  N   UNL     1      37.018 -19.410 -18.736  0.00  0.00    -0.138 NA
ATOM     23  C   UNL     1      35.308 -18.928 -21.759  0.00  0.00    +0.187 C 
ATOM     24  C   UNL     1      36.160 -18.442 -20.797  0.00  0.00    +0.193 C 
ATOM     25  C   UNL     1      35.479 -20.495 -20.315  0.00  0.00    +0.204 C 
ATOM     26  C   UNL     1      35.435 -21.657 -19.509  0.00  0.00    +0.054 C 
ATOM     27  C   UNL     1      36.934 -20.501 -18.046  0.00  0.00    +0.245 C 
ATOM     28  C   UNL     1      36.141 -21.705 -18.373  0.00  0.00    +0.063 C 
ATOM     29  O   UNL     1      35.997 -16.174 -22.759  0.00  0.00    -0.275 OA
ATOM     30  N   UNL     1      34.902 -18.261 -22.891  0.00  0.00    -0.261 N 
ATOM     31  C   UNL     1      35.251 -16.965 -23.322  0.00  0.00    +0.227 C 
ATOM     32  H   UNL     1      34.287 -18.754 -23.478  0.00  0.00    +0.157 HD
BRANCH  31  33
ATOM     33  C   UNL     1      34.622 -16.550 -24.616  0.00  0.00    +0.077 C 
ATOM     34  C   UNL     1      33.535 -15.516 -24.600  0.00  0.00    +0.010 C 
ATOM     35  C   UNL     1      33.204 -16.950 -24.898  0.00  0.00    +0.010 C 
ENDBRANCH  31  33
ENDBRANCH  19  27
ENDBRANCH   2  19
TORSDOF 5
ENDMDL
MODEL 9
REMARK VINA RESULT:     -10.1      2.431     11.078
REMARK  Name = 24767976
REMARK  5 active torsions:
REMARK  status: ('A' for Active; 'I' for Inactive)
REMARK    1  A    between atoms: C_1  and  N_9
REMARK    2  A    between atoms: C_2  and  O_19
REMARK    3  A    between atoms: C_10  and  C_14
REMARK    4  A    between atoms: O_19  and  C_27
REMARK    5  A    between atoms: C_31  and  C_33
REMARK                            x       y       z     vdW  Elec       q    Type
REMARK                         _______ _______ _______ _____ _____    ______ ____
ROOT
ATOM      1  C   UNL     1      34.108 -14.491 -23.180  0.00  0.00    +0.050 C 
ATOM      2  C   UNL     1      35.398 -16.521 -22.969  0.00  0.00    +0.148 C 
ATOM      3  C   UNL     1      33.679 -14.893 -24.444  0.00  0.00    -0.008 C 
ATOM      4  C   UNL     1      34.967 -15.305 -22.442  0.00  0.00    +0.052 C 
ATOM      5  C   UNL     1      34.110 -16.111 -24.972  0.00  0.00    +0.000 C 
ATOM      6  C   UNL     1      34.970 -16.925 -24.234  0.00  0.00    +0.037 C 
ATOM      7  C   UNL     1      32.758 -14.041 -25.257  0.00  0.00    +0.032 C 
ENDROOT
BRANCH   1   9
ATOM      8  O   UNL     1      32.242 -13.932 -20.900  0.00  0.00    -0.268 OA
ATOM      9  N   UNL     1      33.686 -13.275 -22.635  0.00  0.00    -0.279 N 
ATOM     10  C   UNL     1      32.809 -13.070 -21.564  0.00  0.00    +0.265 C 
ATOM     11  H   UNL     1      34.051 -12.463 -23.056  0.00  0.00    +0.155 HD
BRANCH  10  14
ATOM     12  N   UNL     1      32.741 -10.586 -22.062  0.00  0.00    -0.206 N 
ATOM     13  N   UNL     1      32.408  -9.401 -21.522  0.00  0.00    -0.182 NA
ATOM     14  C   UNL     1      32.530 -11.648 -21.232  0.00  0.00    +0.124 C 
ATOM     15  C   UNL     1      32.024 -11.121 -20.069  0.00  0.00    +0.037 C 
ATOM     16  C   UNL     1      31.970  -9.735 -20.305  0.00  0.00    +0.078 C 
ATOM     17  C   UNL     1      33.268 -10.627 -23.406  0.00  0.00    +0.140 C 
ATOM     18  C   UNL     1      31.501  -8.686 -19.384  0.00  0.00    +0.054 C 
ENDBRANCH  10  14
ENDBRANCH   1   9
BRANCH   2  19
ATOM     19  O   UNL     1      36.257 -17.335 -22.233  0.00  0.00    -0.435 OA
BRANCH  19  27
ATOM     20  N   UNL     1      33.326 -21.110 -19.864  0.00  0.00    -0.373 NA
ATOM     21  N   UNL     1      35.147 -19.838 -20.071  0.00  0.00    -0.173 N 
ATOM     22  N   UNL     1      36.011 -18.904 -20.558  0.00  0.00    -0.138 NA
ATOM     23  C   UNL     1      34.226 -21.410 -18.874  0.00  0.00    +0.187 C 
ATOM     24  C   UNL     1      35.358 -20.639 -18.980  0.00  0.00    +0.193 C 
ATOM     25  C   UNL     1      33.898 -20.160 -20.577  0.00  0.00    +0.204 C 
ATOM     26  C   UNL     1      33.461 -19.451 -21.721  0.00  0.00    +0.054 C 
ATOM     27  C   UNL     1      35.551 -18.294 -21.602  0.00  0.00    +0.245 C 
ATOM     28  C   UNL     1      34.249 -18.516 -22.264  0.00  0.00    +0.063 C 
ATOM     29  O   UNL     1      35.928 -22.341 -16.572  0.00  0.00    -0.275 OA
ATOM     30  N   UNL     1      33.987 -22.367 -17.916  0.00  0.00    -0.261 N 
ATOM     31  C   UNL     1      34.817 -22.773 -16.851  0.00  0.00    +0.227 C 
ATOM     32  H   UNL     1      33.123 -22.830 -17.983  0.00  0.00    +0.157 HD
BRANCH  31  33
ATOM     33  C   UNL     1      34.237 -23.852 -15.989  0.00  0.00    +0.077 C 
ATOM     34  C   UNL     1      33.480 -23.467 -14.751  0.00  0.00    +0.010 C 
ATOM     35  C   UNL     1      34.834 -24.103 -14.635  0.00  0.00    +0.010 C 
ENDBRANCH  31  33
ENDBRANCH  19  27
ENDBRANCH   2  19
TORSDOF 5
ENDMDL
