MODEL 1
REMARK VINA RESULT:     -11.1      0.000      0.000
REMARK  Name = 25113181
REMARK  3 active torsions:
REMARK  status: ('A' for Active; 'I' for Inactive)
REMARK    1  A    between atoms: C_14  and  C_19
REMARK    2  A    between atoms: C_17  and  C_30
REMARK    3  A    between atoms: C_22  and  O_25
REMARK                            x       y       z     vdW  Elec       q    Type
REMARK                         _______ _______ _______ _____ _____    ______ ____
ROOT
ATOM      1  N   UNL     1      30.825 -23.704 -15.030  0.00  0.00    -0.290 N 
ATOM      2  N   UNL     1      28.466 -23.407 -16.615  0.00  0.00    +0.388 N 
ATOM      3  N   UNL     1      33.188 -23.491 -14.951  0.00  0.00    -0.392 NA
ATOM      4  N   UNL     1      33.166 -24.629 -12.416  0.00  0.00    -0.263 NA
ATOM      5  C   UNL     1      30.703 -22.579 -15.965  0.00  0.00    +0.070 C 
ATOM      6  C   UNL     1      29.990 -24.871 -15.331  0.00  0.00    +0.070 C 
ATOM      7  C   UNL     1      29.231 -22.227 -16.193  0.00  0.00    -0.056 C 
ATOM      8  C   UNL     1      28.541 -24.446 -15.580  0.00  0.00    -0.056 C 
ATOM      9  C   UNL     1      32.042 -23.875 -14.362  0.00  0.00    +0.184 C 
ATOM     10  C   UNL     1      27.074 -23.049 -16.882  0.00  0.00    -0.101 C 
ATOM     11  C   UNL     1      34.335 -23.674 -14.272  0.00  0.00    +0.131 C 
ATOM     12  C   UNL     1      32.031 -24.435 -13.113  0.00  0.00    +0.199 C 
ATOM     13  C   UNL     1      34.323 -24.250 -12.988  0.00  0.00    +0.084 C 
ATOM     14  C   UNL     1      35.551 -23.295 -14.833  0.00  0.00    +0.097 C 
ATOM     15  C   UNL     1      35.528 -24.427 -12.313  0.00  0.00    +0.078 C 
ATOM     16  C   UNL     1      36.753 -23.475 -14.149  0.00  0.00    -0.015 C 
ATOM     17  C   UNL     1      36.741 -24.043 -12.884  0.00  0.00    +0.052 C 
ATOM     18  H   UNL     1      28.872 -23.772 -17.477  0.00  0.00    -0.080 HD
ENDROOT
BRANCH  14  19
ATOM     19  C   UNL     1      35.602 -22.696 -16.156  0.00  0.00    -0.009 C 
ATOM     20  C   UNL     1      34.520 -22.829 -17.024  0.00  0.00    +0.033 C 
ATOM     21  C   UNL     1      36.734 -21.986 -16.555  0.00  0.00    -0.003 C 
ATOM     22  C   UNL     1      34.570 -22.253 -18.293  0.00  0.00    +0.133 C 
ATOM     23  C   UNL     1      36.784 -21.409 -17.825  0.00  0.00    +0.003 C 
ATOM     24  C   UNL     1      35.701 -21.542 -18.693  0.00  0.00    +0.037 C 
BRANCH  22  25
ATOM     25  O   UNL     1      33.512 -22.381 -19.141  0.00  0.00    -0.506 OA
ATOM     26  H   UNL     1      33.656 -22.439 -20.065  0.00  0.00    +0.292 HD
ENDBRANCH  22  25
ENDBRANCH  14  19
BRANCH  17  30
ATOM     27  F   UNL     1      39.093 -24.478 -12.945  0.00  0.00    -0.166 F 
ATOM     28  F   UNL     1      38.375 -23.169 -11.373  0.00  0.00    -0.166 F 
ATOM     29  F   UNL     1      37.963 -25.302 -11.279  0.00  0.00    -0.166 F 
ATOM     30  C   UNL     1      38.016 -24.241 -12.138  0.00  0.00    +0.415 C 
ENDBRANCH  17  30
TORSDOF 3
ENDMDL
MODEL 2
REMARK VINA RESULT:     -11.1      4.151      6.845
REMARK  Name = 25113181
REMARK  3 active torsions:
REMARK  status: ('A' for Active; 'I' for Inactive)
REMARK    1  A    between atoms: C_14  and  C_19
REMARK    2  A    between atoms: C_17  and  C_30
REMARK    3  A    between atoms: C_22  and  O_25
REMARK                            x       y       z     vdW  Elec       q    Type
REMARK                         _______ _______ _______ _____ _____    ______ ____
ROOT
ATOM      1  N   UNL     1      35.471 -24.469 -13.641  0.00  0.00    -0.290 N 
ATOM      2  N   UNL     1      38.301 -24.704 -13.325  0.00  0.00    +0.388 N 
ATOM      3  N   UNL     1      33.698 -23.625 -14.975  0.00  0.00    -0.392 NA
ATOM      4  N   UNL     1      31.892 -24.478 -13.043  0.00  0.00    -0.263 NA
ATOM      5  C   UNL     1      36.329 -24.670 -14.815  0.00  0.00    +0.070 C 
ATOM      6  C   UNL     1      36.130 -23.890 -12.466  0.00  0.00    +0.070 C 
ATOM      7  C   UNL     1      37.616 -25.398 -14.423  0.00  0.00    -0.056 C 
ATOM      8  C   UNL     1      37.424 -24.643 -12.150  0.00  0.00    -0.056 C 
ATOM      9  C   UNL     1      34.107 -24.244 -13.854  0.00  0.00    +0.184 C 
ATOM     10  C   UNL     1      39.556 -25.377 -12.995  0.00  0.00    -0.101 C 
ATOM     11  C   UNL     1      32.377 -23.429 -15.137  0.00  0.00    +0.131 C 
ATOM     12  C   UNL     1      33.217 -24.665 -12.901  0.00  0.00    +0.199 C 
ATOM     13  C   UNL     1      31.463 -23.861 -14.159  0.00  0.00    +0.084 C 
ATOM     14  C   UNL     1      31.897 -22.793 -16.279  0.00  0.00    +0.097 C 
ATOM     15  C   UNL     1      30.102 -23.641 -14.358  0.00  0.00    +0.078 C 
ATOM     16  C   UNL     1      30.533 -22.578 -16.470  0.00  0.00    -0.015 C 
ATOM     17  C   UNL     1      29.632 -23.005 -15.506  0.00  0.00    +0.052 C 
ATOM     18  H   UNL     1      38.519 -23.753 -13.623  0.00  0.00    -0.080 HD
ENDROOT
BRANCH  14  19
ATOM     19  C   UNL     1      32.811 -22.335 -17.311  0.00  0.00    -0.009 C 
ATOM     20  C   UNL     1      32.345 -21.527 -18.347  0.00  0.00    +0.033 C 
ATOM     21  C   UNL     1      34.156 -22.701 -17.263  0.00  0.00    -0.003 C 
ATOM     22  C   UNL     1      33.223 -21.086 -19.337  0.00  0.00    +0.133 C 
ATOM     23  C   UNL     1      35.035 -22.260 -18.253  0.00  0.00    +0.003 C 
ATOM     24  C   UNL     1      34.568 -21.452 -19.289  0.00  0.00    +0.037 C 
BRANCH  22  25
ATOM     25  O   UNL     1      32.769 -20.296 -20.348  0.00  0.00    -0.506 OA
ATOM     26  H   UNL     1      31.870 -20.338 -20.608  0.00  0.00    +0.292 HD
ENDBRANCH  22  25
ENDBRANCH  14  19
BRANCH  17  30
ATOM     27  F   UNL     1      27.596 -22.032 -14.709  0.00  0.00    -0.166 F 
ATOM     28  F   UNL     1      27.860 -22.139 -16.858  0.00  0.00    -0.166 F 
ATOM     29  F   UNL     1      27.461 -23.951 -15.724  0.00  0.00    -0.166 F 
ATOM     30  C   UNL     1      28.170 -22.784 -15.695  0.00  0.00    +0.415 C 
ENDBRANCH  17  30
TORSDOF 3
ENDMDL
MODEL 3
REMARK VINA RESULT:      -9.3      4.292      7.397
REMARK  Name = 25113181
REMARK  3 active torsions:
REMARK  status: ('A' for Active; 'I' for Inactive)
REMARK    1  A    between atoms: C_14  and  C_19
REMARK    2  A    between atoms: C_17  and  C_30
REMARK    3  A    between atoms: C_22  and  O_25
REMARK                            x       y       z     vdW  Elec       q    Type
REMARK                         _______ _______ _______ _____ _____    ______ ____
ROOT
ATOM      1  N   UNL     1      36.439 -24.053 -14.406  0.00  0.00    -0.290 N 
ATOM      2  N   UNL     1      36.820 -25.739 -12.132  0.00  0.00    +0.388 N 
ATOM      3  N   UNL     1      34.876 -23.118 -15.928  0.00  0.00    -0.392 NA
ATOM      4  N   UNL     1      36.990 -22.032 -17.369  0.00  0.00    -0.263 NA
ATOM      5  C   UNL     1      35.456 -24.052 -13.315  0.00  0.00    +0.070 C 
ATOM      6  C   UNL     1      37.260 -25.262 -14.517  0.00  0.00    +0.070 C 
ATOM      7  C   UNL     1      36.116 -24.458 -11.996  0.00  0.00    -0.056 C 
ATOM      8  C   UNL     1      37.862 -25.630 -13.158  0.00  0.00    -0.056 C 
ATOM      9  C   UNL     1      36.153 -23.300 -15.550  0.00  0.00    +0.184 C 
ATOM     10  C   UNL     1      37.400 -26.144 -10.852  0.00  0.00    -0.101 C 
ATOM     11  C   UNL     1      34.648 -22.387 -17.035  0.00  0.00    +0.131 C 
ATOM     12  C   UNL     1      37.195 -22.765 -16.259  0.00  0.00    +0.199 C 
ATOM     13  C   UNL     1      35.719 -21.837 -17.764  0.00  0.00    +0.084 C 
ATOM     14  C   UNL     1      33.345 -22.166 -17.474  0.00  0.00    +0.097 C 
ATOM     15  C   UNL     1      35.447 -21.087 -18.905  0.00  0.00    +0.078 C 
ATOM     16  C   UNL     1      33.084 -21.413 -18.618  0.00  0.00    -0.015 C 
ATOM     17  C   UNL     1      34.139 -20.871 -19.336  0.00  0.00    +0.052 C 
ATOM     18  H   UNL     1      36.150 -26.454 -12.417  0.00  0.00    -0.080 HD
ENDROOT
BRANCH  14  19
ATOM     19  C   UNL     1      32.215 -22.716 -16.746  0.00  0.00    -0.009 C 
ATOM     20  C   UNL     1      30.921 -22.289 -17.040  0.00  0.00    +0.033 C 
ATOM     21  C   UNL     1      32.425 -23.674 -15.755  0.00  0.00    -0.003 C 
ATOM     22  C   UNL     1      29.837 -22.819 -16.342  0.00  0.00    +0.133 C 
ATOM     23  C   UNL     1      31.340 -24.205 -15.056  0.00  0.00    +0.003 C 
ATOM     24  C   UNL     1      30.046 -23.777 -15.350  0.00  0.00    +0.037 C 
BRANCH  22  25
ATOM     25  O   UNL     1      28.573 -22.403 -16.629  0.00  0.00    -0.506 OA
ATOM     26  H   UNL     1      28.256 -21.593 -16.283  0.00  0.00    +0.292 HD
ENDBRANCH  22  25
ENDBRANCH  14  19
BRANCH  17  30
ATOM     27  F   UNL     1      34.610 -20.454 -21.645  0.00  0.00    -0.166 F 
ATOM     28  F   UNL     1      32.577 -20.106 -20.977  0.00  0.00    -0.166 F 
ATOM     29  F   UNL     1      34.161 -18.737 -20.386  0.00  0.00    -0.166 F 
ATOM     30  C   UNL     1      33.877 -20.062 -20.560  0.00  0.00    +0.415 C 
ENDBRANCH  17  30
TORSDOF 3
ENDMDL
MODEL 4
REMARK VINA RESULT:      -9.1     16.122     18.428
REMARK  Name = 25113181
REMARK  3 active torsions:
REMARK  status: ('A' for Active; 'I' for Inactive)
REMARK    1  A    between atoms: C_14  and  C_19
REMARK    2  A    between atoms: C_17  and  C_30
REMARK    3  A    between atoms: C_22  and  O_25
REMARK                            x       y       z     vdW  Elec       q    Type
REMARK                         _______ _______ _______ _____ _____    ______ ____
ROOT
ATOM      1  N   UNL     1      33.343  -4.927 -24.571  0.00  0.00    -0.290 N 
ATOM      2  N   UNL     1      34.065  -3.464 -26.916  0.00  0.00    +0.388 N 
ATOM      3  N   UNL     1      33.201  -7.063 -23.544  0.00  0.00    -0.392 NA
ATOM      4  N   UNL     1      31.951  -5.885 -21.360  0.00  0.00    -0.263 NA
ATOM      5  C   UNL     1      34.520  -5.324 -25.353  0.00  0.00    +0.070 C 
ATOM      6  C   UNL     1      32.329  -4.159 -25.298  0.00  0.00    +0.070 C 
ATOM      7  C   UNL     1      35.097  -4.122 -26.104  0.00  0.00    -0.056 C 
ATOM      8  C   UNL     1      32.975  -2.994 -26.053  0.00  0.00    -0.056 C 
ATOM      9  C   UNL     1      32.960  -5.741 -23.499  0.00  0.00    +0.184 C 
ATOM     10  C   UNL     1      34.638  -2.351 -27.671  0.00  0.00    -0.101 C 
ATOM     11  C   UNL     1      32.816  -7.806 -22.491  0.00  0.00    +0.131 C 
ATOM     12  C   UNL     1      32.344  -5.160 -22.422  0.00  0.00    +0.199 C 
ATOM     13  C   UNL     1      32.183  -7.210 -21.385  0.00  0.00    +0.084 C 
ATOM     14  C   UNL     1      33.040  -9.181 -22.483  0.00  0.00    +0.097 C 
ATOM     15  C   UNL     1      31.797  -8.009 -20.312  0.00  0.00    +0.078 C 
ATOM     16  C   UNL     1      32.650  -9.972 -21.404  0.00  0.00    -0.015 C 
ATOM     17  C   UNL     1      32.027  -9.384 -20.314  0.00  0.00    +0.052 C 
ATOM     18  H   UNL     1      33.689  -4.140 -27.582  0.00  0.00    -0.080 HD
ENDROOT
BRANCH  14  19
ATOM     19  C   UNL     1      33.692  -9.832 -23.606  0.00  0.00    -0.009 C 
ATOM     20  C   UNL     1      33.086 -10.922 -24.229  0.00  0.00    +0.033 C 
ATOM     21  C   UNL     1      34.924  -9.364 -24.063  0.00  0.00    -0.003 C 
ATOM     22  C   UNL     1      33.712 -11.545 -25.307  0.00  0.00    +0.133 C 
ATOM     23  C   UNL     1      35.550  -9.987 -25.142  0.00  0.00    +0.003 C 
ATOM     24  C   UNL     1      34.944 -11.077 -25.765  0.00  0.00    +0.037 C 
BRANCH  22  25
ATOM     25  O   UNL     1      33.120 -12.609 -25.917  0.00  0.00    -0.506 OA
ATOM     26  H   UNL     1      33.113 -13.446 -25.497  0.00  0.00    +0.292 HD
ENDBRANCH  22  25
ENDBRANCH  14  19
BRANCH  17  30
ATOM     27  F   UNL     1      32.346 -10.002 -18.024  0.00  0.00    -0.166 F 
ATOM     28  F   UNL     1      30.309 -10.005 -18.769  0.00  0.00    -0.166 F 
ATOM     29  F   UNL     1      31.697 -11.555 -19.402  0.00  0.00    -0.166 F 
ATOM     30  C   UNL     1      31.604 -10.216 -19.151  0.00  0.00    +0.415 C 
ENDBRANCH  17  30
TORSDOF 3
ENDMDL
MODEL 5
REMARK VINA RESULT:      -9.1      2.506      5.431
REMARK  Name = 25113181
REMARK  3 active torsions:
REMARK  status: ('A' for Active; 'I' for Inactive)
REMARK    1  A    between atoms: C_14  and  C_19
REMARK    2  A    between atoms: C_17  and  C_30
REMARK    3  A    between atoms: C_22  and  O_25
REMARK                            x       y       z     vdW  Elec       q    Type
REMARK                         _______ _______ _______ _____ _____    ______ ____
ROOT
ATOM      1  N   UNL     1      36.185 -21.403 -18.132  0.00  0.00    -0.290 N 
ATOM      2  N   UNL     1      35.352 -19.910 -20.421  0.00  0.00    +0.388 N 
ATOM      3  N   UNL     1      35.511 -22.488 -16.131  0.00  0.00    -0.392 NA
ATOM      4  N   UNL     1      38.183 -22.957 -15.532  0.00  0.00    -0.263 NA
ATOM      5  C   UNL     1      34.914 -21.719 -18.794  0.00  0.00    +0.070 C 
ATOM      6  C   UNL     1      36.691 -20.044 -18.347  0.00  0.00    +0.070 C 
ATOM      7  C   UNL     1      34.961 -21.318 -20.270  0.00  0.00    -0.056 C 
ATOM      8  C   UNL     1      36.681 -19.696 -19.838  0.00  0.00    -0.056 C 
ATOM      9  C   UNL     1      36.497 -22.081 -16.948  0.00  0.00    +0.184 C 
ATOM     10  C   UNL     1      35.341 -19.523 -21.830  0.00  0.00    -0.101 C 
ATOM     11  C   UNL     1      35.857 -23.135 -15.004  0.00  0.00    +0.131 C 
ATOM     12  C   UNL     1      37.815 -22.312 -16.653  0.00  0.00    +0.199 C 
ATOM     13  C   UNL     1      37.211 -23.373 -14.701  0.00  0.00    +0.084 C 
ATOM     14  C   UNL     1      34.877 -23.580 -14.121  0.00  0.00    +0.097 C 
ATOM     15  C   UNL     1      37.534 -24.045 -13.525  0.00  0.00    +0.078 C 
ATOM     16  C   UNL     1      35.211 -24.253 -12.946  0.00  0.00    -0.015 C 
ATOM     17  C   UNL     1      36.545 -24.487 -12.648  0.00  0.00    +0.052 C 
ATOM     18  H   UNL     1      34.677 -19.327 -19.926  0.00  0.00    -0.080 HD
ENDROOT
BRANCH  14  19
ATOM     19  C   UNL     1      33.470 -23.354 -14.401  0.00  0.00    -0.009 C 
ATOM     20  C   UNL     1      33.052 -23.086 -15.704  0.00  0.00    +0.033 C 
ATOM     21  C   UNL     1      32.537 -23.406 -13.366  0.00  0.00    -0.003 C 
ATOM     22  C   UNL     1      31.700 -22.871 -15.972  0.00  0.00    +0.133 C 
ATOM     23  C   UNL     1      31.184 -23.190 -13.634  0.00  0.00    +0.003 C 
ATOM     24  C   UNL     1      30.766 -22.923 -14.937  0.00  0.00    +0.037 C 
BRANCH  22  25
ATOM     25  O   UNL     1      31.291 -22.611 -17.244  0.00  0.00    -0.506 OA
ATOM     26  H   UNL     1      31.812 -22.892 -17.970  0.00  0.00    +0.292 HD
ENDBRANCH  22  25
ENDBRANCH  14  19
BRANCH  17  30
ATOM     27  F   UNL     1      35.950 -25.176 -10.435  0.00  0.00    -0.166 F 
ATOM     28  F   UNL     1      37.189 -26.532 -11.587  0.00  0.00    -0.166 F 
ATOM     29  F   UNL     1      38.037 -24.688 -10.807  0.00  0.00    -0.166 F 
ATOM     30  C   UNL     1      36.919 -25.206 -11.397  0.00  0.00    +0.415 C 
ENDBRANCH  17  30
TORSDOF 3
ENDMDL
MODEL 6
REMARK VINA RESULT:      -8.5     14.664     16.830
REMARK  Name = 25113181
REMARK  3 active torsions:
REMARK  status: ('A' for Active; 'I' for Inactive)
REMARK    1  A    between atoms: C_14  and  C_19
REMARK    2  A    between atoms: C_17  and  C_30
REMARK    3  A    between atoms: C_22  and  O_25
REMARK                            x       y       z     vdW  Elec       q    Type
REMARK                         _______ _______ _______ _____ _____    ______ ____
ROOT
ATOM      1  N   UNL     1      32.240  -6.267 -23.265  0.00  0.00    -0.290 N 
ATOM      2  N   UNL     1      32.374  -3.981 -24.974  0.00  0.00    +0.388 N 
ATOM      3  N   UNL     1      32.728  -8.577 -23.018  0.00  0.00    -0.392 NA
ATOM      4  N   UNL     1      31.402  -8.555 -20.576  0.00  0.00    -0.263 NA
ATOM      5  C   UNL     1      33.412  -6.057 -24.124  0.00  0.00    +0.070 C 
ATOM      6  C   UNL     1      31.008  -5.602 -23.700  0.00  0.00    +0.070 C 
ATOM      7  C   UNL     1      33.601  -4.568 -24.422  0.00  0.00    -0.056 C 
ATOM      8  C   UNL     1      31.274  -4.127 -24.013  0.00  0.00    -0.056 C 
ATOM      9  C   UNL     1      32.165  -7.457 -22.533  0.00  0.00    +0.184 C 
ATOM     10  C   UNL     1      32.582  -2.573 -25.306  0.00  0.00    -0.101 C 
ATOM     11  C   UNL     1      32.631  -9.697 -22.280  0.00  0.00    +0.131 C 
ATOM     12  C   UNL     1      31.511  -7.445 -21.329  0.00  0.00    +0.199 C 
ATOM     13  C   UNL     1      31.960  -9.686 -21.043  0.00  0.00    +0.084 C 
ATOM     14  C   UNL     1      33.196 -10.887 -22.733  0.00  0.00    +0.097 C 
ATOM     15  C   UNL     1      31.877 -10.864 -20.306  0.00  0.00    +0.078 C 
ATOM     16  C   UNL     1      33.108 -12.061 -21.987  0.00  0.00    -0.015 C 
ATOM     17  C   UNL     1      32.447 -12.049 -20.768  0.00  0.00    +0.052 C 
ATOM     18  H   UNL     1      32.129  -4.476 -25.832  0.00  0.00    -0.080 HD
ENDROOT
BRANCH  14  19
ATOM     19  C   UNL     1      33.898 -10.936 -24.004  0.00  0.00    -0.009 C 
ATOM     20  C   UNL     1      33.580 -11.921 -24.939  0.00  0.00    +0.033 C 
ATOM     21  C   UNL     1      34.889  -9.997 -24.289  0.00  0.00    -0.003 C 
ATOM     22  C   UNL     1      34.254 -11.967 -26.159  0.00  0.00    +0.133 C 
ATOM     23  C   UNL     1      35.563 -10.043 -25.510  0.00  0.00    +0.003 C 
ATOM     24  C   UNL     1      35.245 -11.028 -26.445  0.00  0.00    +0.037 C 
BRANCH  22  25
ATOM     25  O   UNL     1      33.943 -12.927 -27.072  0.00  0.00    -0.506 OA
ATOM     26  H   UNL     1      34.314 -12.894 -27.932  0.00  0.00    +0.292 HD
ENDBRANCH  22  25
ENDBRANCH  14  19
BRANCH  17  30
ATOM     27  F   UNL     1      31.273 -14.077 -20.283  0.00  0.00    -0.166 F 
ATOM     28  F   UNL     1      33.431 -14.116 -20.077  0.00  0.00    -0.166 F 
ATOM     29  F   UNL     1      32.223 -13.045 -18.620  0.00  0.00    -0.166 F 
ATOM     30  C   UNL     1      32.345 -13.296 -19.958  0.00  0.00    +0.415 C 
ENDBRANCH  17  30
TORSDOF 3
ENDMDL
