MODEL 1
REMARK VINA RESULT:     -12.8      0.000      0.000
REMARK  Name = 11987860
REMARK  5 active torsions:
REMARK  status: ('A' for Active; 'I' for Inactive)
REMARK    1  A    between atoms: N_2  and  C_19
REMARK    2  A    between atoms: C_3  and  C_11
REMARK    3  A    between atoms: N_9  and  O_17
REMARK    4  A    between atoms: C_19  and  C_20
REMARK    5  A    between atoms: C_23  and  C_26
REMARK                            x       y       z     vdW  Elec       q    Type
REMARK                         _______ _______ _______ _____ _____    ______ ____
ROOT
ATOM      1  O   UNL     1      33.843 -22.797 -14.574  0.00  0.00    -0.272 OA
ATOM      2  N   UNL     1      34.479 -23.431 -16.721  0.00  0.00    -0.298 N 
ATOM      3  C   UNL     1      34.649 -23.296 -15.354  0.00  0.00    +0.253 C 
ATOM      4  H   UNL     1      35.200 -23.851 -17.244  0.00  0.00    +0.150 HD
ENDROOT
BRANCH   3  11
ATOM      5  O   UNL     1      35.479 -24.608 -12.768  0.00  0.00    -0.327 OA
ATOM      6  O   UNL     1      35.816 -25.282 -14.965  0.00  0.00    -0.320 OA
ATOM      7  O   UNL     1      40.390 -24.369 -13.346  0.00  0.00    -0.250 OA
ATOM      8  N   UNL     1      38.187 -25.102 -13.319  0.00  0.00    -0.255 N 
ATOM      9  N   UNL     1      39.960 -26.586 -13.735  0.00  0.00    -0.181 N 
ATOM     10  C   UNL     1      36.217 -23.566 -13.420  0.00  0.00    +0.174 C 
ATOM     11  C   UNL     1      35.953 -23.861 -14.887  0.00  0.00    +0.222 C 
ATOM     12  C   UNL     1      35.802 -25.726 -13.600  0.00  0.00    +0.256 C 
ATOM     13  C   UNL     1      37.686 -23.750 -13.027  0.00  0.00    +0.128 C 
ATOM     14  C   UNL     1      37.207 -26.203 -13.232  0.00  0.00    +0.156 C 
ATOM     15  C   UNL     1      39.575 -25.291 -13.458  0.00  0.00    +0.326 C 
ATOM     16  H   UNL     1      39.312 -27.321 -13.824  0.00  0.00    +0.184 HD
BRANCH   9  17
ATOM     17  O   UNL     1      41.343 -26.782 -13.881  0.00  0.00    -0.294 OA
ATOM     18  H   UNL     1      41.507 -27.405 -14.607  0.00  0.00    +0.241 HD
ENDBRANCH   9  17
ENDBRANCH   3  11
BRANCH   2  19
ATOM     19  C   UNL     1      33.293 -22.986 -17.418  0.00  0.00    +0.116 C 
BRANCH  19  20
ATOM     20  C   UNL     1      33.643 -21.936 -18.436  0.00  0.00    -0.003 C 
ATOM     21  C   UNL     1      34.977 -21.703 -18.750  0.00  0.00    -0.003 C 
ATOM     22  C   UNL     1      32.630 -21.212 -19.050  0.00  0.00    -0.003 C 
ATOM     23  C   UNL     1      34.291 -19.998 -20.316  0.00  0.00    -0.000 C 
ATOM     24  C   UNL     1      35.301 -20.730 -19.694  0.00  0.00    -0.000 C 
ATOM     25  C   UNL     1      32.955 -20.239 -19.994  0.00  0.00    -0.000 C 
BRANCH  23  26
ATOM     26  C   UNL     1      34.627 -18.988 -21.297  0.00  0.00    -0.000 C 
ATOM     27  C   UNL     1      34.293 -19.180 -22.637  0.00  0.00    -0.000 C 
ATOM     28  C   UNL     1      35.283 -17.823 -20.901  0.00  0.00    -0.000 C 
ATOM     29  C   UNL     1      34.617 -18.206 -23.583  0.00  0.00    +0.000 C 
ATOM     30  C   UNL     1      35.606 -16.849 -21.845  0.00  0.00    +0.000 C 
ATOM     31  C   UNL     1      35.273 -17.040 -23.187  0.00  0.00    +0.000 C 
ENDBRANCH  23  26
ENDBRANCH  19  20
ENDBRANCH   2  19
TORSDOF 5
ENDMDL
MODEL 2
REMARK VINA RESULT:     -12.5      8.643     13.018
REMARK  Name = 11987860
REMARK  5 active torsions:
REMARK  status: ('A' for Active; 'I' for Inactive)
REMARK    1  A    between atoms: N_2  and  C_19
REMARK    2  A    between atoms: C_3  and  C_11
REMARK    3  A    between atoms: N_9  and  O_17
REMARK    4  A    between atoms: C_19  and  C_20
REMARK    5  A    between atoms: C_23  and  C_26
REMARK                            x       y       z     vdW  Elec       q    Type
REMARK                         _______ _______ _______ _____ _____    ______ ____
ROOT
ATOM      1  O   UNL     1      32.718 -15.019 -25.471  0.00  0.00    -0.272 OA
ATOM      2  N   UNL     1      34.442 -15.028 -23.907  0.00  0.00    -0.298 N 
ATOM      3  C   UNL     1      33.315 -14.514 -24.524  0.00  0.00    +0.253 C 
ATOM      4  H   UNL     1      34.832 -14.529 -23.153  0.00  0.00    +0.150 HD
ENDROOT
BRANCH   3  11
ATOM      5  O   UNL     1      34.720 -12.491 -22.783  0.00  0.00    -0.327 OA
ATOM      6  O   UNL     1      33.410 -12.185 -24.676  0.00  0.00    -0.320 OA
ATOM      7  O   UNL     1      30.748 -10.059 -21.103  0.00  0.00    -0.250 OA
ATOM      8  N   UNL     1      32.614 -10.690 -22.332  0.00  0.00    -0.255 N 
ATOM      9  N   UNL     1      31.615  -8.584 -22.627  0.00  0.00    -0.181 N 
ATOM     10  C   UNL     1      33.429 -13.048 -22.497  0.00  0.00    +0.174 C 
ATOM     11  C   UNL     1      32.853 -13.241 -23.890  0.00  0.00    +0.222 C 
ATOM     12  C   UNL     1      34.390 -11.570 -23.826  0.00  0.00    +0.256 C 
ATOM     13  C   UNL     1      32.669 -12.004 -21.674  0.00  0.00    +0.128 C 
ATOM     14  C   UNL     1      33.764 -10.330 -23.186  0.00  0.00    +0.156 C 
ATOM     15  C   UNL     1      31.597  -9.790 -21.959  0.00  0.00    +0.326 C 
ATOM     16  H   UNL     1      32.290  -8.369 -23.309  0.00  0.00    +0.184 HD
BRANCH   9  17
ATOM     17  O   UNL     1      30.601  -7.684 -22.265  0.00  0.00    -0.294 OA
ATOM     18  H   UNL     1      30.760  -6.827 -22.693  0.00  0.00    +0.241 HD
ENDBRANCH   9  17
ENDBRANCH   3  11
BRANCH   2  19
ATOM     19  C   UNL     1      35.074 -16.262 -24.316  0.00  0.00    +0.116 C 
BRANCH  19  20
ATOM     20  C   UNL     1      34.959 -17.298 -23.233  0.00  0.00    -0.003 C 
ATOM     21  C   UNL     1      35.461 -17.024 -21.966  0.00  0.00    -0.003 C 
ATOM     22  C   UNL     1      34.353 -18.516 -23.510  0.00  0.00    -0.003 C 
ATOM     23  C   UNL     1      34.747 -19.211 -21.231  0.00  0.00    -0.000 C 
ATOM     24  C   UNL     1      35.354 -17.985 -20.962  0.00  0.00    -0.000 C 
ATOM     25  C   UNL     1      34.246 -19.477 -22.505  0.00  0.00    -0.000 C 
BRANCH  23  26
ATOM     26  C   UNL     1      34.636 -20.209 -20.187  0.00  0.00    -0.000 C 
ATOM     27  C   UNL     1      33.378 -20.632 -19.760  0.00  0.00    -0.000 C 
ATOM     28  C   UNL     1      35.786 -20.747 -19.612  0.00  0.00    -0.000 C 
ATOM     29  C   UNL     1      33.270 -21.594 -18.755  0.00  0.00    +0.000 C 
ATOM     30  C   UNL     1      35.679 -21.709 -18.608  0.00  0.00    +0.000 C 
ATOM     31  C   UNL     1      34.421 -22.132 -18.178  0.00  0.00    +0.000 C 
ENDBRANCH  23  26
ENDBRANCH  19  20
ENDBRANCH   2  19
TORSDOF 5
ENDMDL
MODEL 3
REMARK VINA RESULT:     -12.1      1.684      2.310
REMARK  Name = 11987860
REMARK  5 active torsions:
REMARK  status: ('A' for Active; 'I' for Inactive)
REMARK    1  A    between atoms: N_2  and  C_19
REMARK    2  A    between atoms: C_3  and  C_11
REMARK    3  A    between atoms: N_9  and  O_17
REMARK    4  A    between atoms: C_19  and  C_20
REMARK    5  A    between atoms: C_23  and  C_26
REMARK                            x       y       z     vdW  Elec       q    Type
REMARK                         _______ _______ _______ _____ _____    ______ ____
ROOT
ATOM      1  O   UNL     1      32.508 -23.568 -15.153  0.00  0.00    -0.272 OA
ATOM      2  N   UNL     1      34.165 -23.126 -16.726  0.00  0.00    -0.298 N 
ATOM      3  C   UNL     1      33.680 -23.355 -15.450  0.00  0.00    +0.253 C 
ATOM      4  H   UNL     1      35.131 -22.967 -16.839  0.00  0.00    +0.150 HD
ENDROOT
BRANCH   3  11
ATOM      5  O   UNL     1      34.924 -25.548 -13.794  0.00  0.00    -0.327 OA
ATOM      6  O   UNL     1      35.924 -23.881 -15.066  0.00  0.00    -0.320 OA
ATOM      7  O   UNL     1      37.253 -22.735 -10.451  0.00  0.00    -0.250 OA
ATOM      8  N   UNL     1      36.771 -24.046 -12.305  0.00  0.00    -0.255 N 
ATOM      9  N   UNL     1      38.982 -23.456 -11.771  0.00  0.00    -0.181 N 
ATOM     10  C   UNL     1      34.476 -24.291 -13.268  0.00  0.00    +0.174 C 
ATOM     11  C   UNL     1      34.765 -23.344 -14.421  0.00  0.00    +0.222 C 
ATOM     12  C   UNL     1      36.140 -25.152 -14.436  0.00  0.00    +0.256 C 
ATOM     13  C   UNL     1      35.328 -24.001 -12.028  0.00  0.00    +0.128 C 
ATOM     14  C   UNL     1      37.213 -24.982 -13.359  0.00  0.00    +0.156 C 
ATOM     15  C   UNL     1      37.647 -23.368 -11.436  0.00  0.00    +0.326 C 
ATOM     16  H   UNL     1      39.296 -23.960 -12.555  0.00  0.00    +0.184 HD
BRANCH   9  17
ATOM     17  O   UNL     1      39.860 -22.777 -10.912  0.00  0.00    -0.294 OA
ATOM     18  H   UNL     1      40.521 -22.299 -11.438  0.00  0.00    +0.241 HD
ENDBRANCH   9  17
ENDBRANCH   3  11
BRANCH   2  19
ATOM     19  C   UNL     1      33.323 -23.108 -17.900  0.00  0.00    +0.116 C 
BRANCH  19  20
ATOM     20  C   UNL     1      33.687 -21.955 -18.793  0.00  0.00    -0.003 C 
ATOM     21  C   UNL     1      32.680 -21.195 -19.376  0.00  0.00    -0.003 C 
ATOM     22  C   UNL     1      35.024 -21.662 -19.025  0.00  0.00    -0.003 C 
ATOM     23  C   UNL     1      34.358 -19.823 -20.443  0.00  0.00    -0.000 C 
ATOM     24  C   UNL     1      33.018 -20.125 -20.204  0.00  0.00    -0.000 C 
ATOM     25  C   UNL     1      35.361 -20.592 -19.853  0.00  0.00    -0.000 C 
BRANCH  23  26
ATOM     26  C   UNL     1      34.709 -18.712 -21.301  0.00  0.00    -0.000 C 
ATOM     27  C   UNL     1      35.248 -17.549 -20.752  0.00  0.00    -0.000 C 
ATOM     28  C   UNL     1      34.509 -18.805 -22.678  0.00  0.00    -0.000 C 
ATOM     29  C   UNL     1      35.587 -16.479 -21.579  0.00  0.00    +0.000 C 
ATOM     30  C   UNL     1      34.848 -17.736 -23.506  0.00  0.00    +0.000 C 
ATOM     31  C   UNL     1      35.387 -16.571 -22.957  0.00  0.00    +0.000 C 
ENDBRANCH  23  26
ENDBRANCH  19  20
ENDBRANCH   2  19
TORSDOF 5
ENDMDL
MODEL 4
REMARK VINA RESULT:     -11.4      8.389     12.493
REMARK  Name = 11987860
REMARK  5 active torsions:
REMARK  status: ('A' for Active; 'I' for Inactive)
REMARK    1  A    between atoms: N_2  and  C_19
REMARK    2  A    between atoms: C_3  and  C_11
REMARK    3  A    between atoms: N_9  and  O_17
REMARK    4  A    between atoms: C_19  and  C_20
REMARK    5  A    between atoms: C_23  and  C_26
REMARK                            x       y       z     vdW  Elec       q    Type
REMARK                         _______ _______ _______ _____ _____    ______ ____
ROOT
ATOM      1  O   UNL     1      32.712 -13.997 -24.359  0.00  0.00    -0.272 OA
ATOM      2  N   UNL     1      34.604 -14.326 -23.043  0.00  0.00    -0.298 N 
ATOM      3  C   UNL     1      33.450 -13.669 -23.434  0.00  0.00    +0.253 C 
ATOM      4  H   UNL     1      35.114 -13.965 -22.282  0.00  0.00    +0.150 HD
ENDROOT
BRANCH   3  11
ATOM      5  O   UNL     1      31.544 -13.257 -21.133  0.00  0.00    -0.327 OA
ATOM      6  O   UNL     1      33.799 -12.734 -21.322  0.00  0.00    -0.320 OA
ATOM      7  O   UNL     1      31.637  -8.310 -20.955  0.00  0.00    -0.250 OA
ATOM      8  N   UNL     1      32.055 -10.559 -20.553  0.00  0.00    -0.255 N 
ATOM      9  N   UNL     1      32.901  -8.888 -19.133  0.00  0.00    -0.181 N 
ATOM     10  C   UNL     1      31.677 -12.361 -22.245  0.00  0.00    +0.174 C 
ATOM     11  C   UNL     1      33.155 -12.482 -22.574  0.00  0.00    +0.222 C 
ATOM     12  C   UNL     1      32.726 -12.943 -20.392  0.00  0.00    +0.256 C 
ATOM     13  C   UNL     1      31.288 -10.968 -21.739  0.00  0.00    +0.128 C 
ATOM     14  C   UNL     1      32.480 -11.636 -19.637  0.00  0.00    +0.156 C 
ATOM     15  C   UNL     1      32.161  -9.186 -20.258  0.00  0.00    +0.326 C 
ATOM     16  H   UNL     1      33.318  -9.585 -18.578  0.00  0.00    +0.184 HD
BRANCH   9  17
ATOM     17  O   UNL     1      33.015  -7.521 -18.836  0.00  0.00    -0.294 OA
ATOM     18  H   UNL     1      33.234  -7.412 -17.896  0.00  0.00    +0.241 HD
ENDBRANCH   9  17
ENDBRANCH   3  11
BRANCH   2  19
ATOM     19  C   UNL     1      35.096 -15.517 -23.699  0.00  0.00    +0.116 C 
BRANCH  19  20
ATOM     20  C   UNL     1      35.000 -16.703 -22.780  0.00  0.00    -0.003 C 
ATOM     21  C   UNL     1      34.583 -17.929 -23.285  0.00  0.00    -0.003 C 
ATOM     22  C   UNL     1      35.327 -16.559 -21.438  0.00  0.00    -0.003 C 
ATOM     23  C   UNL     1      34.821 -18.894 -21.084  0.00  0.00    -0.000 C 
ATOM     24  C   UNL     1      34.494 -19.029 -22.432  0.00  0.00    -0.000 C 
ATOM     25  C   UNL     1      35.238 -17.659 -20.587  0.00  0.00    -0.000 C 
BRANCH  23  26
ATOM     26  C   UNL     1      34.729 -20.036 -20.199  0.00  0.00    -0.000 C 
ATOM     27  C   UNL     1      35.891 -20.643 -19.721  0.00  0.00    -0.000 C 
ATOM     28  C   UNL     1      33.480 -20.528 -19.823  0.00  0.00    -0.000 C 
ATOM     29  C   UNL     1      35.802 -21.743 -18.867  0.00  0.00    +0.000 C 
ATOM     30  C   UNL     1      33.391 -21.628 -18.970  0.00  0.00    +0.000 C 
ATOM     31  C   UNL     1      34.552 -22.236 -18.492  0.00  0.00    +0.000 C 
ENDBRANCH  23  26
ENDBRANCH  19  20
ENDBRANCH   2  19
TORSDOF 5
ENDMDL
MODEL 5
REMARK VINA RESULT:     -11.0      3.915      6.348
REMARK  Name = 11987860
REMARK  5 active torsions:
REMARK  status: ('A' for Active; 'I' for Inactive)
REMARK    1  A    between atoms: N_2  and  C_19
REMARK    2  A    between atoms: C_3  and  C_11
REMARK    3  A    between atoms: N_9  and  O_17
REMARK    4  A    between atoms: C_19  and  C_20
REMARK    5  A    between atoms: C_23  and  C_26
REMARK                            x       y       z     vdW  Elec       q    Type
REMARK                         _______ _______ _______ _____ _____    ______ ____
ROOT
ATOM      1  O   UNL     1      34.350 -23.800 -15.989  0.00  0.00    -0.272 OA
ATOM      2  N   UNL     1      33.753 -22.378 -17.733  0.00  0.00    -0.298 N 
ATOM      3  C   UNL     1      33.507 -23.183 -16.635  0.00  0.00    +0.253 C 
ATOM      4  H   UNL     1      32.990 -21.933 -18.169  0.00  0.00    +0.150 HD
ENDROOT
BRANCH   3  11
ATOM      5  O   UNL     1      32.060 -24.095 -14.150  0.00  0.00    -0.327 OA
ATOM      6  O   UNL     1      31.850 -22.129 -15.369  0.00  0.00    -0.320 OA
ATOM      7  O   UNL     1      27.470 -24.321 -15.992  0.00  0.00    -0.250 OA
ATOM      8  N   UNL     1      29.406 -23.611 -14.924  0.00  0.00    -0.255 N 
ATOM      9  N   UNL     1      27.392 -22.419 -14.717  0.00  0.00    -0.181 N 
ATOM     10  C   UNL     1      31.688 -24.465 -15.485  0.00  0.00    +0.174 C 
ATOM     11  C   UNL     1      32.056 -23.219 -16.272  0.00  0.00    +0.222 C 
ATOM     12  C   UNL     1      31.583 -22.748 -14.101  0.00  0.00    +0.256 C 
ATOM     13  C   UNL     1      30.181 -24.738 -15.465  0.00  0.00    +0.128 C 
ATOM     14  C   UNL     1      30.069 -22.787 -13.893  0.00  0.00    +0.156 C 
ATOM     15  C   UNL     1      28.043 -23.506 -15.261  0.00  0.00    +0.326 C 
ATOM     16  H   UNL     1      27.847 -21.769 -14.135  0.00  0.00    +0.184 HD
BRANCH   9  17
ATOM     17  O   UNL     1      26.033 -22.305 -15.052  0.00  0.00    -0.294 OA
ATOM     18  H   UNL     1      25.619 -21.624 -14.498  0.00  0.00    +0.241 HD
ENDBRANCH   9  17
ENDBRANCH   3  11
BRANCH   2  19
ATOM     19  C   UNL     1      35.077 -22.158 -18.271  0.00  0.00    +0.116 C 
BRANCH  19  20
ATOM     20  C   UNL     1      35.051 -21.070 -19.308  0.00  0.00    -0.003 C 
ATOM     21  C   UNL     1      33.837 -20.679 -19.861  0.00  0.00    -0.003 C 
ATOM     22  C   UNL     1      36.239 -20.469 -19.701  0.00  0.00    -0.003 C 
ATOM     23  C   UNL     1      35.001 -19.060 -21.224  0.00  0.00    -0.000 C 
ATOM     24  C   UNL     1      33.813 -19.670 -20.823  0.00  0.00    -0.000 C 
ATOM     25  C   UNL     1      36.214 -19.460 -20.663  0.00  0.00    -0.000 C 
BRANCH  23  26
ATOM     26  C   UNL     1      34.976 -18.012 -22.221  0.00  0.00    -0.000 C 
ATOM     27  C   UNL     1      34.521 -18.287 -23.510  0.00  0.00    -0.000 C 
ATOM     28  C   UNL     1      35.406 -16.726 -21.893  0.00  0.00    -0.000 C 
ATOM     29  C   UNL     1      34.496 -17.276 -24.472  0.00  0.00    +0.000 C 
ATOM     30  C   UNL     1      35.381 -15.716 -22.853  0.00  0.00    +0.000 C 
ATOM     31  C   UNL     1      34.927 -15.990 -24.144  0.00  0.00    +0.000 C 
ENDBRANCH  23  26
ENDBRANCH  19  20
ENDBRANCH   2  19
TORSDOF 5
ENDMDL
MODEL 6
REMARK VINA RESULT:     -10.7     10.539     14.465
REMARK  Name = 11987860
REMARK  5 active torsions:
REMARK  status: ('A' for Active; 'I' for Inactive)
REMARK    1  A    between atoms: N_2  and  C_19
REMARK    2  A    between atoms: C_3  and  C_11
REMARK    3  A    between atoms: N_9  and  O_17
REMARK    4  A    between atoms: C_19  and  C_20
REMARK    5  A    between atoms: C_23  and  C_26
REMARK                            x       y       z     vdW  Elec       q    Type
REMARK                         _______ _______ _______ _____ _____    ______ ____
ROOT
ATOM      1  O   UNL     1      31.570 -12.208 -19.957  0.00  0.00    -0.272 OA
ATOM      2  N   UNL     1      32.024 -10.793 -21.749  0.00  0.00    -0.298 N 
ATOM      3  C   UNL     1      31.970 -12.016 -21.102  0.00  0.00    +0.253 C 
ATOM      4  H   UNL     1      32.366 -10.766 -22.672  0.00  0.00    +0.150 HD
ENDROOT
BRANCH   3  11
ATOM      5  O   UNL     1      34.568 -12.503 -22.554  0.00  0.00    -0.327 OA
ATOM      6  O   UNL     1      33.340 -13.906 -21.169  0.00  0.00    -0.320 OA
ATOM      7  O   UNL     1      33.077 -16.139 -25.566  0.00  0.00    -0.250 OA
ATOM      8  N   UNL     1      33.987 -14.958 -23.785  0.00  0.00    -0.255 N 
ATOM      9  N   UNL     1      34.326 -17.271 -24.014  0.00  0.00    -0.181 N 
ATOM     10  C   UNL     1      33.271 -12.649 -23.146  0.00  0.00    +0.174 C 
ATOM     11  C   UNL     1      32.440 -13.138 -21.972  0.00  0.00    +0.222 C 
ATOM     12  C   UNL     1      34.633 -13.687 -21.754  0.00  0.00    +0.256 C 
ATOM     13  C   UNL     1      33.407 -13.692 -24.260  0.00  0.00    +0.128 C 
ATOM     14  C   UNL     1      34.954 -14.865 -22.673  0.00  0.00    +0.156 C 
ATOM     15  C   UNL     1      33.751 -16.129 -24.530  0.00  0.00    +0.326 C 
ATOM     16  H   UNL     1      34.863 -17.265 -23.190  0.00  0.00    +0.184 HD
BRANCH   9  17
ATOM     17  O   UNL     1      34.091 -18.444 -24.749  0.00  0.00    -0.294 OA
ATOM     18  H   UNL     1      34.023 -18.227 -25.693  0.00  0.00    +0.241 HD
ENDBRANCH   9  17
ENDBRANCH   3  11
BRANCH   2  19
ATOM     19  C   UNL     1      31.605  -9.554 -21.134  0.00  0.00    +0.116 C 
BRANCH  19  20
ATOM     20  C   UNL     1      32.033  -8.380 -21.968  0.00  0.00    -0.003 C 
ATOM     21  C   UNL     1      33.345  -7.928 -21.894  0.00  0.00    -0.003 C 
ATOM     22  C   UNL     1      31.113  -7.760 -22.803  0.00  0.00    -0.003 C 
ATOM     23  C   UNL     1      32.825  -6.209 -23.509  0.00  0.00    -0.000 C 
ATOM     24  C   UNL     1      33.742  -6.838 -22.668  0.00  0.00    -0.000 C 
ATOM     25  C   UNL     1      31.510  -6.670 -23.577  0.00  0.00    -0.000 C 
BRANCH  23  26
ATOM     26  C   UNL     1      33.238  -5.078 -24.314  0.00  0.00    -0.000 C 
ATOM     27  C   UNL     1      34.403  -5.153 -25.076  0.00  0.00    -0.000 C 
ATOM     28  C   UNL     1      32.468  -3.916 -24.327  0.00  0.00    -0.000 C 
ATOM     29  C   UNL     1      34.799  -4.064 -25.853  0.00  0.00    +0.000 C 
ATOM     30  C   UNL     1      32.864  -2.826 -25.102  0.00  0.00    +0.000 C 
ATOM     31  C   UNL     1      34.030  -2.900 -25.865  0.00  0.00    +0.000 C 
ENDBRANCH  23  26
ENDBRANCH  19  20
ENDBRANCH   2  19
TORSDOF 5
ENDMDL
MODEL 7
REMARK VINA RESULT:     -10.7      2.958      4.716
REMARK  Name = 11987860
REMARK  5 active torsions:
REMARK  status: ('A' for Active; 'I' for Inactive)
REMARK    1  A    between atoms: N_2  and  C_19
REMARK    2  A    between atoms: C_3  and  C_11
REMARK    3  A    between atoms: N_9  and  O_17
REMARK    4  A    between atoms: C_19  and  C_20
REMARK    5  A    between atoms: C_23  and  C_26
REMARK                            x       y       z     vdW  Elec       q    Type
REMARK                         _______ _______ _______ _____ _____    ______ ____
ROOT
ATOM      1  O   UNL     1      37.424 -22.130 -15.768  0.00  0.00    -0.272 OA
ATOM      2  N   UNL     1      36.042 -21.596 -17.563  0.00  0.00    -0.298 N 
ATOM      3  C   UNL     1      36.310 -22.024 -16.275  0.00  0.00    +0.253 C 
ATOM      4  H   UNL     1      35.103 -21.553 -17.857  0.00  0.00    +0.150 HD
ENDROOT
BRANCH   3  11
ATOM      5  O   UNL     1      34.812 -24.601 -15.811  0.00  0.00    -0.327 OA
ATOM      6  O   UNL     1      35.491 -22.971 -14.302  0.00  0.00    -0.320 OA
ATOM      7  O   UNL     1      30.565 -22.705 -14.113  0.00  0.00    -0.250 OA
ATOM      8  N   UNL     1      32.681 -23.651 -14.250  0.00  0.00    -0.255 N 
ATOM      9  N   UNL     1      31.532 -23.524 -12.204  0.00  0.00    -0.181 N 
ATOM     10  C   UNL     1      34.199 -23.369 -16.217  0.00  0.00    +0.174 C 
ATOM     11  C   UNL     1      35.063 -22.338 -15.511  0.00  0.00    +0.222 C 
ATOM     12  C   UNL     1      35.060 -24.334 -14.428  0.00  0.00    +0.256 C 
ATOM     13  C   UNL     1      32.758 -23.399 -15.697  0.00  0.00    +0.128 C 
ATOM     14  C   UNL     1      33.743 -24.497 -13.668  0.00  0.00    +0.156 C 
ATOM     15  C   UNL     1      31.521 -23.256 -13.557  0.00  0.00    +0.326 C 
ATOM     16  H   UNL     1      32.292 -23.962 -11.760  0.00  0.00    +0.184 HD
BRANCH   9  17
ATOM     17  O   UNL     1      30.380 -23.127 -11.506  0.00  0.00    -0.294 OA
ATOM     18  H   UNL     1      30.392 -22.164 -11.383  0.00  0.00    +0.241 HD
ENDBRANCH   9  17
ENDBRANCH   3  11
BRANCH   2  19
ATOM     19  C   UNL     1      37.074 -21.210 -18.499  0.00  0.00    +0.116 C 
BRANCH  19  20
ATOM     20  C   UNL     1      36.498 -20.367 -19.602  0.00  0.00    -0.003 C 
ATOM     21  C   UNL     1      37.283 -19.388 -20.199  0.00  0.00    -0.003 C 
ATOM     22  C   UNL     1      35.188 -20.577 -20.012  0.00  0.00    -0.003 C 
ATOM     23  C   UNL     1      35.434 -18.810 -21.640  0.00  0.00    -0.000 C 
ATOM     24  C   UNL     1      36.748 -18.607 -21.222  0.00  0.00    -0.000 C 
ATOM     25  C   UNL     1      34.653 -19.795 -21.035  0.00  0.00    -0.000 C 
BRANCH  23  26
ATOM     26  C   UNL     1      34.879 -17.999 -22.703  0.00  0.00    -0.000 C 
ATOM     27  C   UNL     1      34.169 -18.602 -23.742  0.00  0.00    -0.000 C 
ATOM     28  C   UNL     1      35.052 -16.615 -22.688  0.00  0.00    -0.000 C 
ATOM     29  C   UNL     1      33.633 -17.820 -24.766  0.00  0.00    +0.000 C 
ATOM     30  C   UNL     1      34.516 -15.834 -23.711  0.00  0.00    +0.000 C 
ATOM     31  C   UNL     1      33.807 -16.436 -24.751  0.00  0.00    +0.000 C 
ENDBRANCH  23  26
ENDBRANCH  19  20
ENDBRANCH   2  19
TORSDOF 5
ENDMDL
MODEL 8
REMARK VINA RESULT:     -10.4     12.286     16.762
REMARK  Name = 11987860
REMARK  5 active torsions:
REMARK  status: ('A' for Active; 'I' for Inactive)
REMARK    1  A    between atoms: N_2  and  C_19
REMARK    2  A    between atoms: C_3  and  C_11
REMARK    3  A    between atoms: N_9  and  O_17
REMARK    4  A    between atoms: C_19  and  C_20
REMARK    5  A    between atoms: C_23  and  C_26
REMARK                            x       y       z     vdW  Elec       q    Type
REMARK                         _______ _______ _______ _____ _____    ______ ____
ROOT
ATOM      1  O   UNL     1      33.104  -8.038 -19.128  0.00  0.00    -0.272 OA
ATOM      2  N   UNL     1      31.346  -9.079 -20.244  0.00  0.00    -0.298 N 
ATOM      3  C   UNL     1      32.201  -8.027 -19.959  0.00  0.00    +0.253 C 
ATOM      4  H   UNL     1      30.658  -8.948 -20.935  0.00  0.00    +0.150 HD
ENDROOT
BRANCH   3  11
ATOM      5  O   UNL     1      32.743  -7.447 -22.869  0.00  0.00    -0.327 OA
ATOM      6  O   UNL     1      30.802  -7.172 -21.623  0.00  0.00    -0.320 OA
ATOM      7  O   UNL     1      32.058  -2.544 -22.798  0.00  0.00    -0.250 OA
ATOM      8  N   UNL     1      31.739  -4.831 -23.040  0.00  0.00    -0.255 N 
ATOM      9  N   UNL     1      30.154  -3.288 -23.832  0.00  0.00    -0.181 N 
ATOM     10  C   UNL     1      33.056  -6.552 -21.793  0.00  0.00    +0.174 C 
ATOM     11  C   UNL     1      31.929  -6.830 -20.812  0.00  0.00    +0.222 C 
ATOM     12  C   UNL     1      31.325  -7.277 -22.956  0.00  0.00    +0.256 C 
ATOM     13  C   UNL     1      33.012  -5.133 -22.370  0.00  0.00    +0.128 C 
ATOM     14  C   UNL     1      31.048  -5.964 -23.689  0.00  0.00    +0.156 C 
ATOM     15  C   UNL     1      31.363  -3.483 -23.199  0.00  0.00    +0.326 C 
ATOM     16  H   UNL     1      29.600  -4.035 -24.152  0.00  0.00    +0.184 HD
BRANCH   9  17
ATOM     17  O   UNL     1      29.770  -1.947 -23.989  0.00  0.00    -0.294 OA
ATOM     18  H   UNL     1      29.158  -1.871 -24.739  0.00  0.00    +0.241 HD
ENDBRANCH   9  17
ENDBRANCH   3  11
BRANCH   2  19
ATOM     19  C   UNL     1      31.416 -10.357 -19.573  0.00  0.00    +0.116 C 
BRANCH  19  20
ATOM     20  C   UNL     1      32.013 -11.396 -20.481  0.00  0.00    -0.003 C 
ATOM     21  C   UNL     1      32.370 -11.050 -21.779  0.00  0.00    -0.003 C 
ATOM     22  C   UNL     1      32.201 -12.690 -20.012  0.00  0.00    -0.003 C 
ATOM     23  C   UNL     1      33.116 -13.315 -22.159  0.00  0.00    -0.000 C 
ATOM     24  C   UNL     1      32.924 -12.014 -22.620  0.00  0.00    -0.000 C 
ATOM     25  C   UNL     1      32.755 -13.653 -20.854  0.00  0.00    -0.000 C 
BRANCH  23  26
ATOM     26  C   UNL     1      33.692 -14.316 -23.032  0.00  0.00    -0.000 C 
ATOM     27  C   UNL     1      33.328 -14.359 -24.377  0.00  0.00    -0.000 C 
ATOM     28  C   UNL     1      34.611 -15.235 -22.527  0.00  0.00    -0.000 C 
ATOM     29  C   UNL     1      33.884 -15.323 -25.219  0.00  0.00    +0.000 C 
ATOM     30  C   UNL     1      35.167 -16.199 -23.369  0.00  0.00    +0.000 C 
ATOM     31  C   UNL     1      34.803 -16.243 -24.715  0.00  0.00    +0.000 C 
ENDBRANCH  23  26
ENDBRANCH  19  20
ENDBRANCH   2  19
TORSDOF 5
ENDMDL
MODEL 9
REMARK VINA RESULT:     -10.3      5.577     10.558
REMARK  Name = 11987860
REMARK  5 active torsions:
REMARK  status: ('A' for Active; 'I' for Inactive)
REMARK    1  A    between atoms: N_2  and  C_19
REMARK    2  A    between atoms: C_3  and  C_11
REMARK    3  A    between atoms: N_9  and  O_17
REMARK    4  A    between atoms: C_19  and  C_20
REMARK    5  A    between atoms: C_23  and  C_26
REMARK                            x       y       z     vdW  Elec       q    Type
REMARK                         _______ _______ _______ _____ _____    ______ ____
ROOT
ATOM      1  O   UNL     1      34.905 -20.111 -22.217  0.00  0.00    -0.272 OA
ATOM      2  N   UNL     1      35.478 -19.748 -19.991  0.00  0.00    -0.298 N 
ATOM      3  C   UNL     1      34.983 -19.384 -21.231  0.00  0.00    +0.253 C 
ATOM      4  H   UNL     1      35.489 -19.073 -19.274  0.00  0.00    +0.150 HD
ENDROOT
BRANCH   3  11
ATOM      5  O   UNL     1      36.390 -16.784 -21.829  0.00  0.00    -0.327 OA
ATOM      6  O   UNL     1      34.380 -17.620 -22.638  0.00  0.00    -0.320 OA
ATOM      7  O   UNL     1      32.993 -13.661 -20.033  0.00  0.00    -0.250 OA
ATOM      8  N   UNL     1      34.269 -14.984 -21.453  0.00  0.00    -0.255 N 
ATOM      9  N   UNL     1      32.715 -13.436 -22.297  0.00  0.00    -0.181 N 
ATOM     10  C   UNL     1      35.537 -17.001 -20.696  0.00  0.00    +0.174 C 
ATOM     11  C   UNL     1      34.507 -17.967 -21.257  0.00  0.00    +0.222 C 
ATOM     12  C   UNL     1      35.421 -16.661 -22.874  0.00  0.00    +0.256 C 
ATOM     13  C   UNL     1      34.942 -15.640 -20.322  0.00  0.00    +0.128 C 
ATOM     14  C   UNL     1      34.814 -15.259 -22.797  0.00  0.00    +0.156 C 
ATOM     15  C   UNL     1      33.301 -13.998 -21.182  0.00  0.00    +0.326 C 
ATOM     16  H   UNL     1      32.960 -13.704 -23.211  0.00  0.00    +0.184 HD
BRANCH   9  17
ATOM     17  O   UNL     1      31.745 -12.456 -22.034  0.00  0.00    -0.294 OA
ATOM     18  H   UNL     1      31.218 -12.300 -22.834  0.00  0.00    +0.241 HD
ENDBRANCH   9  17
ENDBRANCH   3  11
BRANCH   2  19
ATOM     19  C   UNL     1      35.980 -21.072 -19.698  0.00  0.00    +0.116 C 
BRANCH  19  20
ATOM     20  C   UNL     1      35.192 -21.700 -18.582  0.00  0.00    -0.003 C 
ATOM     21  C   UNL     1      35.836 -22.054 -17.403  0.00  0.00    -0.003 C 
ATOM     22  C   UNL     1      33.830 -21.918 -18.743  0.00  0.00    -0.003 C 
ATOM     23  C   UNL     1      33.738 -22.860 -16.520  0.00  0.00    -0.000 C 
ATOM     24  C   UNL     1      35.105 -22.637 -16.368  0.00  0.00    -0.000 C 
ATOM     25  C   UNL     1      33.100 -22.500 -17.707  0.00  0.00    -0.000 C 
BRANCH  23  26
ATOM     26  C   UNL     1      32.978 -23.464 -15.445  0.00  0.00    -0.000 C 
ATOM     27  C   UNL     1      33.635 -23.946 -14.314  0.00  0.00    -0.000 C 
ATOM     28  C   UNL     1      31.591 -23.561 -15.542  0.00  0.00    -0.000 C 
ATOM     29  C   UNL     1      32.903 -24.527 -13.277  0.00  0.00    +0.000 C 
ATOM     30  C   UNL     1      30.859 -24.142 -14.507  0.00  0.00    +0.000 C 
ATOM     31  C   UNL     1      31.515 -24.626 -13.374  0.00  0.00    +0.000 C 
ENDBRANCH  23  26
ENDBRANCH  19  20
ENDBRANCH   2  19
TORSDOF 5
ENDMDL
