MODEL 1
REMARK VINA RESULT:     -13.3      0.000      0.000
REMARK  Name = 5287728
REMARK  9 active torsions:
REMARK  status: ('A' for Active; 'I' for Inactive)
REMARK    1  A    between atoms: S_1  and  N_4
REMARK    2  A    between atoms: S_1  and  N_22
REMARK    3  A    between atoms: C_5  and  N_10
REMARK    4  A    between atoms: N_10  and  C_13
REMARK    5  A    between atoms: C_13  and  C_14
REMARK    6  A    between atoms: C_15  and  O_20
REMARK    7  A    between atoms: N_22  and  C_24
REMARK    8  A    between atoms: C_27  and  O_30
REMARK    9  A    between atoms: O_30  and  C_32
REMARK                            x       y       z     vdW  Elec       q    Type
REMARK                         _______ _______ _______ _____ _____    ______ ____
ROOT
ATOM      1  S   UNL     1      36.135 -18.635 -20.626  0.00  0.00    +0.113 S 
ATOM      2  O   UNL     1      35.589 -17.364 -20.187  0.00  0.00    -0.138 OA
ATOM      3  O   UNL     1      37.567 -18.868 -20.577  0.00  0.00    -0.138 OA
ENDROOT
BRANCH   1   4
ATOM      4  N   UNL     1      35.351 -19.882 -19.747  0.00  0.00    -0.143 NA
ATOM      5  C   UNL     1      34.112 -22.349 -18.832  0.00  0.00    -0.059 C 
ATOM      6  C   UNL     1      33.283 -21.117 -19.213  0.00  0.00    -0.002 C 
ATOM      7  C   UNL     1      35.511 -21.924 -18.372  0.00  0.00    -0.002 C 
ATOM      8  C   UNL     1      34.006 -20.274 -20.261  0.00  0.00    +0.095 C 
ATOM      9  C   UNL     1      36.200 -21.069 -19.431  0.00  0.00    +0.095 C 
BRANCH   5  10
ATOM     10  N   UNL     1      33.440 -23.096 -17.772  0.00  0.00    +0.388 N 
ATOM     11  H   UNL     1      34.086 -23.223 -16.992  0.00  0.00    -0.084 HD
ATOM     12  H   UNL     1      33.148 -24.000 -18.142  0.00  0.00    -0.084 HD
BRANCH  10  13
ATOM     13  C   UNL     1      32.262 -22.380 -17.304  0.00  0.00    -0.051 C 
BRANCH  13  14
ATOM     14  C   UNL     1      31.758 -22.927 -15.995  0.00  0.00    -0.010 C 
ATOM     15  C   UNL     1      30.395 -22.971 -15.731  0.00  0.00    +0.128 C 
ATOM     16  C   UNL     1      32.679 -23.384 -15.061  0.00  0.00    -0.003 C 
ATOM     17  C   UNL     1      29.945 -23.480 -14.514  0.00  0.00    +0.036 C 
ATOM     18  C   UNL     1      32.229 -23.893 -13.842  0.00  0.00    -0.000 C 
ATOM     19  C   UNL     1      30.863 -23.941 -13.569  0.00  0.00    +0.003 C 
BRANCH  15  20
ATOM     20  O   UNL     1      29.486 -22.524 -16.643  0.00  0.00    -0.506 OA
ATOM     21  H   UNL     1      28.933 -21.796 -16.436  0.00  0.00    +0.292 HD
ENDBRANCH  15  20
ENDBRANCH  13  14
ENDBRANCH  10  13
ENDBRANCH   5  10
ENDBRANCH   1   4
BRANCH   1  22
ATOM     22  N   UNL     1      35.539 -18.940 -22.216  0.00  0.00    -0.205 N 
ATOM     23  H   UNL     1      35.543 -19.845 -22.604  0.00  0.00    +0.175 HD
BRANCH  22  24
ATOM     24  C   UNL     1      35.034 -17.808 -22.949  0.00  0.00    +0.069 C 
ATOM     25  C   UNL     1      35.310 -16.522 -22.500  0.00  0.00    +0.053 C 
ATOM     26  C   UNL     1      34.277 -18.015 -24.095  0.00  0.00    +0.016 C 
ATOM     27  C   UNL     1      34.820 -15.426 -23.210  0.00  0.00    +0.147 C 
ATOM     28  C   UNL     1      33.788 -16.918 -24.804  0.00  0.00    +0.004 C 
ATOM     29  C   UNL     1      34.060 -15.624 -24.362  0.00  0.00    +0.038 C 
BRANCH  27  30
ATOM     30  O   UNL     1      35.085 -14.163 -22.777  0.00  0.00    -0.453 OA
BRANCH  30  32
ATOM     31  F   UNL     1      30.990 -11.362 -20.425  0.00  0.00    -0.204 F 
ATOM     32  C   UNL     1      34.052 -13.456 -22.183  0.00  0.00    +0.145 C 
ATOM     33  C   UNL     1      33.491 -13.937 -21.014  0.00  0.00    +0.040 C 
ATOM     34  C   UNL     1      33.608 -12.288 -22.776  0.00  0.00    +0.040 C 
ATOM     35  C   UNL     1      32.451 -13.225 -20.417  0.00  0.00    +0.033 C 
ATOM     36  C   UNL     1      32.567 -11.577 -22.179  0.00  0.00    +0.033 C 
ATOM     37  C   UNL     1      31.989 -12.045 -20.999  0.00  0.00    +0.140 C 
ENDBRANCH  30  32
ENDBRANCH  27  30
ENDBRANCH  22  24
ENDBRANCH   1  22
TORSDOF 9
ENDMDL
MODEL 2
REMARK VINA RESULT:     -12.5      3.755      6.852
REMARK  Name = 5287728
REMARK  9 active torsions:
REMARK  status: ('A' for Active; 'I' for Inactive)
REMARK    1  A    between atoms: S_1  and  N_4
REMARK    2  A    between atoms: S_1  and  N_22
REMARK    3  A    between atoms: C_5  and  N_10
REMARK    4  A    between atoms: N_10  and  C_13
REMARK    5  A    between atoms: C_13  and  C_14
REMARK    6  A    between atoms: C_15  and  O_20
REMARK    7  A    between atoms: N_22  and  C_24
REMARK    8  A    between atoms: C_27  and  O_30
REMARK    9  A    between atoms: O_30  and  C_32
REMARK                            x       y       z     vdW  Elec       q    Type
REMARK                         _______ _______ _______ _____ _____    ______ ____
ROOT
ATOM      1  S   UNL     1      33.201 -13.135 -22.821  0.00  0.00    +0.113 S 
ATOM      2  O   UNL     1      34.117 -12.031 -22.599  0.00  0.00    -0.138 OA
ATOM      3  O   UNL     1      32.756 -13.453 -24.166  0.00  0.00    -0.138 OA
ENDROOT
BRANCH   1   4
ATOM      4  N   UNL     1      33.890 -14.545 -22.128  0.00  0.00    -0.143 NA
ATOM      5  C   UNL     1      35.643 -16.596 -21.042  0.00  0.00    -0.059 C 
ATOM      6  C   UNL     1      35.009 -16.723 -22.431  0.00  0.00    -0.002 C 
ATOM      7  C   UNL     1      34.773 -15.711 -20.141  0.00  0.00    -0.002 C 
ATOM      8  C   UNL     1      34.752 -15.348 -23.044  0.00  0.00    +0.095 C 
ATOM      9  C   UNL     1      34.520 -14.353 -20.788  0.00  0.00    +0.095 C 
BRANCH   5  10
ATOM     10  N   UNL     1      35.803 -17.918 -20.442  0.00  0.00    +0.388 N 
ATOM     11  H   UNL     1      35.508 -17.881 -19.466  0.00  0.00    -0.084 HD
ATOM     12  H   UNL     1      36.784 -18.190 -20.505  0.00  0.00    -0.084 HD
BRANCH  10  13
ATOM     13  C   UNL     1      34.998 -18.905 -21.146  0.00  0.00    -0.051 C 
BRANCH  13  14
ATOM     14  C   UNL     1      34.537 -20.007 -20.231  0.00  0.00    -0.010 C 
ATOM     15  C   UNL     1      35.462 -20.793 -19.557  0.00  0.00    +0.128 C 
ATOM     16  C   UNL     1      33.173 -20.221 -20.076  0.00  0.00    -0.003 C 
ATOM     17  C   UNL     1      35.017 -21.810 -18.713  0.00  0.00    +0.036 C 
ATOM     18  C   UNL     1      32.728 -21.240 -19.232  0.00  0.00    -0.000 C 
ATOM     19  C   UNL     1      33.650 -22.033 -18.551  0.00  0.00    +0.003 C 
BRANCH  15  20
ATOM     20  O   UNL     1      36.802 -20.588 -19.704  0.00  0.00    -0.506 OA
ATOM     21  H   UNL     1      37.120 -19.752 -19.982  0.00  0.00    +0.292 HD
ENDBRANCH  15  20
ENDBRANCH  13  14
ENDBRANCH  10  13
ENDBRANCH   5  10
ENDBRANCH   1   4
BRANCH   1  22
ATOM     22  N   UNL     1      31.840 -12.902 -21.786  0.00  0.00    -0.205 N 
ATOM     23  H   UNL     1      31.133 -13.581 -21.702  0.00  0.00    +0.175 HD
BRANCH  22  24
ATOM     24  C   UNL     1      31.789 -11.665 -21.049  0.00  0.00    +0.069 C 
ATOM     25  C   UNL     1      31.374 -10.504 -21.688  0.00  0.00    +0.053 C 
ATOM     26  C   UNL     1      32.155 -11.649 -19.709  0.00  0.00    +0.016 C 
ATOM     27  C   UNL     1      31.325  -9.306 -20.974  0.00  0.00    +0.147 C 
ATOM     28  C   UNL     1      32.106 -10.452 -18.997  0.00  0.00    +0.004 C 
ATOM     29  C   UNL     1      31.690  -9.281 -19.629  0.00  0.00    +0.038 C 
BRANCH  27  30
ATOM     30  O   UNL     1      30.921  -8.162 -21.592  0.00  0.00    -0.453 OA
BRANCH  30  32
ATOM     31  F   UNL     1      34.749  -5.122 -24.093  0.00  0.00    -0.204 F 
ATOM     32  C   UNL     1      31.887  -7.396 -22.223  0.00  0.00    +0.145 C 
ATOM     33  C   UNL     1      33.179  -7.400 -21.730  0.00  0.00    +0.040 C 
ATOM     34  C   UNL     1      31.534  -6.645 -23.330  0.00  0.00    +0.040 C 
ATOM     35  C   UNL     1      34.151  -6.628 -22.366  0.00  0.00    +0.033 C 
ATOM     36  C   UNL     1      32.505  -5.872 -23.965  0.00  0.00    +0.033 C 
ATOM     37  C   UNL     1      33.814  -5.864 -23.482  0.00  0.00    +0.140 C 
ENDBRANCH  30  32
ENDBRANCH  27  30
ENDBRANCH  22  24
ENDBRANCH   1  22
TORSDOF 9
ENDMDL
MODEL 3
REMARK VINA RESULT:     -12.4      3.690      6.648
REMARK  Name = 5287728
REMARK  9 active torsions:
REMARK  status: ('A' for Active; 'I' for Inactive)
REMARK    1  A    between atoms: S_1  and  N_4
REMARK    2  A    between atoms: S_1  and  N_22
REMARK    3  A    between atoms: C_5  and  N_10
REMARK    4  A    between atoms: N_10  and  C_13
REMARK    5  A    between atoms: C_13  and  C_14
REMARK    6  A    between atoms: C_15  and  O_20
REMARK    7  A    between atoms: N_22  and  C_24
REMARK    8  A    between atoms: C_27  and  O_30
REMARK    9  A    between atoms: O_30  and  C_32
REMARK                            x       y       z     vdW  Elec       q    Type
REMARK                         _______ _______ _______ _____ _____    ______ ____
ROOT
ATOM      1  S   UNL     1      33.292 -13.270 -22.857  0.00  0.00    +0.113 S 
ATOM      2  O   UNL     1      34.239 -12.209 -22.567  0.00  0.00    -0.138 OA
ATOM      3  O   UNL     1      32.772 -13.434 -24.203  0.00  0.00    -0.138 OA
ENDROOT
BRANCH   1   4
ATOM      4  N   UNL     1      33.988 -14.755 -22.358  0.00  0.00    -0.143 NA
ATOM      5  C   UNL     1      35.754 -16.936 -21.595  0.00  0.00    -0.059 C 
ATOM      6  C   UNL     1      35.043 -16.905 -22.952  0.00  0.00    -0.002 C 
ATOM      7  C   UNL     1      34.953 -16.141 -20.558  0.00  0.00    -0.002 C 
ATOM      8  C   UNL     1      34.782 -15.468 -23.401  0.00  0.00    +0.095 C 
ATOM      9  C   UNL     1      34.693 -14.717 -21.042  0.00  0.00    +0.095 C 
BRANCH   5  10
ATOM     10  N   UNL     1      35.920 -18.317 -21.148  0.00  0.00    +0.388 N 
ATOM     11  H   UNL     1      36.318 -18.320 -20.209  0.00  0.00    -0.084 HD
ATOM     12  H   UNL     1      36.540 -18.800 -21.799  0.00  0.00    -0.084 HD
BRANCH  10  13
ATOM     13  C   UNL     1      34.639 -19.008 -21.124  0.00  0.00    -0.051 C 
BRANCH  13  14
ATOM     14  C   UNL     1      34.631 -20.137 -20.129  0.00  0.00    -0.010 C 
ATOM     15  C   UNL     1      33.430 -20.703 -19.720  0.00  0.00    +0.128 C 
ATOM     16  C   UNL     1      35.842 -20.600 -19.630  0.00  0.00    -0.003 C 
ATOM     17  C   UNL     1      33.440 -21.748 -18.797  0.00  0.00    +0.036 C 
ATOM     18  C   UNL     1      35.852 -21.645 -18.706  0.00  0.00    -0.000 C 
ATOM     19  C   UNL     1      34.652 -22.219 -18.290  0.00  0.00    +0.003 C 
BRANCH  15  20
ATOM     20  O   UNL     1      32.238 -20.255 -20.205  0.00  0.00    -0.506 OA
ATOM     21  H   UNL     1      31.941 -19.391 -19.994  0.00  0.00    +0.292 HD
ENDBRANCH  15  20
ENDBRANCH  13  14
ENDBRANCH  10  13
ENDBRANCH   5  10
ENDBRANCH   1   4
BRANCH   1  22
ATOM     22  N   UNL     1      31.990 -13.132 -21.732  0.00  0.00    -0.205 N 
ATOM     23  H   UNL     1      31.362 -13.874 -21.575  0.00  0.00    +0.175 HD
BRANCH  22  24
ATOM     24  C   UNL     1      31.866 -11.878 -21.034  0.00  0.00    +0.069 C 
ATOM     25  C   UNL     1      31.430 -10.751 -21.719  0.00  0.00    +0.053 C 
ATOM     26  C   UNL     1      32.184 -11.812 -19.683  0.00  0.00    +0.016 C 
ATOM     27  C   UNL     1      31.311  -9.538 -21.042  0.00  0.00    +0.147 C 
ATOM     28  C   UNL     1      32.065 -10.598 -19.007  0.00  0.00    +0.004 C 
ATOM     29  C   UNL     1      31.628  -9.461 -19.686  0.00  0.00    +0.038 C 
BRANCH  27  30
ATOM     30  O   UNL     1      30.886  -8.428 -21.706  0.00  0.00    -0.453 OA
BRANCH  30  32
ATOM     31  F   UNL     1      34.703  -5.151 -23.906  0.00  0.00    -0.204 F 
ATOM     32  C   UNL     1      31.848  -7.601 -22.260  0.00  0.00    +0.145 C 
ATOM     33  C   UNL     1      31.520  -6.827 -23.359  0.00  0.00    +0.040 C 
ATOM     34  C   UNL     1      33.113  -7.571 -21.702  0.00  0.00    +0.040 C 
ATOM     35  C   UNL     1      32.490  -5.995 -23.917  0.00  0.00    +0.033 C 
ATOM     36  C   UNL     1      34.083  -6.739 -22.261  0.00  0.00    +0.033 C 
ATOM     37  C   UNL     1      33.771  -5.951 -23.369  0.00  0.00    +0.140 C 
ENDBRANCH  30  32
ENDBRANCH  27  30
ENDBRANCH  22  24
ENDBRANCH   1  22
TORSDOF 9
ENDMDL
MODEL 4
REMARK VINA RESULT:     -12.4      3.052      4.623
REMARK  Name = 5287728
REMARK  9 active torsions:
REMARK  status: ('A' for Active; 'I' for Inactive)
REMARK    1  A    between atoms: S_1  and  N_4
REMARK    2  A    between atoms: S_1  and  N_22
REMARK    3  A    between atoms: C_5  and  N_10
REMARK    4  A    between atoms: N_10  and  C_13
REMARK    5  A    between atoms: C_13  and  C_14
REMARK    6  A    between atoms: C_15  and  O_20
REMARK    7  A    between atoms: N_22  and  C_24
REMARK    8  A    between atoms: C_27  and  O_30
REMARK    9  A    between atoms: O_30  and  C_32
REMARK                            x       y       z     vdW  Elec       q    Type
REMARK                         _______ _______ _______ _____ _____    ______ ____
ROOT
ATOM      1  S   UNL     1      34.266 -16.386 -24.470  0.00  0.00    +0.113 S 
ATOM      2  O   UNL     1      35.422 -15.850 -25.166  0.00  0.00    -0.138 OA
ATOM      3  O   UNL     1      33.250 -17.119 -25.204  0.00  0.00    -0.138 OA
ENDROOT
BRANCH   1   4
ATOM      4  N   UNL     1      34.830 -17.374 -23.187  0.00  0.00    -0.143 NA
ATOM      5  C   UNL     1      35.161 -18.941 -20.760  0.00  0.00    -0.059 C 
ATOM      6  C   UNL     1      35.799 -17.558 -20.926  0.00  0.00    -0.002 C 
ATOM      7  C   UNL     1      34.959 -19.599 -22.129  0.00  0.00    -0.002 C 
ATOM      8  C   UNL     1      34.976 -16.685 -21.871  0.00  0.00    +0.095 C 
ATOM      9  C   UNL     1      34.150 -18.697 -23.057  0.00  0.00    +0.095 C 
BRANCH   5  10
ATOM     10  N   UNL     1      36.006 -19.785 -19.918  0.00  0.00    +0.388 N 
ATOM     11  H   UNL     1      35.961 -19.448 -18.956  0.00  0.00    -0.084 HD
ATOM     12  H   UNL     1      36.963 -19.741 -20.266  0.00  0.00    -0.084 HD
BRANCH  10  13
ATOM     13  C   UNL     1      35.557 -21.169 -19.960  0.00  0.00    -0.051 C 
BRANCH  13  14
ATOM     14  C   UNL     1      35.370 -21.739 -18.579  0.00  0.00    -0.010 C 
ATOM     15  C   UNL     1      34.155 -22.302 -18.211  0.00  0.00    +0.128 C 
ATOM     16  C   UNL     1      36.432 -21.691 -17.685  0.00  0.00    -0.003 C 
ATOM     17  C   UNL     1      33.998 -22.825 -16.929  0.00  0.00    +0.036 C 
ATOM     18  C   UNL     1      36.275 -22.214 -16.401  0.00  0.00    -0.000 C 
ATOM     19  C   UNL     1      35.059 -22.781 -16.024  0.00  0.00    +0.003 C 
BRANCH  15  20
ATOM     20  O   UNL     1      33.108 -22.353 -19.083  0.00  0.00    -0.506 OA
ATOM     21  H   UNL     1      33.187 -22.836 -19.883  0.00  0.00    +0.292 HD
ENDBRANCH  15  20
ENDBRANCH  13  14
ENDBRANCH  10  13
ENDBRANCH   5  10
ENDBRANCH   1   4
BRANCH   1  22
ATOM     22  N   UNL     1      33.542 -15.093 -23.586  0.00  0.00    -0.205 N 
ATOM     23  H   UNL     1      33.121 -15.240 -22.708  0.00  0.00    +0.175 HD
BRANCH  22  24
ATOM     24  C   UNL     1      33.582 -13.788 -24.193  0.00  0.00    +0.069 C 
ATOM     25  C   UNL     1      33.991 -12.694 -23.441  0.00  0.00    +0.053 C 
ATOM     26  C   UNL     1      33.210 -13.639 -25.524  0.00  0.00    +0.016 C 
ATOM     27  C   UNL     1      34.028 -11.430 -24.030  0.00  0.00    +0.147 C 
ATOM     28  C   UNL     1      33.248 -12.375 -26.111  0.00  0.00    +0.004 C 
ATOM     29  C   UNL     1      33.657 -11.271 -25.365  0.00  0.00    +0.038 C 
BRANCH  27  30
ATOM     30  O   UNL     1      34.426 -10.352 -23.301  0.00  0.00    -0.453 OA
BRANCH  30  32
ATOM     31  F   UNL     1      30.590  -6.707 -21.834  0.00  0.00    -0.204 F 
ATOM     32  C   UNL     1      33.458  -9.432 -22.930  0.00  0.00    +0.145 C 
ATOM     33  C   UNL     1      32.356  -9.865 -22.215  0.00  0.00    +0.040 C 
ATOM     34  C   UNL     1      33.619  -8.106 -23.286  0.00  0.00    +0.040 C 
ATOM     35  C   UNL     1      31.382  -8.939 -21.842  0.00  0.00    +0.033 C 
ATOM     36  C   UNL     1      32.644  -7.180 -22.914  0.00  0.00    +0.033 C 
ATOM     37  C   UNL     1      31.526  -7.597 -22.192  0.00  0.00    +0.140 C 
ENDBRANCH  30  32
ENDBRANCH  27  30
ENDBRANCH  22  24
ENDBRANCH   1  22
TORSDOF 9
ENDMDL
MODEL 5
REMARK VINA RESULT:     -12.4      3.255     10.434
REMARK  Name = 5287728
REMARK  9 active torsions:
REMARK  status: ('A' for Active; 'I' for Inactive)
REMARK    1  A    between atoms: S_1  and  N_4
REMARK    2  A    between atoms: S_1  and  N_22
REMARK    3  A    between atoms: C_5  and  N_10
REMARK    4  A    between atoms: N_10  and  C_13
REMARK    5  A    between atoms: C_13  and  C_14
REMARK    6  A    between atoms: C_15  and  O_20
REMARK    7  A    between atoms: N_22  and  C_24
REMARK    8  A    between atoms: C_27  and  O_30
REMARK    9  A    between atoms: O_30  and  C_32
REMARK                            x       y       z     vdW  Elec       q    Type
REMARK                         _______ _______ _______ _____ _____    ______ ____
ROOT
ATOM      1  S   UNL     1      33.537 -22.896 -17.957  0.00  0.00    +0.113 S 
ATOM      2  O   UNL     1      32.255 -22.519 -17.391  0.00  0.00    -0.138 OA
ATOM      3  O   UNL     1      33.721 -24.219 -18.525  0.00  0.00    -0.138 OA
ENDROOT
BRANCH   1   4
ATOM      4  N   UNL     1      33.958 -21.730 -19.142  0.00  0.00    -0.143 NA
ATOM      5  C   UNL     1      34.653 -19.325 -20.622  0.00  0.00    -0.059 C 
ATOM      6  C   UNL     1      33.260 -19.958 -20.710  0.00  0.00    -0.002 C 
ATOM      7  C   UNL     1      35.697 -20.390 -20.267  0.00  0.00    -0.002 C 
ATOM      8  C   UNL     1      32.914 -20.701 -19.421  0.00  0.00    +0.095 C 
ATOM      9  C   UNL     1      35.315 -21.127 -18.987  0.00  0.00    +0.095 C 
BRANCH   5  10
ATOM     10  N   UNL     1      34.996 -18.690 -21.892  0.00  0.00    +0.388 N 
ATOM     11  H   UNL     1      34.151 -18.300 -22.310  0.00  0.00    -0.084 HD
ATOM     12  H   UNL     1      35.406 -19.391 -22.509  0.00  0.00    -0.084 HD
BRANCH  10  13
ATOM     13  C   UNL     1      35.964 -17.622 -21.689  0.00  0.00    -0.051 C 
BRANCH  13  14
ATOM     14  C   UNL     1      35.314 -16.264 -21.717  0.00  0.00    -0.010 C 
ATOM     15  C   UNL     1      35.034 -15.645 -22.928  0.00  0.00    +0.128 C 
ATOM     16  C   UNL     1      35.003 -15.647 -20.512  0.00  0.00    -0.003 C 
ATOM     17  C   UNL     1      34.433 -14.387 -22.935  0.00  0.00    +0.036 C 
ATOM     18  C   UNL     1      34.401 -14.388 -20.519  0.00  0.00    -0.000 C 
ATOM     19  C   UNL     1      34.116 -13.759 -21.730  0.00  0.00    +0.003 C 
BRANCH  15  20
ATOM     20  O   UNL     1      35.337 -16.245 -24.113  0.00  0.00    -0.506 OA
ATOM     21  H   UNL     1      35.598 -17.145 -24.130  0.00  0.00    +0.292 HD
ENDBRANCH  15  20
ENDBRANCH  13  14
ENDBRANCH  10  13
ENDBRANCH   5  10
ENDBRANCH   1   4
BRANCH   1  22
ATOM     22  N   UNL     1      34.746 -22.590 -16.763  0.00  0.00    -0.205 N 
ATOM     23  H   UNL     1      35.525 -22.020 -16.952  0.00  0.00    +0.175 HD
BRANCH  22  24
ATOM     24  C   UNL     1      34.559 -23.210 -15.477  0.00  0.00    +0.069 C 
ATOM     25  C   UNL     1      33.309 -23.173 -14.872  0.00  0.00    +0.053 C 
ATOM     26  C   UNL     1      35.632 -23.838 -14.856  0.00  0.00    +0.016 C 
ATOM     27  C   UNL     1      33.130 -23.773 -13.625  0.00  0.00    +0.147 C 
ATOM     28  C   UNL     1      35.452 -24.437 -13.610  0.00  0.00    +0.004 C 
ATOM     29  C   UNL     1      34.201 -24.405 -12.995  0.00  0.00    +0.038 C 
BRANCH  27  30
ATOM     30  O   UNL     1      31.909 -23.740 -13.025  0.00  0.00    -0.453 OA
BRANCH  30  32
ATOM     31  F   UNL     1      27.470 -23.822 -16.254  0.00  0.00    -0.204 F 
ATOM     32  C   UNL     1      30.789 -23.760 -13.840  0.00  0.00    +0.145 C 
ATOM     33  C   UNL     1      30.180 -22.565 -14.178  0.00  0.00    +0.040 C 
ATOM     34  C   UNL     1      30.309 -24.975 -14.294  0.00  0.00    +0.040 C 
ATOM     35  C   UNL     1      29.053 -22.586 -14.998  0.00  0.00    +0.033 C 
ATOM     36  C   UNL     1      29.181 -24.996 -15.114  0.00  0.00    +0.033 C 
ATOM     37  C   UNL     1      28.553 -23.802 -15.466  0.00  0.00    +0.140 C 
ENDBRANCH  30  32
ENDBRANCH  27  30
ENDBRANCH  22  24
ENDBRANCH   1  22
TORSDOF 9
ENDMDL
MODEL 6
REMARK VINA RESULT:     -12.4      3.817      6.620
REMARK  Name = 5287728
REMARK  9 active torsions:
REMARK  status: ('A' for Active; 'I' for Inactive)
REMARK    1  A    between atoms: S_1  and  N_4
REMARK    2  A    between atoms: S_1  and  N_22
REMARK    3  A    between atoms: C_5  and  N_10
REMARK    4  A    between atoms: N_10  and  C_13
REMARK    5  A    between atoms: C_13  and  C_14
REMARK    6  A    between atoms: C_15  and  O_20
REMARK    7  A    between atoms: N_22  and  C_24
REMARK    8  A    between atoms: C_27  and  O_30
REMARK    9  A    between atoms: O_30  and  C_32
REMARK                            x       y       z     vdW  Elec       q    Type
REMARK                         _______ _______ _______ _____ _____    ______ ____
ROOT
ATOM      1  S   UNL     1      33.513 -13.462 -23.013  0.00  0.00    +0.113 S 
ATOM      2  O   UNL     1      34.567 -12.474 -22.872  0.00  0.00    -0.138 OA
ATOM      3  O   UNL     1      32.829 -13.621 -24.284  0.00  0.00    -0.138 OA
ENDROOT
BRANCH   1   4
ATOM      4  N   UNL     1      34.146 -14.985 -22.542  0.00  0.00    -0.143 NA
ATOM      5  C   UNL     1      35.817 -17.254 -21.825  0.00  0.00    -0.059 C 
ATOM      6  C   UNL     1      35.100 -17.169 -23.176  0.00  0.00    -0.002 C 
ATOM      7  C   UNL     1      35.058 -16.440 -20.770  0.00  0.00    -0.002 C 
ATOM      8  C   UNL     1      34.901 -15.716 -23.601  0.00  0.00    +0.095 C 
ATOM      9  C   UNL     1      34.859 -14.999 -21.230  0.00  0.00    +0.095 C 
BRANCH   5  10
ATOM     10  N   UNL     1      35.924 -18.648 -21.401  0.00  0.00    +0.388 N 
ATOM     11  H   UNL     1      36.462 -18.694 -20.535  0.00  0.00    -0.084 HD
ATOM     12  H   UNL     1      36.388 -19.180 -22.137  0.00  0.00    -0.084 HD
BRANCH  10  13
ATOM     13  C   UNL     1      34.605 -19.220 -21.173  0.00  0.00    -0.051 C 
BRANCH  13  14
ATOM     14  C   UNL     1      34.631 -20.279 -20.104  0.00  0.00    -0.010 C 
ATOM     15  C   UNL     1      33.447 -20.842 -19.644  0.00  0.00    +0.128 C 
ATOM     16  C   UNL     1      35.857 -20.681 -19.589  0.00  0.00    -0.003 C 
ATOM     17  C   UNL     1      33.489 -21.822 -18.654  0.00  0.00    +0.036 C 
ATOM     18  C   UNL     1      35.899 -21.662 -18.597  0.00  0.00    -0.000 C 
ATOM     19  C   UNL     1      34.716 -22.232 -18.131  0.00  0.00    +0.003 C 
BRANCH  15  20
ATOM     20  O   UNL     1      32.241 -20.453 -20.145  0.00  0.00    -0.506 OA
ATOM     21  H   UNL     1      32.190 -20.061 -20.995  0.00  0.00    +0.292 HD
ENDBRANCH  15  20
ENDBRANCH  13  14
ENDBRANCH  10  13
ENDBRANCH   5  10
ENDBRANCH   1   4
BRANCH   1  22
ATOM     22  N   UNL     1      32.367 -13.187 -21.753  0.00  0.00    -0.205 N 
ATOM     23  H   UNL     1      31.852 -13.925 -21.353  0.00  0.00    +0.175 HD
BRANCH  22  24
ATOM     24  C   UNL     1      32.198 -11.826 -21.315  0.00  0.00    +0.069 C 
ATOM     25  C   UNL     1      32.352 -10.788 -22.225  0.00  0.00    +0.053 C 
ATOM     26  C   UNL     1      31.884 -11.567 -19.986  0.00  0.00    +0.016 C 
ATOM     27  C   UNL     1      32.189  -9.469 -21.799  0.00  0.00    +0.147 C 
ATOM     28  C   UNL     1      31.722 -10.249 -19.561  0.00  0.00    +0.004 C 
ATOM     29  C   UNL     1      31.873  -9.201 -20.467  0.00  0.00    +0.038 C 
BRANCH  27  30
ATOM     30  O   UNL     1      32.339  -8.446 -22.684  0.00  0.00    -0.453 OA
BRANCH  30  32
ATOM     31  F   UNL     1      31.088  -3.383 -20.967  0.00  0.00    -0.204 F 
ATOM     32  C   UNL     1      32.023  -7.169 -22.250  0.00  0.00    +0.145 C 
ATOM     33  C   UNL     1      30.734  -6.697 -22.426  0.00  0.00    +0.040 C 
ATOM     34  C   UNL     1      33.004  -6.398 -21.654  0.00  0.00    +0.040 C 
ATOM     35  C   UNL     1      30.417  -5.411 -21.989  0.00  0.00    +0.033 C 
ATOM     36  C   UNL     1      32.687  -5.111 -21.219  0.00  0.00    +0.033 C 
ATOM     37  C   UNL     1      31.393  -4.618 -21.386  0.00  0.00    +0.140 C 
ENDBRANCH  30  32
ENDBRANCH  27  30
ENDBRANCH  22  24
ENDBRANCH   1  22
TORSDOF 9
ENDMDL
MODEL 7
REMARK VINA RESULT:     -12.2      4.330     11.163
REMARK  Name = 5287728
REMARK  9 active torsions:
REMARK  status: ('A' for Active; 'I' for Inactive)
REMARK    1  A    between atoms: S_1  and  N_4
REMARK    2  A    between atoms: S_1  and  N_22
REMARK    3  A    between atoms: C_5  and  N_10
REMARK    4  A    between atoms: N_10  and  C_13
REMARK    5  A    between atoms: C_13  and  C_14
REMARK    6  A    between atoms: C_15  and  O_20
REMARK    7  A    between atoms: N_22  and  C_24
REMARK    8  A    between atoms: C_27  and  O_30
REMARK    9  A    between atoms: O_30  and  C_32
REMARK                            x       y       z     vdW  Elec       q    Type
REMARK                         _______ _______ _______ _____ _____    ______ ____
ROOT
ATOM      1  S   UNL     1      33.531 -22.788 -17.979  0.00  0.00    +0.113 S 
ATOM      2  O   UNL     1      32.161 -22.375 -17.739  0.00  0.00    -0.138 OA
ATOM      3  O   UNL     1      33.806 -24.015 -18.705  0.00  0.00    -0.138 OA
ENDROOT
BRANCH   1   4
ATOM      4  N   UNL     1      34.345 -21.498 -18.763  0.00  0.00    -0.143 NA
ATOM      5  C   UNL     1      35.727 -19.739 -20.622  0.00  0.00    -0.059 C 
ATOM      6  C   UNL     1      36.463 -20.460 -19.487  0.00  0.00    -0.002 C 
ATOM      7  C   UNL     1      34.254 -19.532 -20.251  0.00  0.00    -0.002 C 
ATOM      8  C   UNL     1      35.767 -21.770 -19.128  0.00  0.00    +0.095 C 
ATOM      9  C   UNL     1      33.591 -20.855 -19.880  0.00  0.00    +0.095 C 
BRANCH   5  10
ATOM     10  N   UNL     1      36.362 -18.452 -20.893  0.00  0.00    +0.388 N 
ATOM     11  H   UNL     1      37.368 -18.588 -20.986  0.00  0.00    -0.084 HD
ATOM     12  H   UNL     1      36.159 -17.817 -20.121  0.00  0.00    -0.084 HD
BRANCH  10  13
ATOM     13  C   UNL     1      35.844 -17.871 -22.123  0.00  0.00    -0.051 C 
BRANCH  13  14
ATOM     14  C   UNL     1      35.331 -16.472 -21.909  0.00  0.00    -0.010 C 
ATOM     15  C   UNL     1      35.118 -15.629 -22.992  0.00  0.00    +0.128 C 
ATOM     16  C   UNL     1      35.077 -16.043 -20.612  0.00  0.00    -0.003 C 
ATOM     17  C   UNL     1      34.643 -14.336 -22.776  0.00  0.00    +0.036 C 
ATOM     18  C   UNL     1      34.603 -14.748 -20.396  0.00  0.00    -0.000 C 
ATOM     19  C   UNL     1      34.386 -13.896 -21.477  0.00  0.00    +0.003 C 
BRANCH  15  20
ATOM     20  O   UNL     1      35.365 -16.043 -24.267  0.00  0.00    -0.506 OA
ATOM     21  H   UNL     1      34.705 -15.949 -24.926  0.00  0.00    +0.292 HD
ENDBRANCH  15  20
ENDBRANCH  13  14
ENDBRANCH  10  13
ENDBRANCH   5  10
ENDBRANCH   1   4
BRANCH   1  22
ATOM     22  N   UNL     1      34.347 -22.804 -16.458  0.00  0.00    -0.205 N 
ATOM     23  H   UNL     1      35.282 -22.509 -16.371  0.00  0.00    +0.175 HD
BRANCH  22  24
ATOM     24  C   UNL     1      33.593 -23.269 -15.323  0.00  0.00    +0.069 C 
ATOM     25  C   UNL     1      34.262 -23.816 -14.234  0.00  0.00    +0.053 C 
ATOM     26  C   UNL     1      32.208 -23.167 -15.330  0.00  0.00    +0.016 C 
ATOM     27  C   UNL     1      33.531 -24.267 -13.134  0.00  0.00    +0.147 C 
ATOM     28  C   UNL     1      31.479 -23.618 -14.230  0.00  0.00    +0.004 C 
ATOM     29  C   UNL     1      32.140 -24.168 -13.133  0.00  0.00    +0.038 C 
BRANCH  27  30
ATOM     30  O   UNL     1      34.177 -24.805 -12.064  0.00  0.00    -0.453 OA
BRANCH  30  32
ATOM     31  F   UNL     1      39.425 -23.397 -11.275  0.00  0.00    -0.204 F 
ATOM     32  C   UNL     1      35.501 -24.450 -11.865  0.00  0.00    +0.145 C 
ATOM     33  C   UNL     1      36.500 -25.311 -12.284  0.00  0.00    +0.040 C 
ATOM     34  C   UNL     1      35.790 -23.244 -11.253  0.00  0.00    +0.040 C 
ATOM     35  C   UNL     1      37.832 -24.953 -12.084  0.00  0.00    +0.033 C 
ATOM     36  C   UNL     1      37.123 -22.886 -11.052  0.00  0.00    +0.033 C 
ATOM     37  C   UNL     1      38.144 -23.741 -11.467  0.00  0.00    +0.140 C 
ENDBRANCH  30  32
ENDBRANCH  27  30
ENDBRANCH  22  24
ENDBRANCH   1  22
TORSDOF 9
ENDMDL
MODEL 8
REMARK VINA RESULT:     -12.0      3.308     10.251
REMARK  Name = 5287728
REMARK  9 active torsions:
REMARK  status: ('A' for Active; 'I' for Inactive)
REMARK    1  A    between atoms: S_1  and  N_4
REMARK    2  A    between atoms: S_1  and  N_22
REMARK    3  A    between atoms: C_5  and  N_10
REMARK    4  A    between atoms: N_10  and  C_13
REMARK    5  A    between atoms: C_13  and  C_14
REMARK    6  A    between atoms: C_15  and  O_20
REMARK    7  A    between atoms: N_22  and  C_24
REMARK    8  A    between atoms: C_27  and  O_30
REMARK    9  A    between atoms: O_30  and  C_32
REMARK                            x       y       z     vdW  Elec       q    Type
REMARK                         _______ _______ _______ _____ _____    ______ ____
ROOT
ATOM      1  S   UNL     1      35.617 -17.980 -21.277  0.00  0.00    +0.113 S 
ATOM      2  O   UNL     1      36.236 -18.514 -22.477  0.00  0.00    -0.138 OA
ATOM      3  O   UNL     1      36.394 -17.838 -20.059  0.00  0.00    -0.138 OA
ENDROOT
BRANCH   1   4
ATOM      4  N   UNL     1      34.930 -16.458 -21.666  0.00  0.00    -0.143 NA
ATOM      5  C   UNL     1      34.406 -13.660 -22.259  0.00  0.00    -0.059 C 
ATOM      6  C   UNL     1      34.026 -14.289 -20.914  0.00  0.00    -0.002 C 
ATOM      7  C   UNL     1      34.434 -14.730 -23.356  0.00  0.00    -0.002 C 
ATOM      8  C   UNL     1      34.959 -15.447 -20.569  0.00  0.00    +0.095 C 
ATOM      9  C   UNL     1      35.360 -15.881 -22.974  0.00  0.00    +0.095 C 
BRANCH   5  10
ATOM     10  N   UNL     1      33.452 -12.610 -22.607  0.00  0.00    +0.388 N 
ATOM     11  H   UNL     1      33.149 -12.740 -23.573  0.00  0.00    -0.084 HD
ATOM     12  H   UNL     1      33.907 -11.704 -22.497  0.00  0.00    -0.084 HD
BRANCH  10  13
ATOM     13  C   UNL     1      32.290 -12.658 -21.732  0.00  0.00    -0.051 C 
BRANCH  13  14
ATOM     14  C   UNL     1      32.127 -11.385 -20.946  0.00  0.00    -0.010 C 
ATOM     15  C   UNL     1      32.151 -10.154 -21.590  0.00  0.00    +0.128 C 
ATOM     16  C   UNL     1      31.954 -11.465 -19.570  0.00  0.00    -0.003 C 
ATOM     17  C   UNL     1      31.999  -8.985 -20.847  0.00  0.00    +0.036 C 
ATOM     18  C   UNL     1      31.803 -10.294 -18.826  0.00  0.00    -0.000 C 
ATOM     19  C   UNL     1      31.825  -9.055 -19.464  0.00  0.00    +0.003 C 
BRANCH  15  20
ATOM     20  O   UNL     1      32.320 -10.069 -22.940  0.00  0.00    -0.506 OA
ATOM     21  H   UNL     1      31.736 -10.522 -23.515  0.00  0.00    +0.292 HD
ENDBRANCH  15  20
ENDBRANCH  13  14
ENDBRANCH  10  13
ENDBRANCH   5  10
ENDBRANCH   1   4
BRANCH   1  22
ATOM     22  N   UNL     1      34.194 -18.905 -20.967  0.00  0.00    -0.205 N 
ATOM     23  H   UNL     1      33.318 -18.643 -21.332  0.00  0.00    +0.175 HD
BRANCH  22  24
ATOM     24  C   UNL     1      34.348 -20.080 -20.148  0.00  0.00    +0.069 C 
ATOM     25  C   UNL     1      33.227 -20.669 -19.576  0.00  0.00    +0.053 C 
ATOM     26  C   UNL     1      35.615 -20.609 -19.939  0.00  0.00    +0.016 C 
ATOM     27  C   UNL     1      33.378 -21.806 -18.782  0.00  0.00    +0.147 C 
ATOM     28  C   UNL     1      35.764 -21.746 -19.146  0.00  0.00    +0.004 C 
ATOM     29  C   UNL     1      34.646 -22.344 -18.567  0.00  0.00    +0.038 C 
BRANCH  27  30
ATOM     30  O   UNL     1      32.285 -22.389 -18.216  0.00  0.00    -0.453 OA
BRANCH  30  32
ATOM     31  F   UNL     1      32.604 -23.804 -12.921  0.00  0.00    -0.204 F 
ATOM     32  C   UNL     1      32.365 -22.746 -16.880  0.00  0.00    +0.145 C 
ATOM     33  C   UNL     1      31.221 -22.712 -16.104  0.00  0.00    +0.040 C 
ATOM     34  C   UNL     1      33.588 -23.128 -16.357  0.00  0.00    +0.040 C 
ATOM     35  C   UNL     1      31.302 -23.072 -14.759  0.00  0.00    +0.033 C 
ATOM     36  C   UNL     1      33.669 -23.486 -15.012  0.00  0.00    +0.033 C 
ATOM     37  C   UNL     1      32.526 -23.459 -14.213  0.00  0.00    +0.140 C 
ENDBRANCH  30  32
ENDBRANCH  27  30
ENDBRANCH  22  24
ENDBRANCH   1  22
TORSDOF 9
ENDMDL
MODEL 9
REMARK VINA RESULT:     -12.0      3.224      5.605
REMARK  Name = 5287728
REMARK  9 active torsions:
REMARK  status: ('A' for Active; 'I' for Inactive)
REMARK    1  A    between atoms: S_1  and  N_4
REMARK    2  A    between atoms: S_1  and  N_22
REMARK    3  A    between atoms: C_5  and  N_10
REMARK    4  A    between atoms: N_10  and  C_13
REMARK    5  A    between atoms: C_13  and  C_14
REMARK    6  A    between atoms: C_15  and  O_20
REMARK    7  A    between atoms: N_22  and  C_24
REMARK    8  A    between atoms: C_27  and  O_30
REMARK    9  A    between atoms: O_30  and  C_32
REMARK                            x       y       z     vdW  Elec       q    Type
REMARK                         _______ _______ _______ _____ _____    ______ ____
ROOT
ATOM      1  S   UNL     1      33.737 -14.538 -24.817  0.00  0.00    +0.113 S 
ATOM      2  O   UNL     1      34.587 -14.466 -25.991  0.00  0.00    -0.138 OA
ATOM      3  O   UNL     1      32.301 -14.369 -24.946  0.00  0.00    -0.138 OA
ENDROOT
BRANCH   1   4
ATOM      4  N   UNL     1      34.042 -16.030 -24.030  0.00  0.00    -0.143 NA
ATOM      5  C   UNL     1      35.072 -18.601 -23.143  0.00  0.00    -0.059 C 
ATOM      6  C   UNL     1      33.788 -18.483 -23.971  0.00  0.00    -0.002 C 
ATOM      7  C   UNL     1      35.308 -17.314 -22.345  0.00  0.00    -0.002 C 
ATOM      8  C   UNL     1      33.825 -17.247 -24.866  0.00  0.00    +0.095 C 
ATOM      9  C   UNL     1      35.322 -16.095 -23.263  0.00  0.00    +0.095 C 
BRANCH   5  10
ATOM     10  N   UNL     1      34.980 -19.743 -22.236  0.00  0.00    +0.388 N 
ATOM     11  H   UNL     1      35.630 -20.467 -22.543  0.00  0.00    -0.084 HD
ATOM     12  H   UNL     1      34.023 -20.096 -22.249  0.00  0.00    -0.084 HD
BRANCH  10  13
ATOM     13  C   UNL     1      35.313 -19.349 -20.875  0.00  0.00    -0.051 C 
BRANCH  13  14
ATOM     14  C   UNL     1      34.920 -20.403 -19.875  0.00  0.00    -0.010 C 
ATOM     15  C   UNL     1      33.583 -20.731 -19.691  0.00  0.00    +0.128 C 
ATOM     16  C   UNL     1      35.916 -21.036 -19.143  0.00  0.00    -0.003 C 
ATOM     17  C   UNL     1      33.236 -21.709 -18.760  0.00  0.00    +0.036 C 
ATOM     18  C   UNL     1      35.569 -22.014 -18.210  0.00  0.00    -0.000 C 
ATOM     19  C   UNL     1      34.230 -22.351 -18.020  0.00  0.00    +0.003 C 
BRANCH  15  20
ATOM     20  O   UNL     1      32.600 -20.114 -20.406  0.00  0.00    -0.506 OA
ATOM     21  H   UNL     1      31.775 -19.928 -20.003  0.00  0.00    +0.292 HD
ENDBRANCH  15  20
ENDBRANCH  13  14
ENDBRANCH  10  13
ENDBRANCH   5  10
ENDBRANCH   1   4
BRANCH   1  22
ATOM     22  N   UNL     1      34.361 -13.428 -23.652  0.00  0.00    -0.205 N 
ATOM     23  H   UNL     1      35.222 -12.968 -23.785  0.00  0.00    +0.175 HD
BRANCH  22  24
ATOM     24  C   UNL     1      33.563 -13.205 -22.474  0.00  0.00    +0.069 C 
ATOM     25  C   UNL     1      32.648 -12.159 -22.453  0.00  0.00    +0.053 C 
ATOM     26  C   UNL     1      33.717 -14.038 -21.373  0.00  0.00    +0.016 C 
ATOM     27  C   UNL     1      31.876 -11.943 -21.312  0.00  0.00    +0.147 C 
ATOM     28  C   UNL     1      32.944 -13.821 -20.233  0.00  0.00    +0.004 C 
ATOM     29  C   UNL     1      32.024 -12.775 -20.202  0.00  0.00    +0.038 C 
BRANCH  27  30
ATOM     30  O   UNL     1      30.979 -10.920 -21.281  0.00  0.00    -0.453 OA
BRANCH  30  32
ATOM     31  F   UNL     1      32.922  -5.839 -20.539  0.00  0.00    -0.204 F 
ATOM     32  C   UNL     1      31.469  -9.638 -21.094  0.00  0.00    +0.145 C 
ATOM     33  C   UNL     1      31.910  -9.262 -19.838  0.00  0.00    +0.040 C 
ATOM     34  C   UNL     1      31.506  -8.768 -22.168  0.00  0.00    +0.040 C 
ATOM     35  C   UNL     1      32.404  -7.972 -19.650  0.00  0.00    +0.033 C 
ATOM     36  C   UNL     1      31.998  -7.476 -21.979  0.00  0.00    +0.033 C 
ATOM     37  C   UNL     1      32.448  -7.079 -20.720  0.00  0.00    +0.140 C 
ENDBRANCH  30  32
ENDBRANCH  27  30
ENDBRANCH  22  24
ENDBRANCH   1  22
TORSDOF 9
ENDMDL
