MODEL 1
REMARK VINA RESULT:     -11.9      0.000      0.000
REMARK  Name = 21302490
REMARK  5 active torsions:
REMARK  status: ('A' for Active; 'I' for Inactive)
REMARK    1  A    between atoms: N_2  and  C_19
REMARK    2  A    between atoms: C_19  and  C_20
REMARK    3  A    between atoms: C_20  and  C_21
REMARK    4  A    between atoms: C_21  and  C_23
REMARK    5  A    between atoms: C_23  and  C_25
REMARK                            x       y       z     vdW  Elec       q    Type
REMARK                         _______ _______ _______ _____ _____    ______ ____
ROOT
ATOM      1  N   UNL     1      33.273 -11.296 -22.957  0.00  0.00    -0.307 N 
ATOM      2  N   UNL     1      33.945 -14.799 -21.583  0.00  0.00    +0.387 N 
ATOM      3  N   UNL     1      33.263  -8.472 -22.507  0.00  0.00    -0.303 N 
ATOM      4  C   UNL     1      32.644 -12.618 -23.059  0.00  0.00    +0.073 C 
ATOM      5  C   UNL     1      32.229 -12.997 -21.600  0.00  0.00    +0.021 C 
ATOM      6  C   UNL     1      33.539 -13.660 -23.721  0.00  0.00    -0.003 C 
ATOM      7  C   UNL     1      33.327 -13.721 -20.805  0.00  0.00    -0.071 C 
ATOM      8  C   UNL     1      32.003 -11.625 -21.030  0.00  0.00    -0.008 C 
ATOM      9  C   UNL     1      32.643 -10.692 -21.851  0.00  0.00    +0.057 C 
ATOM     10  C   UNL     1      34.589 -14.247 -22.782  0.00  0.00    -0.076 C 
ATOM     11  C   UNL     1      33.512 -10.396 -24.067  0.00  0.00    +0.112 C 
ATOM     12  C   UNL     1      32.639  -9.321 -21.602  0.00  0.00    +0.061 C 
ATOM     13  C   UNL     1      34.114  -9.084 -23.539  0.00  0.00    +0.112 C 
ATOM     14  C   UNL     1      31.335 -11.221 -19.894  0.00  0.00    -0.003 C 
ATOM     15  C   UNL     1      31.950  -8.918 -20.450  0.00  0.00    +0.016 C 
ATOM     16  C   UNL     1      31.311  -9.855 -19.608  0.00  0.00    +0.001 C 
ATOM     17  C   UNL     1      33.405  -7.053 -22.235  0.00  0.00    +0.112 C 
ATOM     18  H   UNL     1      33.219 -15.457 -21.870  0.00  0.00    -0.080 HD
ENDROOT
BRANCH   2  19
ATOM     19  C   UNL     1      34.924 -15.517 -20.766  0.00  0.00    -0.077 C 
BRANCH  19  20
ATOM     20  C   UNL     1      35.522 -16.682 -21.558  0.00  0.00    -0.015 C 
BRANCH  20  21
ATOM     21  C   UNL     1      35.765 -17.916 -20.684  0.00  0.00    +0.067 C 
BRANCH  21  23
ATOM     22  O   UNL     1      34.629 -19.291 -22.309  0.00  0.00    -0.291 OA
ATOM     23  C   UNL     1      34.993 -19.144 -21.146  0.00  0.00    +0.173 C 
BRANCH  23  25
ATOM     24  F   UNL     1      33.857 -23.168 -17.391  0.00  0.00    -0.204 F 
ATOM     25  C   UNL     1      34.692 -20.213 -20.150  0.00  0.00    +0.035 C 
ATOM     26  C   UNL     1      35.733 -20.908 -19.537  0.00  0.00    +0.005 C 
ATOM     27  C   UNL     1      33.368 -20.515 -19.830  0.00  0.00    +0.005 C 
ATOM     28  C   UNL     1      35.452 -21.907 -18.605  0.00  0.00    +0.030 C 
ATOM     29  C   UNL     1      33.086 -21.513 -18.899  0.00  0.00    +0.030 C 
ATOM     30  C   UNL     1      34.127 -22.209 -18.286  0.00  0.00    +0.140 C 
ENDBRANCH  23  25
ENDBRANCH  21  23
ENDBRANCH  20  21
ENDBRANCH  19  20
ENDBRANCH   2  19
TORSDOF 5
ENDMDL
MODEL 2
REMARK VINA RESULT:     -10.9      4.856     10.172
REMARK  Name = 21302490
REMARK  5 active torsions:
REMARK  status: ('A' for Active; 'I' for Inactive)
REMARK    1  A    between atoms: N_2  and  C_19
REMARK    2  A    between atoms: C_19  and  C_20
REMARK    3  A    between atoms: C_20  and  C_21
REMARK    4  A    between atoms: C_21  and  C_23
REMARK    5  A    between atoms: C_23  and  C_25
REMARK                            x       y       z     vdW  Elec       q    Type
REMARK                         _______ _______ _______ _____ _____    ______ ____
ROOT
ATOM      1  N   UNL     1      34.229 -15.307 -23.487  0.00  0.00    -0.307 N 
ATOM      2  N   UNL     1      32.899 -12.612 -21.124  0.00  0.00    +0.387 N 
ATOM      3  N   UNL     1      34.415 -18.084 -24.144  0.00  0.00    -0.303 N 
ATOM      4  C   UNL     1      34.728 -14.049 -22.919  0.00  0.00    +0.073 C 
ATOM      5  C   UNL     1      34.742 -14.267 -21.371  0.00  0.00    +0.021 C 
ATOM      6  C   UNL     1      33.916 -12.832 -23.349  0.00  0.00    -0.003 C 
ATOM      7  C   UNL     1      33.419 -13.908 -20.676  0.00  0.00    -0.071 C 
ATOM      8  C   UNL     1      34.962 -15.752 -21.320  0.00  0.00    -0.008 C 
ATOM      9  C   UNL     1      34.634 -16.294 -22.566  0.00  0.00    +0.057 C 
ATOM     10  C   UNL     1      32.619 -12.655 -22.566  0.00  0.00    -0.076 C 
ATOM     11  C   UNL     1      34.354 -15.704 -24.875  0.00  0.00    +0.112 C 
ATOM     12  C   UNL     1      34.716 -17.654 -22.858  0.00  0.00    +0.061 C 
ATOM     13  C   UNL     1      33.778 -17.119 -25.054  0.00  0.00    +0.112 C 
ATOM     14  C   UNL     1      35.376 -16.566 -20.287  0.00  0.00    -0.003 C 
ATOM     15  C   UNL     1      35.147 -18.472 -21.805  0.00  0.00    +0.016 C 
ATOM     16  C   UNL     1      35.468 -17.936 -20.539  0.00  0.00    +0.001 C 
ATOM     17  C   UNL     1      34.356 -19.497 -24.471  0.00  0.00    +0.112 C 
ATOM     18  H   UNL     1      33.602 -11.895 -20.945  0.00  0.00    -0.080 HD
ENDROOT
BRANCH   2  19
ATOM     19  C   UNL     1      31.686 -12.268 -20.382  0.00  0.00    -0.077 C 
BRANCH  19  20
ATOM     20  C   UNL     1      31.890 -10.964 -19.608  0.00  0.00    -0.015 C 
BRANCH  20  21
ATOM     21  C   UNL     1      31.558  -9.729 -20.451  0.00  0.00    +0.067 C 
BRANCH  21  23
ATOM     22  O   UNL     1      32.667  -8.343 -18.817  0.00  0.00    -0.291 OA
ATOM     23  C   UNL     1      32.247  -8.463 -19.965  0.00  0.00    +0.173 C 
BRANCH  23  25
ATOM     24  F   UNL     1      32.961  -4.233 -23.596  0.00  0.00    -0.204 F 
ATOM     25  C   UNL     1      32.437  -7.339 -20.927  0.00  0.00    +0.035 C 
ATOM     26  C   UNL     1      33.613  -7.251 -21.673  0.00  0.00    +0.005 C 
ATOM     27  C   UNL     1      31.439  -6.379 -21.084  0.00  0.00    +0.005 C 
ATOM     28  C   UNL     1      33.790  -6.201 -22.574  0.00  0.00    +0.030 C 
ATOM     29  C   UNL     1      31.615  -5.329 -21.985  0.00  0.00    +0.030 C 
ATOM     30  C   UNL     1      32.791  -5.241 -22.730  0.00  0.00    +0.140 C 
ENDBRANCH  23  25
ENDBRANCH  21  23
ENDBRANCH  20  21
ENDBRANCH  19  20
ENDBRANCH   2  19
TORSDOF 5
ENDMDL
MODEL 3
REMARK VINA RESULT:     -10.3      1.462      1.909
REMARK  Name = 21302490
REMARK  5 active torsions:
REMARK  status: ('A' for Active; 'I' for Inactive)
REMARK    1  A    between atoms: N_2  and  C_19
REMARK    2  A    between atoms: C_19  and  C_20
REMARK    3  A    between atoms: C_20  and  C_21
REMARK    4  A    between atoms: C_21  and  C_23
REMARK    5  A    between atoms: C_23  and  C_25
REMARK                            x       y       z     vdW  Elec       q    Type
REMARK                         _______ _______ _______ _____ _____    ______ ____
ROOT
ATOM      1  N   UNL     1      33.091 -10.421 -22.695  0.00  0.00    -0.307 N 
ATOM      2  N   UNL     1      33.818 -14.137 -22.166  0.00  0.00    +0.387 N 
ATOM      3  N   UNL     1      32.987  -7.786 -21.590  0.00  0.00    -0.303 N 
ATOM      4  C   UNL     1      32.503 -11.693 -23.132  0.00  0.00    +0.073 C 
ATOM      5  C   UNL     1      32.053 -12.416 -21.820  0.00  0.00    +0.021 C 
ATOM      6  C   UNL     1      33.448 -12.530 -23.987  0.00  0.00    -0.003 C 
ATOM      7  C   UNL     1      33.145 -13.286 -21.179  0.00  0.00    -0.071 C 
ATOM      8  C   UNL     1      31.770 -11.224 -20.951  0.00  0.00    -0.008 C 
ATOM      9  C   UNL     1      32.409 -10.110 -21.502  0.00  0.00    +0.057 C 
ATOM     10  C   UNL     1      34.484 -13.302 -23.175  0.00  0.00    -0.076 C 
ATOM     11  C   UNL     1      33.339  -9.279 -23.551  0.00  0.00    +0.112 C 
ATOM     12  C   UNL     1      32.358  -8.838 -20.936  0.00  0.00    +0.061 C 
ATOM     13  C   UNL     1      33.887  -8.118 -22.705  0.00  0.00    +0.112 C 
ATOM     14  C   UNL     1      31.055 -11.115 -19.777  0.00  0.00    -0.003 C 
ATOM     15  C   UNL     1      31.622  -8.735 -19.748  0.00  0.00    +0.016 C 
ATOM     16  C   UNL     1      30.983  -9.857 -19.177  0.00  0.00    +0.001 C 
ATOM     17  C   UNL     1      33.079  -6.469 -20.984  0.00  0.00    +0.112 C 
ATOM     18  H   UNL     1      33.121 -14.722 -22.628  0.00  0.00    -0.080 HD
ENDROOT
BRANCH   2  19
ATOM     19  C   UNL     1      34.791 -15.009 -21.506  0.00  0.00    -0.077 C 
BRANCH  19  20
ATOM     20  C   UNL     1      35.425 -15.959 -22.523  0.00  0.00    -0.015 C 
BRANCH  20  21
ATOM     21  C   UNL     1      34.377 -16.735 -23.327  0.00  0.00    +0.067 C 
BRANCH  21  23
ATOM     22  O   UNL     1      34.334 -18.954 -24.273  0.00  0.00    -0.291 OA
ATOM     23  C   UNL     1      34.595 -18.241 -23.308  0.00  0.00    +0.173 C 
BRANCH  23  25
ATOM     24  F   UNL     1      36.747 -20.582 -18.674  0.00  0.00    -0.204 F 
ATOM     25  C   UNL     1      35.167 -18.863 -22.079  0.00  0.00    +0.035 C 
ATOM     26  C   UNL     1      36.489 -18.605 -21.717  0.00  0.00    +0.005 C 
ATOM     27  C   UNL     1      34.378 -19.701 -21.290  0.00  0.00    +0.005 C 
ATOM     28  C   UNL     1      37.023 -19.186 -20.567  0.00  0.00    +0.030 C 
ATOM     29  C   UNL     1      34.912 -20.282 -20.140  0.00  0.00    +0.030 C 
ATOM     30  C   UNL     1      36.234 -20.024 -19.778  0.00  0.00    +0.140 C 
ENDBRANCH  23  25
ENDBRANCH  21  23
ENDBRANCH  20  21
ENDBRANCH  19  20
ENDBRANCH   2  19
TORSDOF 5
ENDMDL
MODEL 4
REMARK VINA RESULT:     -10.1      3.771      7.151
REMARK  Name = 21302490
REMARK  5 active torsions:
REMARK  status: ('A' for Active; 'I' for Inactive)
REMARK    1  A    between atoms: N_2  and  C_19
REMARK    2  A    between atoms: C_19  and  C_20
REMARK    3  A    between atoms: C_20  and  C_21
REMARK    4  A    between atoms: C_21  and  C_23
REMARK    5  A    between atoms: C_23  and  C_25
REMARK                            x       y       z     vdW  Elec       q    Type
REMARK                         _______ _______ _______ _____ _____    ______ ____
ROOT
ATOM      1  N   UNL     1      31.997  -4.784 -22.805  0.00  0.00    -0.307 N 
ATOM      2  N   UNL     1      32.825  -8.443 -22.070  0.00  0.00    +0.387 N 
ATOM      3  N   UNL     1      31.410  -2.770 -24.748  0.00  0.00    -0.303 N 
ATOM      4  C   UNL     1      32.877  -5.512 -21.883  0.00  0.00    +0.073 C 
ATOM      5  C   UNL     1      33.872  -6.304 -22.794  0.00  0.00    +0.021 C 
ATOM      6  C   UNL     1      32.119  -6.400 -20.903  0.00  0.00    -0.003 C 
ATOM      7  C   UNL     1      33.367  -7.695 -23.209  0.00  0.00    -0.071 C 
ATOM      8  C   UNL     1      33.910  -5.394 -23.988  0.00  0.00    -0.008 C 
ATOM      9  C   UNL     1      32.794  -4.553 -23.943  0.00  0.00    +0.057 C 
ATOM     10  C   UNL     1      31.672  -7.730 -21.505  0.00  0.00    -0.076 C 
ATOM     11  C   UNL     1      31.146  -3.669 -22.441  0.00  0.00    +0.112 C 
ATOM     12  C   UNL     1      32.520  -3.590 -24.912  0.00  0.00    +0.061 C 
ATOM     13  C   UNL     1      30.444  -3.133 -23.700  0.00  0.00    +0.112 C 
ATOM     14  C   UNL     1      34.806  -5.319 -25.034  0.00  0.00    -0.003 C 
ATOM     15  C   UNL     1      33.440  -3.514 -25.965  0.00  0.00    +0.016 C 
ATOM     16  C   UNL     1      34.563  -4.367 -26.027  0.00  0.00    +0.001 C 
ATOM     17  C   UNL     1      31.001  -1.840 -25.785  0.00  0.00    +0.112 C 
ATOM     18  H   UNL     1      33.547  -8.525 -21.354  0.00  0.00    -0.080 HD
ENDROOT
BRANCH   2  19
ATOM     19  C   UNL     1      32.433  -9.790 -22.489  0.00  0.00    -0.077 C 
BRANCH  19  20
ATOM     20  C   UNL     1      33.260 -10.231 -23.698  0.00  0.00    -0.015 C 
BRANCH  20  21
ATOM     21  C   UNL     1      34.318 -11.275 -23.328  0.00  0.00    +0.067 C 
BRANCH  21  23
ATOM     22  O   UNL     1      33.261 -12.985 -24.664  0.00  0.00    -0.291 OA
ATOM     23  C   UNL     1      33.897 -12.702 -23.652  0.00  0.00    +0.173 C 
BRANCH  23  25
ATOM     24  F   UNL     1      35.383 -16.813 -20.120  0.00  0.00    -0.204 F 
ATOM     25  C   UNL     1      34.293 -13.792 -22.714  0.00  0.00    +0.035 C 
ATOM     26  C   UNL     1      34.161 -13.611 -21.338  0.00  0.00    +0.005 C 
ATOM     27  C   UNL     1      34.792 -14.995 -23.214  0.00  0.00    +0.005 C 
ATOM     28  C   UNL     1      34.529 -14.631 -20.461  0.00  0.00    +0.030 C 
ATOM     29  C   UNL     1      35.161 -16.015 -22.338  0.00  0.00    +0.030 C 
ATOM     30  C   UNL     1      35.029 -15.833 -20.962  0.00  0.00    +0.140 C 
ENDBRANCH  23  25
ENDBRANCH  21  23
ENDBRANCH  20  21
ENDBRANCH  19  20
ENDBRANCH   2  19
TORSDOF 5
ENDMDL
MODEL 5
REMARK VINA RESULT:      -9.9      2.549      5.320
REMARK  Name = 21302490
REMARK  5 active torsions:
REMARK  status: ('A' for Active; 'I' for Inactive)
REMARK    1  A    between atoms: N_2  and  C_19
REMARK    2  A    between atoms: C_19  and  C_20
REMARK    3  A    between atoms: C_20  and  C_21
REMARK    4  A    between atoms: C_21  and  C_23
REMARK    5  A    between atoms: C_23  and  C_25
REMARK                            x       y       z     vdW  Elec       q    Type
REMARK                         _______ _______ _______ _____ _____    ______ ____
ROOT
ATOM      1  N   UNL     1      34.825 -15.560 -21.545  0.00  0.00    -0.307 N 
ATOM      2  N   UNL     1      34.611 -19.374 -21.402  0.00  0.00    +0.387 N 
ATOM      3  N   UNL     1      33.647 -13.091 -22.379  0.00  0.00    -0.303 N 
ATOM      4  C   UNL     1      35.761 -16.684 -21.668  0.00  0.00    +0.073 C 
ATOM      5  C   UNL     1      35.268 -17.503 -22.906  0.00  0.00    +0.021 C 
ATOM      6  C   UNL     1      35.869 -17.518 -20.397  0.00  0.00    -0.003 C 
ATOM      7  C   UNL     1      34.221 -18.577 -22.568  0.00  0.00    -0.071 C 
ATOM      8  C   UNL     1      34.634 -16.403 -23.710  0.00  0.00    -0.008 C 
ATOM      9  C   UNL     1      34.391 -15.318 -22.863  0.00  0.00    +0.057 C 
ATOM     10  C   UNL     1      34.723 -18.510 -20.219  0.00  0.00    -0.076 C 
ATOM     11  C   UNL     1      35.059 -14.360 -20.768  0.00  0.00    +0.112 C 
ATOM     12  C   UNL     1      33.799 -14.130 -23.289  0.00  0.00    +0.061 C 
ATOM     13  C   UNL     1      33.880 -13.391 -20.958  0.00  0.00    +0.112 C 
ATOM     14  C   UNL     1      34.272 -16.354 -25.039  0.00  0.00    -0.003 C 
ATOM     15  C   UNL     1      33.443 -14.085 -24.644  0.00  0.00    +0.016 C 
ATOM     16  C   UNL     1      33.673 -15.181 -25.504  0.00  0.00    +0.001 C 
ATOM     17  C   UNL     1      32.921 -11.883 -22.729  0.00  0.00    +0.112 C 
ATOM     18  H   UNL     1      35.519 -19.805 -21.583  0.00  0.00    -0.080 HD
ENDROOT
BRANCH   2  19
ATOM     19  C   UNL     1      33.634 -20.437 -21.163  0.00  0.00    -0.077 C 
BRANCH  19  20
ATOM     20  C   UNL     1      33.421 -20.632 -19.660  0.00  0.00    -0.015 C 
BRANCH  20  21
ATOM     21  C   UNL     1      34.493 -21.528 -19.032  0.00  0.00    +0.067 C 
BRANCH  21  23
ATOM     22  O   UNL     1      33.912 -23.862 -19.224  0.00  0.00    -0.291 OA
ATOM     23  C   UNL     1      33.948 -22.854 -18.523  0.00  0.00    +0.173 C 
BRANCH  23  25
ATOM     24  F   UNL     1      32.124 -23.156 -13.216  0.00  0.00    -0.204 F 
ATOM     25  C   UNL     1      33.464 -22.933 -17.114  0.00  0.00    +0.035 C 
ATOM     26  C   UNL     1      32.100 -22.841 -16.840  0.00  0.00    +0.005 C 
ATOM     27  C   UNL     1      34.376 -23.101 -16.072  0.00  0.00    +0.005 C 
ATOM     28  C   UNL     1      31.647 -22.916 -15.523  0.00  0.00    +0.030 C 
ATOM     29  C   UNL     1      33.923 -23.176 -14.755  0.00  0.00    +0.030 C 
ATOM     30  C   UNL     1      32.559 -23.084 -14.480  0.00  0.00    +0.140 C 
ENDBRANCH  23  25
ENDBRANCH  21  23
ENDBRANCH  20  21
ENDBRANCH  19  20
ENDBRANCH   2  19
TORSDOF 5
ENDMDL
MODEL 6
REMARK VINA RESULT:      -9.9      7.600     13.121
REMARK  Name = 21302490
REMARK  5 active torsions:
REMARK  status: ('A' for Active; 'I' for Inactive)
REMARK    1  A    between atoms: N_2  and  C_19
REMARK    2  A    between atoms: C_19  and  C_20
REMARK    3  A    between atoms: C_20  and  C_21
REMARK    4  A    between atoms: C_21  and  C_23
REMARK    5  A    between atoms: C_23  and  C_25
REMARK                            x       y       z     vdW  Elec       q    Type
REMARK                         _______ _______ _______ _____ _____    ______ ____
ROOT
ATOM      1  N   UNL     1      35.051 -23.834 -12.611  0.00  0.00    -0.307 N 
ATOM      2  N   UNL     1      32.633 -23.525 -15.556  0.00  0.00    +0.387 N 
ATOM      3  N   UNL     1      37.751 -23.790 -11.671  0.00  0.00    -0.303 N 
ATOM      4  C   UNL     1      33.817 -24.498 -13.049  0.00  0.00    +0.073 C 
ATOM      5  C   UNL     1      34.158 -25.141 -14.434  0.00  0.00    +0.021 C 
ATOM      6  C   UNL     1      32.616 -23.559 -13.100  0.00  0.00    -0.003 C 
ATOM      7  C   UNL     1      33.930 -24.204 -15.631  0.00  0.00    -0.071 C 
ATOM      8  C   UNL     1      35.628 -25.390 -14.249  0.00  0.00    -0.008 C 
ATOM      9  C   UNL     1      36.084 -24.596 -13.193  0.00  0.00    +0.057 C 
ATOM     10  C   UNL     1      32.575 -22.687 -14.351  0.00  0.00    -0.076 C 
ATOM     11  C   UNL     1      35.328 -23.396 -11.258  0.00  0.00    +0.112 C 
ATOM     12  C   UNL     1      37.410 -24.578 -12.763  0.00  0.00    +0.061 C 
ATOM     13  C   UNL     1      36.753 -22.823 -11.190  0.00  0.00    +0.112 C 
ATOM     14  C   UNL     1      36.498 -26.201 -14.946  0.00  0.00    -0.003 C 
ATOM     15  C   UNL     1      38.285 -25.412 -13.471  0.00  0.00    +0.016 C 
ATOM     16  C   UNL     1      37.836 -26.208 -14.547  0.00  0.00    +0.001 C 
ATOM     17  C   UNL     1      39.135 -23.630 -11.261  0.00  0.00    +0.112 C 
ATOM     18  H   UNL     1      31.894 -24.226 -15.506  0.00  0.00    -0.080 HD
ENDROOT
BRANCH   2  19
ATOM     19  C   UNL     1      32.418 -22.708 -16.752  0.00  0.00    -0.077 C 
BRANCH  19  20
ATOM     20  C   UNL     1      33.554 -22.926 -17.753  0.00  0.00    -0.015 C 
BRANCH  20  21
ATOM     21  C   UNL     1      33.677 -21.773 -18.753  0.00  0.00    +0.067 C 
BRANCH  21  23
ATOM     22  O   UNL     1      36.058 -21.805 -18.365  0.00  0.00    -0.291 OA
ATOM     23  C   UNL     1      35.113 -21.328 -18.988  0.00  0.00    +0.173 C 
BRANCH  23  25
ATOM     24  F   UNL     1      36.110 -17.420 -22.902  0.00  0.00    -0.204 F 
ATOM     25  C   UNL     1      35.378 -20.292 -20.028  0.00  0.00    +0.035 C 
ATOM     26  C   UNL     1      34.385 -19.959 -20.949  0.00  0.00    +0.005 C 
ATOM     27  C   UNL     1      36.618 -19.654 -20.077  0.00  0.00    +0.005 C 
ATOM     28  C   UNL     1      34.632 -18.988 -21.920  0.00  0.00    +0.030 C 
ATOM     29  C   UNL     1      36.866 -18.685 -21.048  0.00  0.00    +0.030 C 
ATOM     30  C   UNL     1      35.873 -18.351 -21.969  0.00  0.00    +0.140 C 
ENDBRANCH  23  25
ENDBRANCH  21  23
ENDBRANCH  20  21
ENDBRANCH  19  20
ENDBRANCH   2  19
TORSDOF 5
ENDMDL
MODEL 7
REMARK VINA RESULT:      -9.7      2.695      3.231
REMARK  Name = 21302490
REMARK  5 active torsions:
REMARK  status: ('A' for Active; 'I' for Inactive)
REMARK    1  A    between atoms: N_2  and  C_19
REMARK    2  A    between atoms: C_19  and  C_20
REMARK    3  A    between atoms: C_20  and  C_21
REMARK    4  A    between atoms: C_21  and  C_23
REMARK    5  A    between atoms: C_23  and  C_25
REMARK                            x       y       z     vdW  Elec       q    Type
REMARK                         _______ _______ _______ _____ _____    ______ ____
ROOT
ATOM      1  N   UNL     1      33.232 -11.202 -22.790  0.00  0.00    -0.307 N 
ATOM      2  N   UNL     1      33.921 -14.589 -21.156  0.00  0.00    +0.387 N 
ATOM      3  N   UNL     1      33.192  -8.353 -22.550  0.00  0.00    -0.303 N 
ATOM      4  C   UNL     1      32.615 -12.534 -22.801  0.00  0.00    +0.073 C 
ATOM      5  C   UNL     1      32.190 -12.808 -21.321  0.00  0.00    +0.021 C 
ATOM      6  C   UNL     1      33.526 -13.613 -23.376  0.00  0.00    -0.003 C 
ATOM      7  C   UNL     1      33.287 -13.462 -20.466  0.00  0.00    -0.071 C 
ATOM      8  C   UNL     1      31.946 -11.401 -20.856  0.00  0.00    -0.008 C 
ATOM      9  C   UNL     1      32.586 -10.524 -21.737  0.00  0.00    +0.057 C 
ATOM     10  C   UNL     1      34.572 -14.120 -22.387  0.00  0.00    -0.076 C 
ATOM     11  C   UNL     1      33.473 -10.384 -23.962  0.00  0.00    +0.112 C 
ATOM     12  C   UNL     1      32.567  -9.139 -21.590  0.00  0.00    +0.061 C 
ATOM     13  C   UNL     1      34.058  -9.031 -23.527  0.00  0.00    +0.112 C 
ATOM     14  C   UNL     1      31.264 -10.921 -19.758  0.00  0.00    -0.003 C 
ATOM     15  C   UNL     1      31.863  -8.660 -20.477  0.00  0.00    +0.016 C 
ATOM     16  C   UNL     1      31.225  -9.537 -19.574  0.00  0.00    +0.001 C 
ATOM     17  C   UNL     1      33.319  -6.916 -22.382  0.00  0.00    +0.112 C 
ATOM     18  H   UNL     1      33.205 -15.273 -21.401  0.00  0.00    -0.080 HD
ENDROOT
BRANCH   2  19
ATOM     19  C   UNL     1      34.900 -15.235 -20.280  0.00  0.00    -0.077 C 
BRANCH  19  20
ATOM     20  C   UNL     1      34.696 -16.752 -20.287  0.00  0.00    -0.015 C 
BRANCH  20  21
ATOM     21  C   UNL     1      36.022 -17.517 -20.305  0.00  0.00    +0.067 C 
BRANCH  21  23
ATOM     22  O   UNL     1      37.543 -18.378 -21.969  0.00  0.00    -0.291 OA
ATOM     23  C   UNL     1      36.396 -18.046 -21.682  0.00  0.00    +0.173 C 
BRANCH  23  25
ATOM     24  F   UNL     1      32.354 -18.568 -25.552  0.00  0.00    -0.204 F 
ATOM     25  C   UNL     1      35.322 -18.183 -22.709  0.00  0.00    +0.035 C 
ATOM     26  C   UNL     1      35.091 -17.152 -23.618  0.00  0.00    +0.005 C 
ATOM     27  C   UNL     1      34.551 -19.345 -22.760  0.00  0.00    +0.005 C 
ATOM     28  C   UNL     1      34.088 -17.281 -24.579  0.00  0.00    +0.030 C 
ATOM     29  C   UNL     1      33.548 -19.475 -23.720  0.00  0.00    +0.030 C 
ATOM     30  C   UNL     1      33.317 -18.443 -24.630  0.00  0.00    +0.140 C 
ENDBRANCH  23  25
ENDBRANCH  21  23
ENDBRANCH  20  21
ENDBRANCH  19  20
ENDBRANCH   2  19
TORSDOF 5
ENDMDL
MODEL 8
REMARK VINA RESULT:      -9.6      4.337      7.285
REMARK  Name = 21302490
REMARK  5 active torsions:
REMARK  status: ('A' for Active; 'I' for Inactive)
REMARK    1  A    between atoms: N_2  and  C_19
REMARK    2  A    between atoms: C_19  and  C_20
REMARK    3  A    between atoms: C_20  and  C_21
REMARK    4  A    between atoms: C_21  and  C_23
REMARK    5  A    between atoms: C_23  and  C_25
REMARK                            x       y       z     vdW  Elec       q    Type
REMARK                         _______ _______ _______ _____ _____    ______ ____
ROOT
ATOM      1  N   UNL     1      31.988  -4.972 -22.573  0.00  0.00    -0.307 N 
ATOM      2  N   UNL     1      32.833  -8.635 -21.873  0.00  0.00    +0.387 N 
ATOM      3  N   UNL     1      31.437  -2.932 -24.500  0.00  0.00    -0.303 N 
ATOM      4  C   UNL     1      32.849  -5.706 -21.637  0.00  0.00    +0.073 C 
ATOM      5  C   UNL     1      33.878  -6.473 -22.532  0.00  0.00    +0.021 C 
ATOM      6  C   UNL     1      32.071  -6.618 -20.695  0.00  0.00    -0.003 C 
ATOM      7  C   UNL     1      33.399  -7.862 -22.983  0.00  0.00    -0.071 C 
ATOM      8  C   UNL     1      33.941  -5.544 -23.710  0.00  0.00    -0.008 C 
ATOM      9  C   UNL     1      32.816  -4.715 -23.684  0.00  0.00    +0.057 C 
ATOM     10  C   UNL     1      31.656  -7.942 -21.330  0.00  0.00    -0.076 C 
ATOM     11  C   UNL     1      31.115  -3.872 -22.217  0.00  0.00    +0.112 C 
ATOM     12  C   UNL     1      32.559  -3.739 -24.644  0.00  0.00    +0.061 C 
ATOM     13  C   UNL     1      30.445  -3.322 -23.486  0.00  0.00    +0.112 C 
ATOM     14  C   UNL     1      34.866  -5.443 -24.727  0.00  0.00    -0.003 C 
ATOM     15  C   UNL     1      33.509  -3.637 -25.670  0.00  0.00    +0.016 C 
ATOM     16  C   UNL     1      34.642  -4.478 -25.712  0.00  0.00    +0.001 C 
ATOM     17  C   UNL     1      31.049  -1.990 -25.534  0.00  0.00    +0.112 C 
ATOM     18  H   UNL     1      33.534  -8.721 -21.138  0.00  0.00    -0.080 HD
ENDROOT
BRANCH   2  19
ATOM     19  C   UNL     1      32.466  -9.978 -22.324  0.00  0.00    -0.077 C 
BRANCH  19  20
ATOM     20  C   UNL     1      31.901 -10.792 -21.158  0.00  0.00    -0.015 C 
BRANCH  20  21
ATOM     21  C   UNL     1      31.737 -12.274 -21.509  0.00  0.00    +0.067 C 
BRANCH  21  23
ATOM     22  O   UNL     1      33.551 -13.098 -20.148  0.00  0.00    -0.291 OA
ATOM     23  C   UNL     1      32.986 -13.100 -21.239  0.00  0.00    +0.173 C 
BRANCH  23  25
ATOM     24  F   UNL     1      35.012 -16.335 -25.363  0.00  0.00    -0.204 F 
ATOM     25  C   UNL     1      33.525 -13.958 -22.334  0.00  0.00    +0.035 C 
ATOM     26  C   UNL     1      34.529 -14.887 -22.061  0.00  0.00    +0.005 C 
ATOM     27  C   UNL     1      33.023 -13.832 -23.629  0.00  0.00    +0.005 C 
ATOM     28  C   UNL     1      35.032 -15.690 -23.085  0.00  0.00    +0.030 C 
ATOM     29  C   UNL     1      33.526 -14.635 -24.653  0.00  0.00    +0.030 C 
ATOM     30  C   UNL     1      34.529 -15.564 -24.381  0.00  0.00    +0.140 C 
ENDBRANCH  23  25
ENDBRANCH  21  23
ENDBRANCH  20  21
ENDBRANCH  19  20
ENDBRANCH   2  19
TORSDOF 5
ENDMDL
MODEL 9
REMARK VINA RESULT:      -9.5      4.727     10.959
REMARK  Name = 21302490
REMARK  5 active torsions:
REMARK  status: ('A' for Active; 'I' for Inactive)
REMARK    1  A    between atoms: N_2  and  C_19
REMARK    2  A    between atoms: C_19  and  C_20
REMARK    3  A    between atoms: C_20  and  C_21
REMARK    4  A    between atoms: C_21  and  C_23
REMARK    5  A    between atoms: C_23  and  C_25
REMARK                            x       y       z     vdW  Elec       q    Type
REMARK                         _______ _______ _______ _____ _____    ______ ____
ROOT
ATOM      1  N   UNL     1      34.281 -22.307 -17.841  0.00  0.00    -0.307 N 
ATOM      2  N   UNL     1      35.904 -19.679 -20.093  0.00  0.00    +0.387 N 
ATOM      3  N   UNL     1      33.633 -23.169 -15.192  0.00  0.00    -0.303 N 
ATOM      4  C   UNL     1      35.083 -22.308 -19.070  0.00  0.00    +0.073 C 
ATOM      5  C   UNL     1      36.448 -21.653 -18.677  0.00  0.00    +0.021 C 
ATOM      6  C   UNL     1      34.394 -21.611 -20.238  0.00  0.00    -0.003 C 
ATOM      7  C   UNL     1      36.470 -20.122 -18.815  0.00  0.00    -0.071 C 
ATOM      8  C   UNL     1      36.513 -22.039 -17.227  0.00  0.00    -0.008 C 
ATOM      9  C   UNL     1      35.229 -22.391 -16.802  0.00  0.00    +0.057 C 
ATOM     10  C   UNL     1      34.497 -20.090 -20.188  0.00  0.00    -0.076 C 
ATOM     11  C   UNL     1      33.089 -23.101 -17.621  0.00  0.00    +0.112 C 
ATOM     12  C   UNL     1      34.934 -22.792 -15.501  0.00  0.00    +0.061 C 
ATOM     13  C   UNL     1      32.587 -22.879 -16.185  0.00  0.00    +0.112 C 
ATOM     14  C   UNL     1      37.575 -22.055 -16.347  0.00  0.00    -0.003 C 
ATOM     15  C   UNL     1      36.021 -22.814 -14.616  0.00  0.00    +0.016 C 
ATOM     16  C   UNL     1      37.319 -22.448 -15.032  0.00  0.00    +0.001 C 
ATOM     17  C   UNL     1      33.240 -23.470 -13.828  0.00  0.00    +0.112 C 
ATOM     18  H   UNL     1      36.427 -20.113 -20.855  0.00  0.00    -0.080 HD
ENDROOT
BRANCH   2  19
ATOM     19  C   UNL     1      36.018 -18.226 -20.223  0.00  0.00    -0.077 C 
BRANCH  19  20
ATOM     20  C   UNL     1      35.007 -17.704 -21.246  0.00  0.00    -0.015 C 
BRANCH  20  21
ATOM     21  C   UNL     1      35.679 -17.229 -22.537  0.00  0.00    +0.067 C 
BRANCH  21  23
ATOM     22  O   UNL     1      34.176 -17.628 -24.383  0.00  0.00    -0.291 OA
ATOM     23  C   UNL     1      34.689 -16.816 -23.617  0.00  0.00    +0.173 C 
BRANCH  23  25
ATOM     24  F   UNL     1      33.271 -11.394 -24.034  0.00  0.00    -0.204 F 
ATOM     25  C   UNL     1      34.314 -15.377 -23.728  0.00  0.00    +0.035 C 
ATOM     26  C   UNL     1      33.581 -14.930 -24.827  0.00  0.00    +0.005 C 
ATOM     27  C   UNL     1      34.694 -14.478 -22.732  0.00  0.00    +0.005 C 
ATOM     28  C   UNL     1      33.229 -13.584 -24.931  0.00  0.00    +0.030 C 
ATOM     29  C   UNL     1      34.342 -13.132 -22.835  0.00  0.00    +0.030 C 
ATOM     30  C   UNL     1      33.609 -12.686 -23.934  0.00  0.00    +0.140 C 
ENDBRANCH  23  25
ENDBRANCH  21  23
ENDBRANCH  20  21
ENDBRANCH  19  20
ENDBRANCH   2  19
TORSDOF 5
ENDMDL
