MODEL 1
REMARK VINA RESULT:     -11.6      0.000      0.000
REMARK  Name = 11697697
REMARK  7 active torsions:
REMARK  status: ('A' for Active; 'I' for Inactive)
REMARK    1  A    between atoms: N_2  and  C_14
REMARK    2  A    between atoms: C_8  and  C_32
REMARK    3  A    between atoms: C_13  and  O_19
REMARK    4  A    between atoms: O_19  and  C_20
REMARK    5  A    between atoms: C_20  and  C_21
REMARK    6  A    between atoms: C_21  and  C_22
REMARK    7  A    between atoms: C_22  and  N_23
REMARK                            x       y       z     vdW  Elec       q    Type
REMARK                         _______ _______ _______ _____ _____    ______ ____
ROOT
ATOM      1  O   UNL     1      32.131 -12.020 -21.348  0.00  0.00    -0.273 OA
ATOM      2  N   UNL     1      33.534 -11.533 -23.176  0.00  0.00    -0.215 N 
ATOM      3  N   UNL     1      34.069  -9.260 -23.639  0.00  0.00    -0.394 NA
ATOM      4  C   UNL     1      32.582  -9.777 -21.769  0.00  0.00    +0.156 C 
ATOM      5  C   UNL     1      32.703 -11.217 -22.080  0.00  0.00    +0.245 C 
ATOM      6  C   UNL     1      34.150 -10.524 -23.922  0.00  0.00    +0.170 C 
ATOM      7  C   UNL     1      33.289  -8.862 -22.547  0.00  0.00    +0.123 C 
ATOM      8  C   UNL     1      31.790  -9.343 -20.698  0.00  0.00    +0.064 C 
ATOM      9  C   UNL     1      33.198  -7.498 -22.242  0.00  0.00    +0.028 C 
ATOM     10  C   UNL     1      31.708  -7.983 -20.405  0.00  0.00    +0.001 C 
ATOM     11  C   UNL     1      34.924 -10.870 -25.177  0.00  0.00    +0.084 C 
ATOM     12  C   UNL     1      32.412  -7.060 -21.175  0.00  0.00    +0.002 C 
ENDROOT
BRANCH   2  14
ATOM     13  C   UNL     1      34.163 -15.619 -23.994  0.00  0.00    +0.139 C 
ATOM     14  C   UNL     1      33.747 -12.926 -23.454  0.00  0.00    +0.060 C 
ATOM     15  C   UNL     1      33.319 -14.866 -24.810  0.00  0.00    +0.038 C 
ATOM     16  C   UNL     1      34.798 -15.019 -22.905  0.00  0.00    +0.038 C 
ATOM     17  C   UNL     1      33.111 -13.514 -24.540  0.00  0.00    +0.018 C 
ATOM     18  C   UNL     1      34.589 -13.668 -22.635  0.00  0.00    +0.018 C 
BRANCH  13  19
ATOM     19  O   UNL     1      34.366 -16.939 -24.258  0.00  0.00    -0.476 OA
BRANCH  19  20
ATOM     20  C   UNL     1      35.281 -17.636 -23.413  0.00  0.00    +0.203 C 
BRANCH  20  21
ATOM     21  C   UNL     1      34.542 -18.775 -22.722  0.00  0.00    +0.025 C 
BRANCH  21  22
ATOM     22  C   UNL     1      34.862 -18.826 -21.232  0.00  0.00    -0.074 C 
BRANCH  22  23
ATOM     23  N   UNL     1      34.562 -20.146 -20.696  0.00  0.00    +0.387 N 
ATOM     24  C   UNL     1      35.553 -20.590 -19.718  0.00  0.00    -0.077 C 
ATOM     25  C   UNL     1      33.284 -20.181 -19.984  0.00  0.00    -0.077 C 
ATOM     26  C   UNL     1      34.856 -21.753 -19.028  0.00  0.00    -0.025 C 
ATOM     27  C   UNL     1      33.364 -21.486 -19.206  0.00  0.00    -0.025 C 
ATOM     28  H   UNL     1      34.549 -20.750 -21.517  0.00  0.00    -0.080 HD
ENDBRANCH  22  23
ENDBRANCH  21  22
ENDBRANCH  20  21
ENDBRANCH  19  20
ENDBRANCH  13  19
ENDBRANCH   2  14
BRANCH   8  32
ATOM     29  F   UNL     1      30.062 -10.983 -20.490  0.00  0.00    -0.166 F 
ATOM     30  F   UNL     1      31.776 -11.188 -19.177  0.00  0.00    -0.166 F 
ATOM     31  F   UNL     1      30.332  -9.598 -18.837  0.00  0.00    -0.166 F 
ATOM     32  C   UNL     1      31.006 -10.262 -19.819  0.00  0.00    +0.416 C 
ENDBRANCH   8  32
TORSDOF 7
ENDMDL
MODEL 2
REMARK VINA RESULT:     -11.3      3.803      6.984
REMARK  Name = 11697697
REMARK  7 active torsions:
REMARK  status: ('A' for Active; 'I' for Inactive)
REMARK    1  A    between atoms: N_2  and  C_14
REMARK    2  A    between atoms: C_8  and  C_32
REMARK    3  A    between atoms: C_13  and  O_19
REMARK    4  A    between atoms: O_19  and  C_20
REMARK    5  A    between atoms: C_20  and  C_21
REMARK    6  A    between atoms: C_21  and  C_22
REMARK    7  A    between atoms: C_22  and  N_23
REMARK                            x       y       z     vdW  Elec       q    Type
REMARK                         _______ _______ _______ _____ _____    ______ ____
ROOT
ATOM      1  O   UNL     1      34.851 -16.278 -20.335  0.00  0.00    -0.273 OA
ATOM      2  N   UNL     1      34.969 -17.939 -22.001  0.00  0.00    -0.215 N 
ATOM      3  N   UNL     1      34.477 -17.344 -24.252  0.00  0.00    -0.394 NA
ATOM      4  C   UNL     1      34.319 -15.639 -22.508  0.00  0.00    +0.156 C 
ATOM      5  C   UNL     1      34.717 -16.644 -21.500  0.00  0.00    +0.245 C 
ATOM      6  C   UNL     1      34.800 -18.227 -23.358  0.00  0.00    +0.170 C 
ATOM      7  C   UNL     1      34.239 -16.027 -23.845  0.00  0.00    +0.123 C 
ATOM      8  C   UNL     1      34.052 -14.317 -22.130  0.00  0.00    +0.064 C 
ATOM      9  C   UNL     1      33.887 -15.074 -24.808  0.00  0.00    +0.028 C 
ATOM     10  C   UNL     1      33.702 -13.378 -23.099  0.00  0.00    +0.001 C 
ATOM     11  C   UNL     1      34.938 -19.651 -23.857  0.00  0.00    +0.084 C 
ATOM     12  C   UNL     1      33.620 -13.755 -24.438  0.00  0.00    +0.002 C 
ENDROOT
BRANCH   2  14
ATOM     13  C   UNL     1      36.363 -20.821 -19.260  0.00  0.00    +0.139 C 
ATOM     14  C   UNL     1      35.444 -18.920 -21.065  0.00  0.00    +0.060 C 
ATOM     15  C   UNL     1      35.013 -20.785 -19.608  0.00  0.00    +0.038 C 
ATOM     16  C   UNL     1      37.252 -19.901 -19.818  0.00  0.00    +0.038 C 
ATOM     17  C   UNL     1      34.551 -19.831 -20.514  0.00  0.00    +0.018 C 
ATOM     18  C   UNL     1      36.790 -18.948 -20.724  0.00  0.00    +0.018 C 
BRANCH  13  19
ATOM     19  O   UNL     1      36.813 -21.751 -18.374  0.00  0.00    -0.476 OA
BRANCH  19  20
ATOM     20  C   UNL     1      36.125 -21.848 -17.128  0.00  0.00    +0.203 C 
BRANCH  20  21
ATOM     21  C   UNL     1      37.151 -21.968 -16.008  0.00  0.00    +0.025 C 
BRANCH  21  22
ATOM     22  C   UNL     1      36.621 -22.811 -14.853  0.00  0.00    -0.074 C 
BRANCH  22  23
ATOM     23  N   UNL     1      37.074 -24.189 -14.983  0.00  0.00    +0.387 N 
ATOM     24  C   UNL     1      38.260 -24.465 -14.174  0.00  0.00    -0.077 C 
ATOM     25  C   UNL     1      36.070 -25.151 -14.526  0.00  0.00    -0.077 C 
ATOM     26  C   UNL     1      38.311 -25.985 -14.150  0.00  0.00    -0.025 C 
ATOM     27  C   UNL     1      36.872 -26.437 -14.385  0.00  0.00    -0.025 C 
ATOM     28  H   UNL     1      37.266 -24.293 -15.979  0.00  0.00    -0.080 HD
ENDBRANCH  22  23
ENDBRANCH  21  22
ENDBRANCH  20  21
ENDBRANCH  19  20
ENDBRANCH  13  19
ENDBRANCH   2  14
BRANCH   8  32
ATOM     29  F   UNL     1      33.388 -14.579 -19.847  0.00  0.00    -0.166 F 
ATOM     30  F   UNL     1      35.384 -13.811 -20.210  0.00  0.00    -0.166 F 
ATOM     31  F   UNL     1      33.651 -12.552 -20.588  0.00  0.00    -0.166 F 
ATOM     32  C   UNL     1      34.118 -13.826 -20.721  0.00  0.00    +0.416 C 
ENDBRANCH   8  32
TORSDOF 7
ENDMDL
MODEL 3
REMARK VINA RESULT:     -10.8      3.766      6.840
REMARK  Name = 11697697
REMARK  7 active torsions:
REMARK  status: ('A' for Active; 'I' for Inactive)
REMARK    1  A    between atoms: N_2  and  C_14
REMARK    2  A    between atoms: C_8  and  C_32
REMARK    3  A    between atoms: C_13  and  O_19
REMARK    4  A    between atoms: O_19  and  C_20
REMARK    5  A    between atoms: C_20  and  C_21
REMARK    6  A    between atoms: C_21  and  C_22
REMARK    7  A    between atoms: C_22  and  N_23
REMARK                            x       y       z     vdW  Elec       q    Type
REMARK                         _______ _______ _______ _____ _____    ______ ____
ROOT
ATOM      1  O   UNL     1      34.855 -16.284 -20.305  0.00  0.00    -0.273 OA
ATOM      2  N   UNL     1      34.980 -17.936 -21.979  0.00  0.00    -0.215 N 
ATOM      3  N   UNL     1      34.507 -17.327 -24.231  0.00  0.00    -0.394 NA
ATOM      4  C   UNL     1      34.342 -15.631 -22.479  0.00  0.00    +0.156 C 
ATOM      5  C   UNL     1      34.729 -16.643 -21.473  0.00  0.00    +0.245 C 
ATOM      6  C   UNL     1      34.821 -18.216 -23.339  0.00  0.00    +0.170 C 
ATOM      7  C   UNL     1      34.271 -16.011 -23.818  0.00  0.00    +0.123 C 
ATOM      8  C   UNL     1      34.076 -14.311 -22.096  0.00  0.00    +0.064 C 
ATOM      9  C   UNL     1      33.929 -15.052 -24.779  0.00  0.00    +0.028 C 
ATOM     10  C   UNL     1      33.736 -13.365 -23.062  0.00  0.00    +0.001 C 
ATOM     11  C   UNL     1      34.958 -19.637 -23.845  0.00  0.00    +0.084 C 
ATOM     12  C   UNL     1      33.664 -13.734 -24.403  0.00  0.00    +0.002 C 
ENDROOT
BRANCH   2  14
ATOM     13  C   UNL     1      36.343 -20.832 -19.238  0.00  0.00    +0.139 C 
ATOM     14  C   UNL     1      35.445 -18.924 -21.046  0.00  0.00    +0.060 C 
ATOM     15  C   UNL     1      37.239 -19.916 -19.788  0.00  0.00    +0.038 C 
ATOM     16  C   UNL     1      34.994 -20.791 -19.596  0.00  0.00    +0.038 C 
ATOM     17  C   UNL     1      36.789 -18.958 -20.695  0.00  0.00    +0.018 C 
ATOM     18  C   UNL     1      34.545 -19.833 -20.504  0.00  0.00    +0.018 C 
BRANCH  13  19
ATOM     19  O   UNL     1      36.782 -21.768 -18.352  0.00  0.00    -0.476 OA
BRANCH  19  20
ATOM     20  C   UNL     1      36.594 -21.490 -16.966  0.00  0.00    +0.203 C 
BRANCH  20  21
ATOM     21  C   UNL     1      35.709 -22.573 -16.363  0.00  0.00    +0.025 C 
BRANCH  21  22
ATOM     22  C   UNL     1      35.764 -22.556 -14.839  0.00  0.00    -0.074 C 
BRANCH  22  23
ATOM     23  N   UNL     1      34.440 -22.793 -14.282  0.00  0.00    +0.387 N 
ATOM     24  C   UNL     1      33.474 -23.211 -15.297  0.00  0.00    -0.077 C 
ATOM     25  C   UNL     1      34.437 -23.867 -13.289  0.00  0.00    -0.077 C 
ATOM     26  C   UNL     1      32.326 -23.765 -14.468  0.00  0.00    -0.025 C 
ATOM     27  C   UNL     1      32.957 -24.193 -13.146  0.00  0.00    -0.025 C 
ATOM     28  H   UNL     1      34.184 -21.898 -13.866  0.00  0.00    -0.080 HD
ENDBRANCH  22  23
ENDBRANCH  21  22
ENDBRANCH  20  21
ENDBRANCH  19  20
ENDBRANCH  13  19
ENDBRANCH   2  14
BRANCH   8  32
ATOM     29  F   UNL     1      33.635 -12.568 -20.518  0.00  0.00    -0.166 F 
ATOM     30  F   UNL     1      33.429 -14.609 -19.812  0.00  0.00    -0.166 F 
ATOM     31  F   UNL     1      35.406 -13.787 -20.195  0.00  0.00    -0.166 F 
ATOM     32  C   UNL     1      34.133 -13.828 -20.683  0.00  0.00    +0.416 C 
ENDBRANCH   8  32
TORSDOF 7
ENDMDL
MODEL 4
REMARK VINA RESULT:     -10.4      2.545      3.528
REMARK  Name = 11697697
REMARK  7 active torsions:
REMARK  status: ('A' for Active; 'I' for Inactive)
REMARK    1  A    between atoms: N_2  and  C_14
REMARK    2  A    between atoms: C_8  and  C_32
REMARK    3  A    between atoms: C_13  and  O_19
REMARK    4  A    between atoms: O_19  and  C_20
REMARK    5  A    between atoms: C_20  and  C_21
REMARK    6  A    between atoms: C_21  and  C_22
REMARK    7  A    between atoms: C_22  and  N_23
REMARK                            x       y       z     vdW  Elec       q    Type
REMARK                         _______ _______ _______ _____ _____    ______ ____
ROOT
ATOM      1  O   UNL     1      34.561 -11.971 -23.466  0.00  0.00    -0.273 OA
ATOM      2  N   UNL     1      33.321 -13.050 -21.779  0.00  0.00    -0.215 N 
ATOM      3  N   UNL     1      31.615 -11.833 -20.652  0.00  0.00    -0.394 NA
ATOM      4  C   UNL     1      32.935 -10.713 -22.377  0.00  0.00    +0.156 C 
ATOM      5  C   UNL     1      33.703 -11.958 -22.587  0.00  0.00    +0.245 C 
ATOM      6  C   UNL     1      32.310 -12.915 -20.824  0.00  0.00    +0.170 C 
ATOM      7  C   UNL     1      31.907 -10.711 -21.434  0.00  0.00    +0.123 C 
ATOM      8  C   UNL     1      33.218  -9.564 -23.127  0.00  0.00    +0.064 C 
ATOM      9  C   UNL     1      31.160  -9.542 -21.248  0.00  0.00    +0.028 C 
ATOM     10  C   UNL     1      32.467  -8.407 -22.932  0.00  0.00    +0.001 C 
ATOM     11  C   UNL     1      32.007 -14.052 -19.870  0.00  0.00    +0.084 C 
ATOM     12  C   UNL     1      31.437  -8.395 -21.994  0.00  0.00    +0.002 C 
ENDROOT
BRANCH   2  14
ATOM     13  C   UNL     1      35.263 -16.725 -22.475  0.00  0.00    +0.139 C 
ATOM     14  C   UNL     1      33.984 -14.302 -22.017  0.00  0.00    +0.060 C 
ATOM     15  C   UNL     1      35.334 -16.126 -21.218  0.00  0.00    +0.038 C 
ATOM     16  C   UNL     1      34.550 -16.107 -23.504  0.00  0.00    +0.038 C 
ATOM     17  C   UNL     1      34.692 -14.910 -20.987  0.00  0.00    +0.018 C 
ATOM     18  C   UNL     1      33.909 -14.890 -23.273  0.00  0.00    +0.018 C 
BRANCH  13  19
ATOM     19  O   UNL     1      35.891 -17.912 -22.701  0.00  0.00    -0.476 OA
BRANCH  19  20
ATOM     20  C   UNL     1      35.063 -19.055 -22.907  0.00  0.00    +0.203 C 
BRANCH  20  21
ATOM     21  C   UNL     1      34.403 -19.430 -21.587  0.00  0.00    +0.025 C 
BRANCH  21  22
ATOM     22  C   UNL     1      35.437 -19.810 -20.533  0.00  0.00    -0.074 C 
BRANCH  22  23
ATOM     23  N   UNL     1      34.792 -20.469 -19.406  0.00  0.00    +0.387 N 
ATOM     24  C   UNL     1      33.383 -20.762 -19.662  0.00  0.00    -0.077 C 
ATOM     25  C   UNL     1      35.399 -21.764 -19.097  0.00  0.00    -0.077 C 
ATOM     26  C   UNL     1      33.037 -21.761 -18.569  0.00  0.00    -0.025 C 
ATOM     27  C   UNL     1      34.363 -22.418 -18.194  0.00  0.00    -0.025 C 
ATOM     28  H   UNL     1      34.905 -19.810 -18.636  0.00  0.00    -0.080 HD
ENDBRANCH  22  23
ENDBRANCH  21  22
ENDBRANCH  20  21
ENDBRANCH  19  20
ENDBRANCH  13  19
ENDBRANCH   2  14
BRANCH   8  32
ATOM     29  F   UNL     1      34.139 -10.375 -25.180  0.00  0.00    -0.166 F 
ATOM     30  F   UNL     1      34.401  -8.266 -24.750  0.00  0.00    -0.166 F 
ATOM     31  F   UNL     1      35.534  -9.750 -23.635  0.00  0.00    -0.166 F 
ATOM     32  C   UNL     1      34.301  -9.490 -24.155  0.00  0.00    +0.416 C 
ENDBRANCH   8  32
TORSDOF 7
ENDMDL
MODEL 5
REMARK VINA RESULT:     -10.1      2.298      3.250
REMARK  Name = 11697697
REMARK  7 active torsions:
REMARK  status: ('A' for Active; 'I' for Inactive)
REMARK    1  A    between atoms: N_2  and  C_14
REMARK    2  A    between atoms: C_8  and  C_32
REMARK    3  A    between atoms: C_13  and  O_19
REMARK    4  A    between atoms: O_19  and  C_20
REMARK    5  A    between atoms: C_20  and  C_21
REMARK    6  A    between atoms: C_21  and  C_22
REMARK    7  A    between atoms: C_22  and  N_23
REMARK                            x       y       z     vdW  Elec       q    Type
REMARK                         _______ _______ _______ _____ _____    ______ ____
ROOT
ATOM      1  O   UNL     1      33.668 -10.676 -23.240  0.00  0.00    -0.273 OA
ATOM      2  N   UNL     1      32.928 -12.283 -21.686  0.00  0.00    -0.215 N 
ATOM      3  N   UNL     1      31.780 -11.550 -19.734  0.00  0.00    -0.394 NA
ATOM      4  C   UNL     1      32.589  -9.889 -21.335  0.00  0.00    +0.156 C 
ATOM      5  C   UNL     1      33.135 -10.976 -22.175  0.00  0.00    +0.245 C 
ATOM      6  C   UNL     1      32.284 -12.497 -20.464  0.00  0.00    +0.170 C 
ATOM      7  C   UNL     1      31.914 -10.224 -20.162  0.00  0.00    +0.123 C 
ATOM      8  C   UNL     1      32.726  -8.550 -21.723  0.00  0.00    +0.064 C 
ATOM      9  C   UNL     1      31.373  -9.201 -19.375  0.00  0.00    +0.028 C 
ATOM     10  C   UNL     1      32.183  -7.541 -20.930  0.00  0.00    +0.001 C 
ATOM     11  C   UNL     1      32.193 -13.894 -19.886  0.00  0.00    +0.084 C 
ATOM     12  C   UNL     1      31.506  -7.865 -19.756  0.00  0.00    +0.002 C 
ENDROOT
BRANCH   2  14
ATOM     13  C   UNL     1      34.208 -15.472 -24.126  0.00  0.00    +0.139 C 
ATOM     14  C   UNL     1      33.365 -13.369 -22.519  0.00  0.00    +0.060 C 
ATOM     15  C   UNL     1      34.857 -15.214 -22.919  0.00  0.00    +0.038 C 
ATOM     16  C   UNL     1      33.136 -14.673 -24.527  0.00  0.00    +0.038 C 
ATOM     17  C   UNL     1      34.433 -14.158 -22.112  0.00  0.00    +0.018 C 
ATOM     18  C   UNL     1      32.713 -13.619 -23.720  0.00  0.00    +0.018 C 
BRANCH  13  19
ATOM     19  O   UNL     1      34.622 -16.501 -24.915  0.00  0.00    -0.476 OA
BRANCH  19  20
ATOM     20  C   UNL     1      33.828 -17.687 -24.905  0.00  0.00    +0.203 C 
BRANCH  20  21
ATOM     21  C   UNL     1      34.602 -18.792 -24.199  0.00  0.00    +0.025 C 
BRANCH  21  22
ATOM     22  C   UNL     1      34.156 -18.949 -22.749  0.00  0.00    -0.074 C 
BRANCH  22  23
ATOM     23  N   UNL     1      35.244 -19.478 -21.940  0.00  0.00    +0.387 N 
ATOM     24  C   UNL     1      36.237 -18.460 -21.605  0.00  0.00    -0.077 C 
ATOM     25  C   UNL     1      34.780 -19.995 -20.652  0.00  0.00    -0.077 C 
ATOM     26  C   UNL     1      37.025 -19.109 -20.477  0.00  0.00    -0.025 C 
ATOM     27  C   UNL     1      36.068 -20.120 -19.852  0.00  0.00    -0.025 C 
ATOM     28  H   UNL     1      35.644 -20.218 -22.517  0.00  0.00    -0.080 HD
ENDBRANCH  22  23
ENDBRANCH  21  22
ENDBRANCH  20  21
ENDBRANCH  19  20
ENDBRANCH  13  19
ENDBRANCH   2  14
BRANCH   8  32
ATOM     29  F   UNL     1      34.702  -8.603 -23.069  0.00  0.00    -0.166 F 
ATOM     30  F   UNL     1      32.804  -8.500 -24.113  0.00  0.00    -0.166 F 
ATOM     31  F   UNL     1      33.554  -6.758 -23.048  0.00  0.00    -0.166 F 
ATOM     32  C   UNL     1      33.433  -8.113 -22.965  0.00  0.00    +0.416 C 
ENDBRANCH   8  32
TORSDOF 7
ENDMDL
MODEL 6
REMARK VINA RESULT:     -10.0      5.772     12.134
REMARK  Name = 11697697
REMARK  7 active torsions:
REMARK  status: ('A' for Active; 'I' for Inactive)
REMARK    1  A    between atoms: N_2  and  C_14
REMARK    2  A    between atoms: C_8  and  C_32
REMARK    3  A    between atoms: C_13  and  O_19
REMARK    4  A    between atoms: O_19  and  C_20
REMARK    5  A    between atoms: C_20  and  C_21
REMARK    6  A    between atoms: C_21  and  C_22
REMARK    7  A    between atoms: C_22  and  N_23
REMARK                            x       y       z     vdW  Elec       q    Type
REMARK                         _______ _______ _______ _____ _____    ______ ____
ROOT
ATOM      1  O   UNL     1      31.074 -22.471 -17.128  0.00  0.00    -0.273 OA
ATOM      2  N   UNL     1      33.367 -22.644 -16.622  0.00  0.00    -0.215 N 
ATOM      3  N   UNL     1      34.025 -23.818 -14.659  0.00  0.00    -0.394 NA
ATOM      4  C   UNL     1      31.646 -23.597 -15.174  0.00  0.00    +0.156 C 
ATOM      5  C   UNL     1      31.988 -22.832 -16.392  0.00  0.00    +0.245 C 
ATOM      6  C   UNL     1      34.317 -23.124 -15.715  0.00  0.00    +0.170 C 
ATOM      7  C   UNL     1      32.680 -24.078 -14.372  0.00  0.00    +0.123 C 
ATOM      8  C   UNL     1      30.308 -23.855 -14.846  0.00  0.00    +0.064 C 
ATOM      9  C   UNL     1      32.363 -24.825 -13.231  0.00  0.00    +0.028 C 
ATOM     10  C   UNL     1      30.006 -24.599 -13.707  0.00  0.00    +0.001 C 
ATOM     11  C   UNL     1      35.783 -22.793 -15.902  0.00  0.00    +0.084 C 
ATOM     12  C   UNL     1      31.032 -25.085 -12.900  0.00  0.00    +0.002 C 
ENDROOT
BRANCH   2  14
ATOM     13  C   UNL     1      34.468 -20.700 -20.196  0.00  0.00    +0.139 C 
ATOM     14  C   UNL     1      33.742 -21.982 -17.841  0.00  0.00    +0.060 C 
ATOM     15  C   UNL     1      33.140 -20.674 -19.768  0.00  0.00    +0.038 C 
ATOM     16  C   UNL     1      35.431 -21.371 -19.441  0.00  0.00    +0.038 C 
ATOM     17  C   UNL     1      32.776 -21.318 -18.586  0.00  0.00    +0.018 C 
ATOM     18  C   UNL     1      35.066 -22.014 -18.259  0.00  0.00    +0.018 C 
BRANCH  13  19
ATOM     19  O   UNL     1      34.823 -20.073 -21.350  0.00  0.00    -0.476 OA
BRANCH  19  20
ATOM     20  C   UNL     1      35.634 -18.905 -21.232  0.00  0.00    +0.203 C 
BRANCH  20  21
ATOM     21  C   UNL     1      35.456 -18.054 -22.483  0.00  0.00    +0.025 C 
BRANCH  21  22
ATOM     22  C   UNL     1      35.678 -16.574 -22.189  0.00  0.00    -0.074 C 
BRANCH  22  23
ATOM     23  N   UNL     1      35.235 -15.763 -23.313  0.00  0.00    +0.387 N 
ATOM     24  C   UNL     1      34.615 -16.563 -24.368  0.00  0.00    -0.077 C 
ATOM     25  C   UNL     1      34.216 -14.786 -22.929  0.00  0.00    -0.077 C 
ATOM     26  C   UNL     1      33.901 -15.519 -25.214  0.00  0.00    -0.025 C 
ATOM     27  C   UNL     1      33.641 -14.349 -24.268  0.00  0.00    -0.025 C 
ATOM     28  H   UNL     1      36.086 -15.306 -23.639  0.00  0.00    -0.080 HD
ENDBRANCH  22  23
ENDBRANCH  21  22
ENDBRANCH  20  21
ENDBRANCH  19  20
ENDBRANCH  13  19
ENDBRANCH   2  14
BRANCH   8  32
ATOM     29  F   UNL     1      29.187 -22.039 -15.925  0.00  0.00    -0.166 F 
ATOM     30  F   UNL     1      29.046 -23.984 -16.874  0.00  0.00    -0.166 F 
ATOM     31  F   UNL     1      27.952 -23.591 -15.035  0.00  0.00    -0.166 F 
ATOM     32  C   UNL     1      29.147 -23.376 -15.656  0.00  0.00    +0.416 C 
ENDBRANCH   8  32
TORSDOF 7
ENDMDL
MODEL 7
REMARK VINA RESULT:      -9.6      7.331     13.735
REMARK  Name = 11697697
REMARK  7 active torsions:
REMARK  status: ('A' for Active; 'I' for Inactive)
REMARK    1  A    between atoms: N_2  and  C_14
REMARK    2  A    between atoms: C_8  and  C_32
REMARK    3  A    between atoms: C_13  and  O_19
REMARK    4  A    between atoms: O_19  and  C_20
REMARK    5  A    between atoms: C_20  and  C_21
REMARK    6  A    between atoms: C_21  and  C_22
REMARK    7  A    between atoms: C_22  and  N_23
REMARK                            x       y       z     vdW  Elec       q    Type
REMARK                         _______ _______ _______ _____ _____    ______ ____
ROOT
ATOM      1  O   UNL     1      37.231 -24.011 -15.482  0.00  0.00    -0.273 OA
ATOM      2  N   UNL     1      35.007 -23.298 -15.177  0.00  0.00    -0.215 N 
ATOM      3  N   UNL     1      33.982 -23.610 -13.052  0.00  0.00    -0.394 NA
ATOM      4  C   UNL     1      36.276 -24.382 -13.393  0.00  0.00    +0.156 C 
ATOM      5  C   UNL     1      36.222 -23.902 -14.790  0.00  0.00    +0.245 C 
ATOM      6  C   UNL     1      33.932 -23.215 -14.287  0.00  0.00    +0.170 C 
ATOM      7  C   UNL     1      35.161 -24.194 -12.577  0.00  0.00    +0.123 C 
ATOM      8  C   UNL     1      37.433 -24.992 -12.893  0.00  0.00    +0.064 C 
ATOM      9  C   UNL     1      35.215 -24.623 -11.245  0.00  0.00    +0.028 C 
ATOM     10  C   UNL     1      37.474 -25.415 -11.565  0.00  0.00    +0.001 C 
ATOM     11  C   UNL     1      32.592 -22.691 -14.759  0.00  0.00    +0.084 C 
ATOM     12  C   UNL     1      36.366 -25.230 -10.741  0.00  0.00    +0.002 C 
ENDROOT
BRANCH   2  14
ATOM     13  C   UNL     1      34.829 -21.657 -19.055  0.00  0.00    +0.139 C 
ATOM     14  C   UNL     1      34.947 -22.740 -16.500  0.00  0.00    +0.060 C 
ATOM     15  C   UNL     1      33.768 -22.423 -18.573  0.00  0.00    +0.038 C 
ATOM     16  C   UNL     1      35.950 -21.434 -18.254  0.00  0.00    +0.038 C 
ATOM     17  C   UNL     1      33.827 -22.967 -17.290  0.00  0.00    +0.018 C 
ATOM     18  C   UNL     1      36.008 -21.978 -16.971  0.00  0.00    +0.018 C 
BRANCH  13  19
ATOM     19  O   UNL     1      34.772 -21.127 -20.308  0.00  0.00    -0.476 OA
BRANCH  19  20
ATOM     20  C   UNL     1      34.581 -19.717 -20.408  0.00  0.00    +0.203 C 
BRANCH  20  21
ATOM     21  C   UNL     1      35.055 -19.253 -21.779  0.00  0.00    +0.025 C 
BRANCH  21  22
ATOM     22  C   UNL     1      36.131 -18.178 -21.664  0.00  0.00    -0.074 C 
BRANCH  22  23
ATOM     23  N   UNL     1      35.836 -17.069 -22.559  0.00  0.00    +0.387 N 
ATOM     24  C   UNL     1      34.897 -17.439 -23.617  0.00  0.00    -0.077 C 
ATOM     25  C   UNL     1      35.203 -15.947 -21.866  0.00  0.00    -0.077 C 
ATOM     26  C   UNL     1      34.444 -16.092 -24.159  0.00  0.00    -0.025 C 
ATOM     27  C   UNL     1      34.648 -15.109 -23.009  0.00  0.00    -0.025 C 
ATOM     28  H   UNL     1      36.746 -16.808 -22.939  0.00  0.00    -0.080 HD
ENDBRANCH  22  23
ENDBRANCH  21  22
ENDBRANCH  20  21
ENDBRANCH  19  20
ENDBRANCH  13  19
ENDBRANCH   2  14
BRANCH   8  32
ATOM     29  F   UNL     1      39.124 -24.105 -14.333  0.00  0.00    -0.166 F 
ATOM     30  F   UNL     1      39.722 -25.682 -12.969  0.00  0.00    -0.166 F 
ATOM     31  F   UNL     1      38.476 -26.149 -14.690  0.00  0.00    -0.166 F 
ATOM     32  C   UNL     1      38.666 -25.226 -13.704  0.00  0.00    +0.416 C 
ENDBRANCH   8  32
TORSDOF 7
ENDMDL
MODEL 8
REMARK VINA RESULT:      -9.4      3.260      9.679
REMARK  Name = 11697697
REMARK  7 active torsions:
REMARK  status: ('A' for Active; 'I' for Inactive)
REMARK    1  A    between atoms: N_2  and  C_14
REMARK    2  A    between atoms: C_8  and  C_32
REMARK    3  A    between atoms: C_13  and  O_19
REMARK    4  A    between atoms: O_19  and  C_20
REMARK    5  A    between atoms: C_20  and  C_21
REMARK    6  A    between atoms: C_21  and  C_22
REMARK    7  A    between atoms: C_22  and  N_23
REMARK                            x       y       z     vdW  Elec       q    Type
REMARK                         _______ _______ _______ _____ _____    ______ ____
ROOT
ATOM      1  O   UNL     1      34.224 -13.412 -21.376  0.00  0.00    -0.273 OA
ATOM      2  N   UNL     1      33.685 -12.807 -23.588  0.00  0.00    -0.215 N 
ATOM      3  N   UNL     1      33.693 -14.487 -25.273  0.00  0.00    -0.394 NA
ATOM      4  C   UNL     1      34.290 -15.095 -22.982  0.00  0.00    +0.156 C 
ATOM      5  C   UNL     1      34.086 -13.691 -22.564  0.00  0.00    +0.245 C 
ATOM      6  C   UNL     1      33.541 -13.252 -24.905  0.00  0.00    +0.170 C 
ATOM      7  C   UNL     1      34.061 -15.437 -24.314  0.00  0.00    +0.123 C 
ATOM      8  C   UNL     1      34.681 -16.066 -22.051  0.00  0.00    +0.064 C 
ATOM      9  C   UNL     1      34.227 -16.770 -24.710  0.00  0.00    +0.028 C 
ATOM     10  C   UNL     1      34.844 -17.389 -22.458  0.00  0.00    +0.001 C 
ATOM     11  C   UNL     1      33.246 -12.265 -26.015  0.00  0.00    +0.084 C 
ATOM     12  C   UNL     1      34.616 -17.742 -23.786  0.00  0.00    +0.002 C 
ENDROOT
BRANCH   2  14
ATOM     13  C   UNL     1      32.825  -8.838 -22.458  0.00  0.00    +0.139 C 
ATOM     14  C   UNL     1      33.391 -11.454 -23.204  0.00  0.00    +0.060 C 
ATOM     15  C   UNL     1      31.995  -9.878 -22.039  0.00  0.00    +0.038 C 
ATOM     16  C   UNL     1      33.940  -9.112 -23.253  0.00  0.00    +0.038 C 
ATOM     17  C   UNL     1      32.279 -11.191 -22.414  0.00  0.00    +0.018 C 
ATOM     18  C   UNL     1      34.223 -10.425 -23.627  0.00  0.00    +0.018 C 
BRANCH  13  19
ATOM     19  O   UNL     1      32.548  -7.556 -22.094  0.00  0.00    -0.476 OA
BRANCH  19  20
ATOM     20  C   UNL     1      31.184  -7.142 -22.166  0.00  0.00    +0.203 C 
BRANCH  20  21
ATOM     21  C   UNL     1      31.098  -5.669 -21.786  0.00  0.00    +0.025 C 
BRANCH  21  22
ATOM     22  C   UNL     1      32.319  -4.894 -22.269  0.00  0.00    -0.074 C 
BRANCH  22  23
ATOM     23  N   UNL     1      32.566  -5.167 -23.677  0.00  0.00    +0.387 N 
ATOM     24  C   UNL     1      32.000  -4.142 -24.553  0.00  0.00    -0.077 C 
ATOM     25  C   UNL     1      33.994  -5.193 -23.997  0.00  0.00    -0.077 C 
ATOM     26  C   UNL     1      32.694  -4.405 -25.880  0.00  0.00    -0.025 C 
ATOM     27  C   UNL     1      34.004  -5.099 -25.516  0.00  0.00    -0.025 C 
ATOM     28  H   UNL     1      32.132  -6.076 -23.833  0.00  0.00    -0.080 HD
ENDBRANCH  22  23
ENDBRANCH  21  22
ENDBRANCH  20  21
ENDBRANCH  19  20
ENDBRANCH  13  19
ENDBRANCH   2  14
BRANCH   8  32
ATOM     29  F   UNL     1      33.806 -15.581 -19.878  0.00  0.00    -0.166 F 
ATOM     30  F   UNL     1      35.614 -16.776 -19.967  0.00  0.00    -0.166 F 
ATOM     31  F   UNL     1      35.693 -14.652 -20.428  0.00  0.00    -0.166 F 
ATOM     32  C   UNL     1      34.942 -15.776 -20.609  0.00  0.00    +0.416 C 
ENDBRANCH   8  32
TORSDOF 7
ENDMDL
MODEL 9
REMARK VINA RESULT:      -9.4      3.417      9.560
REMARK  Name = 11697697
REMARK  7 active torsions:
REMARK  status: ('A' for Active; 'I' for Inactive)
REMARK    1  A    between atoms: N_2  and  C_14
REMARK    2  A    between atoms: C_8  and  C_32
REMARK    3  A    between atoms: C_13  and  O_19
REMARK    4  A    between atoms: O_19  and  C_20
REMARK    5  A    between atoms: C_20  and  C_21
REMARK    6  A    between atoms: C_21  and  C_22
REMARK    7  A    between atoms: C_22  and  N_23
REMARK                            x       y       z     vdW  Elec       q    Type
REMARK                         _______ _______ _______ _____ _____    ______ ____
ROOT
ATOM      1  O   UNL     1      34.576 -15.053 -21.512  0.00  0.00    -0.273 OA
ATOM      2  N   UNL     1      33.706 -14.414 -23.606  0.00  0.00    -0.215 N 
ATOM      3  N   UNL     1      33.527 -16.053 -25.323  0.00  0.00    -0.394 NA
ATOM      4  C   UNL     1      34.465 -16.693 -23.159  0.00  0.00    +0.156 C 
ATOM      5  C   UNL     1      34.278 -15.308 -22.676  0.00  0.00    +0.245 C 
ATOM      6  C   UNL     1      33.390 -14.833 -24.902  0.00  0.00    +0.170 C 
ATOM      7  C   UNL     1      34.059 -17.012 -24.454  0.00  0.00    +0.123 C 
ATOM      8  C   UNL     1      35.016 -17.671 -22.322  0.00  0.00    +0.064 C 
ATOM      9  C   UNL     1      34.210 -18.327 -24.908  0.00  0.00    +0.028 C 
ATOM     10  C   UNL     1      35.162 -18.978 -22.786  0.00  0.00    +0.001 C 
ATOM     11  C   UNL     1      32.907 -13.831 -25.929  0.00  0.00    +0.084 C 
ATOM     12  C   UNL     1      34.758 -19.306 -24.078  0.00  0.00    +0.002 C 
ENDROOT
BRANCH   2  14
ATOM     13  C   UNL     1      32.891 -10.508 -22.252  0.00  0.00    +0.139 C 
ATOM     14  C   UNL     1      33.427 -13.082 -23.146  0.00  0.00    +0.060 C 
ATOM     15  C   UNL     1      32.211 -11.593 -21.699  0.00  0.00    +0.038 C 
ATOM     16  C   UNL     1      33.839 -10.715 -23.254  0.00  0.00    +0.038 C 
ATOM     17  C   UNL     1      32.481 -12.886 -22.148  0.00  0.00    +0.018 C 
ATOM     18  C   UNL     1      34.108 -12.007 -23.702  0.00  0.00    +0.018 C 
BRANCH  13  19
ATOM     19  O   UNL     1      32.627  -9.246 -21.815  0.00  0.00    -0.476 OA
BRANCH  19  20
ATOM     20  C   UNL     1      31.815  -9.119 -20.649  0.00  0.00    +0.203 C 
BRANCH  20  21
ATOM     21  C   UNL     1      32.253  -7.880 -19.877  0.00  0.00    +0.025 C 
BRANCH  21  22
ATOM     22  C   UNL     1      33.342  -7.114 -20.620  0.00  0.00    -0.074 C 
BRANCH  22  23
ATOM     23  N   UNL     1      32.768  -6.368 -21.731  0.00  0.00    +0.387 N 
ATOM     24  C   UNL     1      32.258  -5.062 -21.321  0.00  0.00    -0.077 C 
ATOM     25  C   UNL     1      33.751  -6.082 -22.776  0.00  0.00    -0.077 C 
ATOM     26  C   UNL     1      32.084  -4.332 -22.645  0.00  0.00    -0.025 C 
ATOM     27  C   UNL     1      33.063  -5.005 -23.603  0.00  0.00    -0.025 C 
ATOM     28  H   UNL     1      32.022  -6.972 -22.074  0.00  0.00    -0.080 HD
ENDBRANCH  22  23
ENDBRANCH  21  22
ENDBRANCH  20  21
ENDBRANCH  19  20
ENDBRANCH  13  19
ENDBRANCH   2  14
BRANCH   8  32
ATOM     29  F   UNL     1      34.455 -17.388 -20.014  0.00  0.00    -0.166 F 
ATOM     30  F   UNL     1      36.355 -18.338 -20.455  0.00  0.00    -0.166 F 
ATOM     31  F   UNL     1      36.102 -16.205 -20.797  0.00  0.00    -0.166 F 
ATOM     32  C   UNL     1      35.472 -17.408 -20.923  0.00  0.00    +0.416 C 
ENDBRANCH   8  32
TORSDOF 7
ENDMDL
