MODEL 1
REMARK VINA RESULT:     -11.9      0.000      0.000
REMARK  Name = 446752
REMARK  3 active torsions:
REMARK  status: ('A' for Active; 'I' for Inactive)
REMARK    1  A    between atoms: C_6  and  C_18
REMARK    2  A    between atoms: C_18  and  N_19
REMARK    3  A    between atoms: N_19  and  C_22
REMARK                            x       y       z     vdW  Elec       q    Type
REMARK                         _______ _______ _______ _____ _____    ______ ____
ROOT
ATOM      1  N   UNL     1      32.970 -20.461 -20.257  0.00  0.00    -0.182 NA
ATOM      2  N   UNL     1      32.768 -21.956 -18.501  0.00  0.00    -0.273 NA
ATOM      3  N   UNL     1      34.682 -22.661 -17.222  0.00  0.00    -0.312 NA
ATOM      4  N   UNL     1      36.810 -21.864 -17.705  0.00  0.00    -0.332 N 
ATOM      5  N   UNL     1      32.543 -23.474 -16.725  0.00  0.00    -0.283 N 
ATOM      6  C   UNL     1      35.112 -19.556 -20.866  0.00  0.00    +0.010 C 
ATOM      7  C   UNL     1      35.709 -20.281 -19.860  0.00  0.00    -0.009 C 
ATOM      8  C   UNL     1      34.913 -21.102 -19.048  0.00  0.00    +0.115 C 
ATOM      9  C   UNL     1      33.533 -21.174 -19.272  0.00  0.00    +0.104 C 
ATOM     10  C   UNL     1      33.756 -19.673 -21.031  0.00  0.00    +0.107 C 
ATOM     11  C   UNL     1      37.192 -20.134 -19.704  0.00  0.00    +0.032 C 
ATOM     12  C   UNL     1      35.431 -21.869 -18.008  0.00  0.00    +0.201 C 
ATOM     13  C   UNL     1      33.376 -22.657 -17.520  0.00  0.00    +0.206 C 
ATOM     14  H   UNL     1      37.154 -22.415 -16.965  0.00  0.00    +0.145 HD
ATOM     15  H   UNL     1      37.428 -21.310 -18.236  0.00  0.00    +0.145 HD
ATOM     16  H   UNL     1      31.575 -23.509 -16.899  0.00  0.00    +0.156 HD
ATOM     17  H   UNL     1      32.932 -24.008 -15.994  0.00  0.00    +0.156 HD
ENDROOT
BRANCH   6  18
ATOM     18  C   UNL     1      35.894 -18.653 -21.781  0.00  0.00    +0.097 C 
BRANCH  18  19
ATOM     19  N   UNL     1      35.013 -17.822 -22.535  0.00  0.00    -0.288 NA
ATOM     20  H   UNL     1      34.523 -18.217 -23.292  0.00  0.00    +0.124 HD
BRANCH  19  22
ATOM     21  N   UNL     1      33.797 -13.280 -23.812  0.00  0.00    -0.248 NA
ATOM     22  C   UNL     1      34.815 -16.451 -22.240  0.00  0.00    +0.101 C 
ATOM     23  C   UNL     1      34.390 -15.540 -23.220  0.00  0.00    +0.010 C 
ATOM     24  C   UNL     1      34.201 -14.180 -22.896  0.00  0.00    +0.061 C 
ATOM     25  C   UNL     1      35.052 -16.024 -20.936  0.00  0.00    -0.010 C 
ATOM     26  C   UNL     1      34.144 -15.943 -24.540  0.00  0.00    +0.000 C 
ATOM     27  C   UNL     1      34.447 -13.780 -21.586  0.00  0.00    +0.071 C 
ATOM     28  C   UNL     1      34.868 -14.686 -20.610  0.00  0.00    -0.023 C 
ATOM     29  C   UNL     1      33.726 -15.019 -25.486  0.00  0.00    +0.020 C 
ATOM     30  C   UNL     1      33.569 -13.711 -25.075  0.00  0.00    +0.098 C 
ENDBRANCH  19  22
ENDBRANCH  18  19
ENDBRANCH   6  18
TORSDOF 3
ENDMDL
MODEL 2
REMARK VINA RESULT:     -11.9      0.783      2.013
REMARK  Name = 446752
REMARK  3 active torsions:
REMARK  status: ('A' for Active; 'I' for Inactive)
REMARK    1  A    between atoms: C_6  and  C_18
REMARK    2  A    between atoms: C_18  and  N_19
REMARK    3  A    between atoms: N_19  and  C_22
REMARK                            x       y       z     vdW  Elec       q    Type
REMARK                         _______ _______ _______ _____ _____    ______ ____
ROOT
ATOM      1  N   UNL     1      33.053 -20.187 -20.585  0.00  0.00    -0.182 NA
ATOM      2  N   UNL     1      32.804 -21.732 -18.880  0.00  0.00    -0.273 NA
ATOM      3  N   UNL     1      34.683 -22.477 -17.571  0.00  0.00    -0.312 NA
ATOM      4  N   UNL     1      36.823 -21.669 -17.975  0.00  0.00    -0.332 N 
ATOM      5  N   UNL     1      32.531 -23.300 -17.154  0.00  0.00    -0.283 N 
ATOM      6  C   UNL     1      35.211 -19.268 -21.111  0.00  0.00    +0.010 C 
ATOM      7  C   UNL     1      35.780 -20.022 -20.111  0.00  0.00    -0.009 C 
ATOM      8  C   UNL     1      34.963 -20.866 -19.345  0.00  0.00    +0.115 C 
ATOM      9  C   UNL     1      33.589 -20.929 -19.607  0.00  0.00    +0.104 C 
ATOM     10  C   UNL     1      33.859 -19.378 -21.315  0.00  0.00    +0.107 C 
ATOM     11  C   UNL     1      37.259 -19.882 -19.912  0.00  0.00    +0.032 C 
ATOM     12  C   UNL     1      35.453 -21.663 -18.313  0.00  0.00    +0.201 C 
ATOM     13  C   UNL     1      33.385 -22.462 -17.903  0.00  0.00    +0.206 C 
ATOM     14  H   UNL     1      37.147 -22.241 -17.242  0.00  0.00    +0.145 HD
ATOM     15  H   UNL     1      37.455 -21.101 -18.472  0.00  0.00    +0.145 HD
ATOM     16  H   UNL     1      31.568 -23.329 -17.355  0.00  0.00    +0.156 HD
ATOM     17  H   UNL     1      32.899 -23.855 -16.429  0.00  0.00    +0.156 HD
ENDROOT
BRANCH   6  18
ATOM     18  C   UNL     1      36.017 -18.340 -21.978  0.00  0.00    +0.097 C 
BRANCH  18  19
ATOM     19  N   UNL     1      35.635 -16.985 -21.750  0.00  0.00    -0.288 NA
ATOM     20  H   UNL     1      35.865 -16.568 -20.888  0.00  0.00    +0.124 HD
BRANCH  19  22
ATOM     21  N   UNL     1      32.923 -13.149 -23.043  0.00  0.00    -0.248 NA
ATOM     22  C   UNL     1      34.939 -16.213 -22.712  0.00  0.00    +0.101 C 
ATOM     23  C   UNL     1      34.265 -15.032 -22.363  0.00  0.00    +0.010 C 
ATOM     24  C   UNL     1      33.579 -14.285 -23.344  0.00  0.00    +0.061 C 
ATOM     25  C   UNL     1      34.940 -16.660 -24.031  0.00  0.00    -0.010 C 
ATOM     26  C   UNL     1      34.247 -14.559 -21.044  0.00  0.00    +0.000 C 
ATOM     27  C   UNL     1      33.596 -14.755 -24.654  0.00  0.00    +0.071 C 
ATOM     28  C   UNL     1      34.268 -15.930 -25.002  0.00  0.00    -0.023 C 
ATOM     29  C   UNL     1      33.572 -13.389 -20.730  0.00  0.00    +0.020 C 
ATOM     30  C   UNL     1      32.931 -12.727 -21.757  0.00  0.00    +0.098 C 
ENDBRANCH  19  22
ENDBRANCH  18  19
ENDBRANCH   6  18
TORSDOF 3
ENDMDL
MODEL 3
REMARK VINA RESULT:     -11.9      1.085      2.283
REMARK  Name = 446752
REMARK  3 active torsions:
REMARK  status: ('A' for Active; 'I' for Inactive)
REMARK    1  A    between atoms: C_6  and  C_18
REMARK    2  A    between atoms: C_18  and  N_19
REMARK    3  A    between atoms: N_19  and  C_22
REMARK                            x       y       z     vdW  Elec       q    Type
REMARK                         _______ _______ _______ _____ _____    ______ ____
ROOT
ATOM      1  N   UNL     1      36.806 -20.949 -18.769  0.00  0.00    -0.182 NA
ATOM      2  N   UNL     1      36.325 -22.321 -16.968  0.00  0.00    -0.273 NA
ATOM      3  N   UNL     1      34.076 -23.040 -16.499  0.00  0.00    -0.312 NA
ATOM      4  N   UNL     1      32.299 -22.379 -17.842  0.00  0.00    -0.332 N 
ATOM      5  N   UNL     1      35.858 -23.712 -15.136  0.00  0.00    -0.283 N 
ATOM      6  C   UNL     1      35.064 -20.191 -20.242  0.00  0.00    +0.010 C 
ATOM      7  C   UNL     1      34.133 -20.879 -19.500  0.00  0.00    -0.009 C 
ATOM      8  C   UNL     1      34.557 -21.610 -18.381  0.00  0.00    +0.115 C 
ATOM      9  C   UNL     1      35.913 -21.627 -18.035  0.00  0.00    +0.104 C 
ATOM     10  C   UNL     1      36.377 -20.249 -19.847  0.00  0.00    +0.107 C 
ATOM     11  C   UNL     1      32.707 -20.797 -19.954  0.00  0.00    +0.032 C 
ATOM     12  C   UNL     1      33.684 -22.336 -17.574  0.00  0.00    +0.201 C 
ATOM     13  C   UNL     1      35.393 -22.990 -16.257  0.00  0.00    +0.206 C 
ATOM     14  H   UNL     1      31.701 -22.900 -17.257  0.00  0.00    +0.145 HD
ATOM     15  H   UNL     1      31.931 -21.889 -18.612  0.00  0.00    +0.145 HD
ATOM     16  H   UNL     1      36.816 -23.710 -14.911  0.00  0.00    +0.156 HD
ATOM     17  H   UNL     1      35.222 -24.218 -14.580  0.00  0.00    +0.156 HD
ENDROOT
BRANCH   6  18
ATOM     18  C   UNL     1      34.691 -19.383 -21.455  0.00  0.00    +0.097 C 
BRANCH  18  19
ATOM     19  N   UNL     1      35.586 -18.284 -21.618  0.00  0.00    -0.288 NA
ATOM     20  H   UNL     1      36.537 -18.472 -21.798  0.00  0.00    +0.124 HD
BRANCH  19  22
ATOM     21  N   UNL     1      33.952 -14.154 -23.620  0.00  0.00    -0.248 NA
ATOM     22  C   UNL     1      35.166 -16.935 -21.533  0.00  0.00    +0.101 C 
ATOM     23  C   UNL     1      34.759 -16.215 -22.669  0.00  0.00    +0.010 C 
ATOM     24  C   UNL     1      34.346 -14.872 -22.552  0.00  0.00    +0.061 C 
ATOM     25  C   UNL     1      35.164 -16.331 -20.279  0.00  0.00    -0.010 C 
ATOM     26  C   UNL     1      34.751 -16.799 -23.943  0.00  0.00    +0.000 C 
ATOM     27  C   UNL     1      34.355 -14.292 -21.287  0.00  0.00    +0.071 C 
ATOM     28  C   UNL     1      34.758 -15.008 -20.156  0.00  0.00    -0.023 C 
ATOM     29  C   UNL     1      34.345 -16.062 -25.046  0.00  0.00    +0.020 C 
ATOM     30  C   UNL     1      33.958 -14.755 -24.833  0.00  0.00    +0.098 C 
ENDBRANCH  19  22
ENDBRANCH  18  19
ENDBRANCH   6  18
TORSDOF 3
ENDMDL
MODEL 4
REMARK VINA RESULT:     -11.5      1.683      3.136
REMARK  Name = 446752
REMARK  3 active torsions:
REMARK  status: ('A' for Active; 'I' for Inactive)
REMARK    1  A    between atoms: C_6  and  C_18
REMARK    2  A    between atoms: C_18  and  N_19
REMARK    3  A    between atoms: N_19  and  C_22
REMARK                            x       y       z     vdW  Elec       q    Type
REMARK                         _______ _______ _______ _____ _____    ______ ____
ROOT
ATOM      1  N   UNL     1      32.541 -22.064 -18.386  0.00  0.00    -0.182 NA
ATOM      2  N   UNL     1      32.173 -23.159 -16.380  0.00  0.00    -0.273 NA
ATOM      3  N   UNL     1      33.976 -23.641 -14.859  0.00  0.00    -0.312 NA
ATOM      4  N   UNL     1      36.161 -23.023 -15.352  0.00  0.00    -0.332 N 
ATOM      5  N   UNL     1      31.779 -24.271 -14.350  0.00  0.00    -0.283 N 
ATOM      6  C   UNL     1      34.752 -21.368 -19.023  0.00  0.00    +0.010 C 
ATOM      7  C   UNL     1      35.256 -21.886 -17.853  0.00  0.00    -0.009 C 
ATOM      8  C   UNL     1      34.380 -22.499 -16.945  0.00  0.00    +0.115 C 
ATOM      9  C   UNL     1      33.014 -22.575 -17.241  0.00  0.00    +0.104 C 
ATOM     10  C   UNL     1      33.403 -21.476 -19.251  0.00  0.00    +0.107 C 
ATOM     11  C   UNL     1      36.732 -21.754 -17.632  0.00  0.00    +0.032 C 
ATOM     12  C   UNL     1      34.803 -23.050 -15.738  0.00  0.00    +0.201 C 
ATOM     13  C   UNL     1      32.691 -23.660 -15.238  0.00  0.00    +0.206 C 
ATOM     14  H   UNL     1      36.436 -23.419 -14.494  0.00  0.00    +0.145 HD
ATOM     15  H   UNL     1      36.831 -22.609 -15.942  0.00  0.00    +0.145 HD
ATOM     16  H   UNL     1      30.823 -24.313 -14.578  0.00  0.00    +0.156 HD
ATOM     17  H   UNL     1      32.101 -24.654 -13.502  0.00  0.00    +0.156 HD
ENDROOT
BRANCH   6  18
ATOM     18  C   UNL     1      35.623 -20.696 -20.048  0.00  0.00    +0.097 C 
BRANCH  18  19
ATOM     19  N   UNL     1      35.295 -19.311 -20.154  0.00  0.00    -0.288 NA
ATOM     20  H   UNL     1      35.230 -18.777 -19.329  0.00  0.00    +0.124 HD
BRANCH  19  22
ATOM     21  N   UNL     1      34.586 -15.336 -22.880  0.00  0.00    -0.248 NA
ATOM     22  C   UNL     1      35.057 -18.673 -21.395  0.00  0.00    +0.101 C 
ATOM     23  C   UNL     1      34.941 -17.277 -21.497  0.00  0.00    +0.010 C 
ATOM     24  C   UNL     1      34.704 -16.671 -22.748  0.00  0.00    +0.061 C 
ATOM     25  C   UNL     1      34.942 -19.474 -22.528  0.00  0.00    -0.010 C 
ATOM     26  C   UNL     1      35.053 -16.447 -20.373  0.00  0.00    +0.000 C 
ATOM     27  C   UNL     1      34.591 -17.495 -23.864  0.00  0.00    +0.071 C 
ATOM     28  C   UNL     1      34.708 -18.884 -23.764  0.00  0.00    -0.023 C 
ATOM     29  C   UNL     1      34.932 -15.072 -20.505  0.00  0.00    +0.020 C 
ATOM     30  C   UNL     1      34.701 -14.571 -21.770  0.00  0.00    +0.098 C 
ENDBRANCH  19  22
ENDBRANCH  18  19
ENDBRANCH   6  18
TORSDOF 3
ENDMDL
MODEL 5
REMARK VINA RESULT:     -11.4      1.160      3.082
REMARK  Name = 446752
REMARK  3 active torsions:
REMARK  status: ('A' for Active; 'I' for Inactive)
REMARK    1  A    between atoms: C_6  and  C_18
REMARK    2  A    between atoms: C_18  and  N_19
REMARK    3  A    between atoms: N_19  and  C_22
REMARK                            x       y       z     vdW  Elec       q    Type
REMARK                         _______ _______ _______ _____ _____    ______ ____
ROOT
ATOM      1  N   UNL     1      36.892 -20.455 -19.166  0.00  0.00    -0.182 NA
ATOM      2  N   UNL     1      36.836 -21.826 -17.301  0.00  0.00    -0.273 NA
ATOM      3  N   UNL     1      34.801 -22.899 -16.589  0.00  0.00    -0.312 NA
ATOM      4  N   UNL     1      32.813 -22.596 -17.752  0.00  0.00    -0.332 N 
ATOM      5  N   UNL     1      36.798 -23.212 -15.407  0.00  0.00    -0.283 N 
ATOM      6  C   UNL     1      34.908 -20.054 -20.462  0.00  0.00    +0.010 C 
ATOM      7  C   UNL     1      34.187 -20.865 -19.617  0.00  0.00    -0.009 C 
ATOM      8  C   UNL     1      34.840 -21.474 -18.535  0.00  0.00    +0.115 C 
ATOM      9  C   UNL     1      36.206 -21.249 -18.331  0.00  0.00    +0.104 C 
ATOM     10  C   UNL     1      36.244 -19.875 -20.205  0.00  0.00    +0.107 C 
ATOM     11  C   UNL     1      32.731 -21.041 -19.922  0.00  0.00    +0.032 C 
ATOM     12  C   UNL     1      34.190 -22.309 -17.630  0.00  0.00    +0.201 C 
ATOM     13  C   UNL     1      36.107 -22.618 -16.486  0.00  0.00    +0.206 C 
ATOM     14  H   UNL     1      32.374 -23.190 -17.100  0.00  0.00    +0.145 HD
ATOM     15  H   UNL     1      32.291 -22.202 -18.488  0.00  0.00    +0.145 HD
ATOM     16  H   UNL     1      37.759 -23.040 -15.283  0.00  0.00    +0.156 HD
ATOM     17  H   UNL     1      36.318 -23.800 -14.780  0.00  0.00    +0.156 HD
ENDROOT
BRANCH   6  18
ATOM     18  C   UNL     1      34.283 -19.364 -21.644  0.00  0.00    +0.097 C 
BRANCH  18  19
ATOM     19  N   UNL     1      35.237 -18.525 -22.294  0.00  0.00    -0.288 NA
ATOM     20  H   UNL     1      36.181 -18.805 -22.308  0.00  0.00    +0.124 HD
BRANCH  19  22
ATOM     21  N   UNL     1      34.281 -13.749 -22.179  0.00  0.00    -0.248 NA
ATOM     22  C   UNL     1      34.882 -17.305 -22.921  0.00  0.00    +0.101 C 
ATOM     23  C   UNL     1      34.761 -16.110 -22.194  0.00  0.00    +0.010 C 
ATOM     24  C   UNL     1      34.407 -14.911 -22.846  0.00  0.00    +0.061 C 
ATOM     25  C   UNL     1      34.656 -17.321 -24.294  0.00  0.00    -0.010 C 
ATOM     26  C   UNL     1      34.985 -16.066 -20.811  0.00  0.00    +0.000 C 
ATOM     27  C   UNL     1      34.184 -14.955 -24.220  0.00  0.00    +0.071 C 
ATOM     28  C   UNL     1      34.306 -16.144 -24.944  0.00  0.00    -0.023 C 
ATOM     29  C   UNL     1      34.856 -14.871 -20.120  0.00  0.00    +0.020 C 
ATOM     30  C   UNL     1      34.506 -13.749 -20.845  0.00  0.00    +0.098 C 
ENDBRANCH  19  22
ENDBRANCH  18  19
ENDBRANCH   6  18
TORSDOF 3
ENDMDL
MODEL 6
REMARK VINA RESULT:     -11.2      1.703      8.373
REMARK  Name = 446752
REMARK  3 active torsions:
REMARK  status: ('A' for Active; 'I' for Inactive)
REMARK    1  A    between atoms: C_6  and  C_18
REMARK    2  A    between atoms: C_18  and  N_19
REMARK    3  A    between atoms: N_19  and  C_22
REMARK                            x       y       z     vdW  Elec       q    Type
REMARK                         _______ _______ _______ _____ _____    ______ ____
ROOT
ATOM      1  N   UNL     1      35.326 -16.187 -20.531  0.00  0.00    -0.182 NA
ATOM      2  N   UNL     1      34.852 -14.322 -21.817  0.00  0.00    -0.273 NA
ATOM      3  N   UNL     1      34.178 -14.519 -24.120  0.00  0.00    -0.312 NA
ATOM      4  N   UNL     1      33.980 -16.597 -25.140  0.00  0.00    -0.332 N 
ATOM      5  N   UNL     1      34.375 -12.418 -23.105  0.00  0.00    -0.283 N 
ATOM      6  C   UNL     1      35.162 -18.399 -21.458  0.00  0.00    +0.010 C 
ATOM      7  C   UNL     1      34.778 -17.867 -22.667  0.00  0.00    -0.009 C 
ATOM      8  C   UNL     1      34.669 -16.475 -22.796  0.00  0.00    +0.115 C 
ATOM      9  C   UNL     1      34.953 -15.651 -21.701  0.00  0.00    +0.104 C 
ATOM     10  C   UNL     1      35.426 -17.535 -20.426  0.00  0.00    +0.107 C 
ATOM     11  C   UNL     1      34.497 -18.835 -23.777  0.00  0.00    +0.032 C 
ATOM     12  C   UNL     1      34.286 -15.851 -23.981  0.00  0.00    +0.201 C 
ATOM     13  C   UNL     1      34.472 -13.824 -23.013  0.00  0.00    +0.206 C 
ATOM     14  H   UNL     1      33.712 -16.134 -25.967  0.00  0.00    +0.145 HD
ATOM     15  H   UNL     1      34.036 -17.580 -25.121  0.00  0.00    +0.145 HD
ATOM     16  H   UNL     1      34.579 -11.858 -22.322  0.00  0.00    +0.156 HD
ATOM     17  H   UNL     1      34.103 -11.999 -23.953  0.00  0.00    +0.156 HD
ENDROOT
BRANCH   6  18
ATOM     18  C   UNL     1      35.303 -19.880 -21.238  0.00  0.00    +0.097 C 
BRANCH  18  19
ATOM     19  N   UNL     1      35.671 -20.152 -19.886  0.00  0.00    -0.288 NA
ATOM     20  H   UNL     1      36.472 -19.711 -19.517  0.00  0.00    +0.124 HD
BRANCH  19  22
ATOM     21  N   UNL     1      35.266 -23.076 -16.010  0.00  0.00    -0.248 NA
ATOM     22  C   UNL     1      34.935 -21.028 -19.053  0.00  0.00    +0.101 C 
ATOM     23  C   UNL     1      35.507 -21.621 -17.916  0.00  0.00    +0.010 C 
ATOM     24  C   UNL     1      34.748 -22.490 -17.106  0.00  0.00    +0.061 C 
ATOM     25  C   UNL     1      33.610 -21.289 -19.392  0.00  0.00    -0.010 C 
ATOM     26  C   UNL     1      36.838 -21.375 -17.552  0.00  0.00    +0.000 C 
ATOM     27  C   UNL     1      33.427 -22.735 -17.469  0.00  0.00    +0.071 C 
ATOM     28  C   UNL     1      32.855 -22.144 -18.599  0.00  0.00    -0.023 C 
ATOM     29  C   UNL     1      37.376 -21.976 -16.424  0.00  0.00    +0.020 C 
ATOM     30  C   UNL     1      36.555 -22.811 -15.693  0.00  0.00    +0.098 C 
ENDBRANCH  19  22
ENDBRANCH  18  19
ENDBRANCH   6  18
TORSDOF 3
ENDMDL
MODEL 7
REMARK VINA RESULT:     -11.2      1.378      8.203
REMARK  Name = 446752
REMARK  3 active torsions:
REMARK  status: ('A' for Active; 'I' for Inactive)
REMARK    1  A    between atoms: C_6  and  C_18
REMARK    2  A    between atoms: C_18  and  N_19
REMARK    3  A    between atoms: N_19  and  C_22
REMARK                            x       y       z     vdW  Elec       q    Type
REMARK                         _______ _______ _______ _____ _____    ______ ____
ROOT
ATOM      1  N   UNL     1      34.766 -16.715 -24.397  0.00  0.00    -0.182 NA
ATOM      2  N   UNL     1      33.731 -14.830 -25.253  0.00  0.00    -0.273 NA
ATOM      3  N   UNL     1      33.150 -12.964 -23.847  0.00  0.00    -0.312 NA
ATOM      4  N   UNL     1      33.608 -12.989 -21.569  0.00  0.00    -0.332 N 
ATOM      5  N   UNL     1      32.681 -12.928 -26.140  0.00  0.00    -0.283 N 
ATOM      6  C   UNL     1      35.298 -16.875 -22.058  0.00  0.00    +0.010 C 
ATOM      7  C   UNL     1      34.765 -15.625 -21.847  0.00  0.00    -0.009 C 
ATOM      8  C   UNL     1      34.228 -14.920 -22.935  0.00  0.00    +0.115 C 
ATOM      9  C   UNL     1      34.242 -15.496 -24.211  0.00  0.00    +0.104 C 
ATOM     10  C   UNL     1      35.279 -17.380 -23.333  0.00  0.00    +0.107 C 
ATOM     11  C   UNL     1      34.799 -15.098 -20.445  0.00  0.00    +0.032 C 
ATOM     12  C   UNL     1      33.668 -13.651 -22.814  0.00  0.00    +0.201 C 
ATOM     13  C   UNL     1      33.213 -13.605 -25.022  0.00  0.00    +0.206 C 
ATOM     14  H   UNL     1      33.207 -12.091 -21.508  0.00  0.00    +0.145 HD
ATOM     15  H   UNL     1      33.966 -13.425 -20.762  0.00  0.00    +0.145 HD
ATOM     16  H   UNL     1      32.701 -13.351 -27.029  0.00  0.00    +0.156 HD
ATOM     17  H   UNL     1      32.290 -12.030 -26.031  0.00  0.00    +0.156 HD
ENDROOT
BRANCH   6  18
ATOM     18  C   UNL     1      35.892 -17.695 -20.945  0.00  0.00    +0.097 C 
BRANCH  18  19
ATOM     19  N   UNL     1      35.690 -19.086 -21.187  0.00  0.00    -0.288 NA
ATOM     20  H   UNL     1      36.224 -19.527 -21.888  0.00  0.00    +0.124 HD
BRANCH  19  22
ATOM     21  N   UNL     1      34.537 -22.290 -17.702  0.00  0.00    -0.248 NA
ATOM     22  C   UNL     1      34.752 -19.861 -20.462  0.00  0.00    +0.101 C 
ATOM     23  C   UNL     1      35.149 -20.708 -19.414  0.00  0.00    +0.010 C 
ATOM     24  C   UNL     1      34.191 -21.468 -18.710  0.00  0.00    +0.061 C 
ATOM     25  C   UNL     1      33.410 -19.760 -20.817  0.00  0.00    -0.010 C 
ATOM     26  C   UNL     1      36.493 -20.829 -19.036  0.00  0.00    +0.000 C 
ATOM     27  C   UNL     1      32.856 -21.349 -19.087  0.00  0.00    +0.071 C 
ATOM     28  C   UNL     1      32.461 -20.505 -20.128  0.00  0.00    -0.023 C 
ATOM     29  C   UNL     1      36.853 -21.675 -17.998  0.00  0.00    +0.020 C 
ATOM     30  C   UNL     1      35.846 -22.377 -17.368  0.00  0.00    +0.098 C 
ENDBRANCH  19  22
ENDBRANCH  18  19
ENDBRANCH   6  18
TORSDOF 3
ENDMDL
MODEL 8
REMARK VINA RESULT:     -11.2      1.414      8.192
REMARK  Name = 446752
REMARK  3 active torsions:
REMARK  status: ('A' for Active; 'I' for Inactive)
REMARK    1  A    between atoms: C_6  and  C_18
REMARK    2  A    between atoms: C_18  and  N_19
REMARK    3  A    between atoms: N_19  and  C_22
REMARK                            x       y       z     vdW  Elec       q    Type
REMARK                         _______ _______ _______ _____ _____    ______ ____
ROOT
ATOM      1  N   UNL     1      34.934 -15.184 -20.896  0.00  0.00    -0.182 NA
ATOM      2  N   UNL     1      34.020 -13.251 -21.784  0.00  0.00    -0.273 NA
ATOM      3  N   UNL     1      33.322 -13.132 -24.086  0.00  0.00    -0.312 NA
ATOM      4  N   UNL     1      33.542 -14.959 -25.504  0.00  0.00    -0.332 N 
ATOM      5  N   UNL     1      33.095 -11.283 -22.667  0.00  0.00    -0.283 N 
ATOM      6  C   UNL     1      35.219 -17.149 -22.250  0.00  0.00    +0.010 C 
ATOM      7  C   UNL     1      34.685 -16.486 -23.331  0.00  0.00    -0.009 C 
ATOM      8  C   UNL     1      34.272 -15.155 -23.178  0.00  0.00    +0.115 C 
ATOM      9  C   UNL     1      34.410 -14.522 -21.937  0.00  0.00    +0.104 C 
ATOM     10  C   UNL     1      35.327 -16.470 -21.063  0.00  0.00    +0.107 C 
ATOM     11  C   UNL     1      34.580 -17.253 -24.614  0.00  0.00    +0.032 C 
ATOM     12  C   UNL     1      33.721 -14.408 -24.217  0.00  0.00    +0.201 C 
ATOM     13  C   UNL     1      33.498 -12.622 -22.859  0.00  0.00    +0.206 C 
ATOM     14  H   UNL     1      33.150 -14.412 -26.223  0.00  0.00    +0.145 HD
ATOM     15  H   UNL     1      33.810 -15.889 -25.683  0.00  0.00    +0.145 HD
ATOM     16  H   UNL     1      33.201 -10.857 -21.786  0.00  0.00    +0.156 HD
ATOM     17  H   UNL     1      32.708 -10.774 -23.416  0.00  0.00    +0.156 HD
ENDROOT
BRANCH   6  18
ATOM     18  C   UNL     1      35.686 -18.577 -22.331  0.00  0.00    +0.097 C 
BRANCH  18  19
ATOM     19  N   UNL     1      35.873 -19.116 -21.023  0.00  0.00    -0.288 NA
ATOM     20  H   UNL     1      36.726 -18.947 -20.560  0.00  0.00    +0.124 HD
BRANCH  19  22
ATOM     21  N   UNL     1      34.470 -22.331 -17.641  0.00  0.00    -0.248 NA
ATOM     22  C   UNL     1      34.883 -19.884 -20.363  0.00  0.00    +0.101 C 
ATOM     23  C   UNL     1      35.204 -20.744 -19.300  0.00  0.00    +0.010 C 
ATOM     24  C   UNL     1      34.197 -21.497 -18.662  0.00  0.00    +0.061 C 
ATOM     25  C   UNL     1      33.567 -19.764 -20.799  0.00  0.00    -0.010 C 
ATOM     26  C   UNL     1      36.521 -20.883 -18.840  0.00  0.00    +0.000 C 
ATOM     27  C   UNL     1      32.889 -21.359 -19.119  0.00  0.00    +0.071 C 
ATOM     28  C   UNL     1      32.569 -20.503 -20.176  0.00  0.00    -0.023 C 
ATOM     29  C   UNL     1      36.807 -21.741 -17.789  0.00  0.00    +0.020 C 
ATOM     30  C   UNL     1      35.755 -22.436 -17.228  0.00  0.00    +0.098 C 
ENDBRANCH  19  22
ENDBRANCH  18  19
ENDBRANCH   6  18
TORSDOF 3
ENDMDL
MODEL 9
REMARK VINA RESULT:     -11.1      3.378      9.352
REMARK  Name = 446752
REMARK  3 active torsions:
REMARK  status: ('A' for Active; 'I' for Inactive)
REMARK    1  A    between atoms: C_6  and  C_18
REMARK    2  A    between atoms: C_18  and  N_19
REMARK    3  A    between atoms: N_19  and  C_22
REMARK                            x       y       z     vdW  Elec       q    Type
REMARK                         _______ _______ _______ _____ _____    ______ ____
ROOT
ATOM      1  N   UNL     1      36.594 -21.100 -18.587  0.00  0.00    -0.182 NA
ATOM      2  N   UNL     1      37.446 -19.617 -20.148  0.00  0.00    -0.273 NA
ATOM      3  N   UNL     1      36.034 -18.577 -21.797  0.00  0.00    -0.312 NA
ATOM      4  N   UNL     1      33.756 -19.026 -21.884  0.00  0.00    -0.332 N 
ATOM      5  N   UNL     1      38.329 -18.116 -21.722  0.00  0.00    -0.283 N 
ATOM      6  C   UNL     1      34.256 -21.655 -18.562  0.00  0.00    +0.010 C 
ATOM      7  C   UNL     1      34.042 -20.819 -19.634  0.00  0.00    -0.009 C 
ATOM      8  C   UNL     1      35.128 -20.120 -20.179  0.00  0.00    +0.115 C 
ATOM      9  C   UNL     1      36.405 -20.281 -19.631  0.00  0.00    +0.104 C 
ATOM     10  C   UNL     1      35.533 -21.767 -18.074  0.00  0.00    +0.107 C 
ATOM     11  C   UNL     1      32.637 -20.717 -20.146  0.00  0.00    +0.032 C 
ATOM     12  C   UNL     1      35.004 -19.253 -21.263  0.00  0.00    +0.201 C 
ATOM     13  C   UNL     1      37.211 -18.802 -21.198  0.00  0.00    +0.206 C 
ATOM     14  H   UNL     1      33.693 -18.409 -22.649  0.00  0.00    +0.145 HD
ATOM     15  H   UNL     1      32.951 -19.485 -21.553  0.00  0.00    +0.145 HD
ATOM     16  H   UNL     1      39.218 -18.244 -21.321  0.00  0.00    +0.156 HD
ATOM     17  H   UNL     1      38.217 -17.508 -22.489  0.00  0.00    +0.156 HD
ENDROOT
BRANCH   6  18
ATOM     18  C   UNL     1      33.146 -22.441 -17.919  0.00  0.00    +0.097 C 
BRANCH  18  19
ATOM     19  N   UNL     1      33.666 -23.306 -16.910  0.00  0.00    -0.288 NA
ATOM     20  H   UNL     1      34.450 -23.863 -17.124  0.00  0.00    +0.124 HD
BRANCH  19  22
ATOM     21  N   UNL     1      34.001 -24.137 -12.121  0.00  0.00    -0.248 NA
ATOM     22  C   UNL     1      33.101 -23.398 -15.615  0.00  0.00    +0.101 C 
ATOM     23  C   UNL     1      33.877 -23.733 -14.494  0.00  0.00    +0.010 C 
ATOM     24  C   UNL     1      33.286 -23.817 -13.216  0.00  0.00    +0.061 C 
ATOM     25  C   UNL     1      31.739 -23.143 -15.479  0.00  0.00    -0.010 C 
ATOM     26  C   UNL     1      35.250 -23.994 -14.603  0.00  0.00    +0.000 C 
ATOM     27  C   UNL     1      31.922 -23.559 -13.108  0.00  0.00    +0.071 C 
ATOM     28  C   UNL     1      31.150 -23.224 -14.223  0.00  0.00    -0.023 C 
ATOM     29  C   UNL     1      35.990 -24.324 -13.477  0.00  0.00    +0.020 C 
ATOM     30  C   UNL     1      35.324 -24.381 -12.270  0.00  0.00    +0.098 C 
ENDBRANCH  19  22
ENDBRANCH  18  19
ENDBRANCH   6  18
TORSDOF 3
ENDMDL
