MODEL 1
REMARK VINA RESULT:     -11.9      0.000      0.000
REMARK  Name = 445849
REMARK  5 active torsions:
REMARK  status: ('A' for Active; 'I' for Inactive)
REMARK    1  A    between atoms: C_3  and  C_20
REMARK    2  A    between atoms: C_9  and  C_14
REMARK    3  A    between atoms: C_18  and  O_26
REMARK    4  A    between atoms: C_19  and  O_24
REMARK    5  A    between atoms: O_26  and  C_28
REMARK                            x       y       z     vdW  Elec       q    Type
REMARK                         _______ _______ _______ _____ _____    ______ ____
ROOT
ATOM      1  F   UNL     1      36.967 -22.324 -17.457  0.00  0.00    -0.204 F 
ATOM      2  N   UNL     1      35.974 -18.982 -20.852  0.00  0.00    -0.312 N 
ATOM      3  C   UNL     1      34.802 -18.642 -21.471  0.00  0.00    +0.051 C 
ATOM      4  C   UNL     1      34.395 -20.311 -20.005  0.00  0.00    +0.015 C 
ATOM      5  C   UNL     1      35.756 -20.000 -19.951  0.00  0.00    +0.051 C 
ATOM      6  C   UNL     1      33.807 -19.445 -20.968  0.00  0.00    +0.016 C 
ATOM      7  C   UNL     1      33.900 -21.332 -19.170  0.00  0.00    +0.006 C 
ATOM      8  C   UNL     1      36.649 -20.662 -19.101  0.00  0.00    +0.044 C 
ATOM      9  C   UNL     1      34.782 -22.003 -18.315  0.00  0.00    +0.058 C 
ATOM     10  C   UNL     1      36.135 -21.672 -18.283  0.00  0.00    +0.144 C 
ATOM     11  H   UNL     1      36.847 -18.561 -21.026  0.00  0.00    +0.152 HD
ENDROOT
BRANCH   9  14
ATOM     12  N   UNL     1      34.466 -23.025 -16.074  0.00  0.00    -0.343 N 
ATOM     13  N   UNL     1      33.617 -24.079 -17.979  0.00  0.00    -0.285 NA
ATOM     14  C   UNL     1      34.273 -23.059 -17.453  0.00  0.00    +0.119 C 
ATOM     15  H   UNL     1      34.113 -23.750 -15.509  0.00  0.00    +0.144 HD
ATOM     16  H   UNL     1      34.955 -22.275 -15.664  0.00  0.00    +0.144 HD
ATOM     17  H   UNL     1      33.272 -24.795 -17.398  0.00  0.00    +0.188 HD
ENDBRANCH   9  14
BRANCH   3  20
ATOM     18  C   UNL     1      34.786 -15.270 -23.091  0.00  0.00    +0.172 C 
ATOM     19  C   UNL     1      34.850 -16.256 -22.110  0.00  0.00    +0.169 C 
ATOM     20  C   UNL     1      34.739 -17.599 -22.469  0.00  0.00    +0.050 C 
ATOM     21  C   UNL     1      34.611 -15.616 -24.427  0.00  0.00    +0.040 C 
ATOM     22  C   UNL     1      34.562 -17.950 -23.807  0.00  0.00    +0.004 C 
ATOM     23  C   UNL     1      34.499 -16.960 -24.786  0.00  0.00    +0.003 C 
BRANCH  19  24
ATOM     24  O   UNL     1      35.024 -15.896 -20.804  0.00  0.00    -0.503 OA
ATOM     25  H   UNL     1      34.562 -16.350 -20.127  0.00  0.00    +0.292 HD
ENDBRANCH  19  24
BRANCH  18  26
ATOM     26  O   UNL     1      34.894 -13.948 -22.753  0.00  0.00    -0.476 OA
BRANCH  26  28
ATOM     27  C   UNL     1      33.911 -11.749 -22.975  0.00  0.00    +0.040 C 
ATOM     28  C   UNL     1      33.676 -13.224 -22.606  0.00  0.00    +0.166 C 
ATOM     29  C   UNL     1      32.657 -10.909 -22.698  0.00  0.00    +0.004 C 
ATOM     30  C   UNL     1      33.182 -13.372 -21.166  0.00  0.00    +0.044 C 
ATOM     31  C   UNL     1      32.174 -11.066 -21.259  0.00  0.00    +0.000 C 
ATOM     32  C   UNL     1      31.940 -12.530 -20.902  0.00  0.00    +0.004 C 
ATOM     33  C   UNL     1      34.340 -11.600 -24.437  0.00  0.00    +0.004 C 
ENDBRANCH  26  28
ENDBRANCH  18  26
ENDBRANCH   3  20
TORSDOF 5
ENDMDL
MODEL 2
REMARK VINA RESULT:     -11.8      3.203      5.880
REMARK  Name = 445849
REMARK  5 active torsions:
REMARK  status: ('A' for Active; 'I' for Inactive)
REMARK    1  A    between atoms: C_3  and  C_20
REMARK    2  A    between atoms: C_9  and  C_14
REMARK    3  A    between atoms: C_18  and  O_26
REMARK    4  A    between atoms: C_19  and  O_24
REMARK    5  A    between atoms: O_26  and  C_28
REMARK                            x       y       z     vdW  Elec       q    Type
REMARK                         _______ _______ _______ _____ _____    ______ ____
ROOT
ATOM      1  F   UNL     1      38.860 -24.243 -13.175  0.00  0.00    -0.204 F 
ATOM      2  N   UNL     1      36.297 -22.186 -16.765  0.00  0.00    -0.312 N 
ATOM      3  C   UNL     1      34.993 -22.338 -17.147  0.00  0.00    +0.051 C 
ATOM      4  C   UNL     1      35.392 -23.671 -15.367  0.00  0.00    +0.015 C 
ATOM      5  C   UNL     1      36.570 -22.989 -15.680  0.00  0.00    +0.051 C 
ATOM      6  C   UNL     1      34.406 -23.249 -16.302  0.00  0.00    +0.016 C 
ATOM      7  C   UNL     1      35.396 -24.569 -14.282  0.00  0.00    +0.006 C 
ATOM      8  C   UNL     1      37.757 -23.161 -14.958  0.00  0.00    +0.044 C 
ATOM      9  C   UNL     1      36.576 -24.751 -13.552  0.00  0.00    +0.058 C 
ATOM     10  C   UNL     1      37.737 -24.057 -13.886  0.00  0.00    +0.144 C 
ATOM     11  H   UNL     1      36.948 -21.590 -17.203  0.00  0.00    +0.152 HD
ENDROOT
BRANCH   9  14
ATOM     12  N   UNL     1      37.116 -26.961 -12.554  0.00  0.00    -0.343 N 
ATOM     13  N   UNL     1      36.071 -25.311 -11.269  0.00  0.00    -0.285 NA
ATOM     14  C   UNL     1      36.583 -25.679 -12.431  0.00  0.00    +0.119 C 
ATOM     15  H   UNL     1      37.111 -27.573 -11.783  0.00  0.00    +0.144 HD
ATOM     16  H   UNL     1      37.499 -27.254 -13.412  0.00  0.00    +0.144 HD
ATOM     17  H   UNL     1      36.074 -25.938 -10.509  0.00  0.00    +0.188 HD
ENDBRANCH   9  14
BRANCH   3  20
ATOM     18  C   UNL     1      34.686 -20.188 -20.192  0.00  0.00    +0.172 C 
ATOM     19  C   UNL     1      35.250 -20.878 -19.123  0.00  0.00    +0.169 C 
ATOM     20  C   UNL     1      34.433 -21.613 -18.264  0.00  0.00    +0.050 C 
ATOM     21  C   UNL     1      33.313 -20.227 -20.410  0.00  0.00    +0.040 C 
ATOM     22  C   UNL     1      33.056 -21.654 -18.478  0.00  0.00    +0.004 C 
ATOM     23  C   UNL     1      32.495 -20.962 -19.551  0.00  0.00    +0.003 C 
BRANCH  19  24
ATOM     24  O   UNL     1      36.601 -20.828 -18.927  0.00  0.00    -0.503 OA
ATOM     25  H   UNL     1      37.119 -20.202 -19.393  0.00  0.00    +0.292 HD
ENDBRANCH  19  24
BRANCH  18  26
ATOM     26  O   UNL     1      35.476 -19.463 -21.044  0.00  0.00    -0.476 OA
BRANCH  26  28
ATOM     27  C   UNL     1      35.238 -18.202 -23.094  0.00  0.00    +0.040 C 
ATOM     28  C   UNL     1      34.903 -18.280 -21.594  0.00  0.00    +0.166 C 
ATOM     29  C   UNL     1      34.756 -16.874 -23.694  0.00  0.00    +0.004 C 
ATOM     30  C   UNL     1      35.444 -17.067 -20.834  0.00  0.00    +0.044 C 
ATOM     31  C   UNL     1      35.300 -15.672 -22.925  0.00  0.00    +0.000 C 
ATOM     32  C   UNL     1      34.963 -15.755 -21.441  0.00  0.00    +0.004 C 
ATOM     33  C   UNL     1      34.638 -19.382 -23.863  0.00  0.00    +0.004 C 
ENDBRANCH  26  28
ENDBRANCH  18  26
ENDBRANCH   3  20
TORSDOF 5
ENDMDL
MODEL 3
REMARK VINA RESULT:     -11.6      1.371      1.933
REMARK  Name = 445849
REMARK  5 active torsions:
REMARK  status: ('A' for Active; 'I' for Inactive)
REMARK    1  A    between atoms: C_3  and  C_20
REMARK    2  A    between atoms: C_9  and  C_14
REMARK    3  A    between atoms: C_18  and  O_26
REMARK    4  A    between atoms: C_19  and  O_24
REMARK    5  A    between atoms: O_26  and  C_28
REMARK                            x       y       z     vdW  Elec       q    Type
REMARK                         _______ _______ _______ _____ _____    ______ ____
ROOT
ATOM      1  F   UNL     1      37.185 -22.731 -15.596  0.00  0.00    -0.204 F 
ATOM      2  N   UNL     1      36.192 -20.135 -19.590  0.00  0.00    -0.312 N 
ATOM      3  C   UNL     1      35.047 -20.014 -20.329  0.00  0.00    +0.051 C 
ATOM      4  C   UNL     1      34.662 -21.432 -18.613  0.00  0.00    +0.015 C 
ATOM      5  C   UNL     1      35.987 -20.996 -18.535  0.00  0.00    +0.051 C 
ATOM      6  C   UNL     1      34.082 -20.803 -19.750  0.00  0.00    +0.016 C 
ATOM      7  C   UNL     1      34.186 -22.331 -17.639  0.00  0.00    +0.006 C 
ATOM      8  C   UNL     1      36.863 -21.417 -17.528  0.00  0.00    +0.044 C 
ATOM      9  C   UNL     1      35.051 -22.761 -16.626  0.00  0.00    +0.058 C 
ATOM     10  C   UNL     1      36.368 -22.310 -16.574  0.00  0.00    +0.144 C 
ATOM     11  H   UNL     1      37.041 -19.675 -19.785  0.00  0.00    +0.152 HD
ENDROOT
BRANCH   9  14
ATOM     12  N   UNL     1      33.358 -23.473 -14.955  0.00  0.00    -0.343 N 
ATOM     13  N   UNL     1      35.270 -24.767 -15.319  0.00  0.00    -0.285 NA
ATOM     14  C   UNL     1      34.562 -23.692 -15.620  0.00  0.00    +0.119 C 
ATOM     15  H   UNL     1      33.046 -24.115 -14.277  0.00  0.00    +0.144 HD
ATOM     16  H   UNL     1      32.818 -22.676 -15.163  0.00  0.00    +0.144 HD
ATOM     17  H   UNL     1      34.941 -25.398 -14.638  0.00  0.00    +0.188 HD
ENDBRANCH   9  14
BRANCH   3  20
ATOM     18  C   UNL     1      35.085 -17.002 -22.546  0.00  0.00    +0.172 C 
ATOM     19  C   UNL     1      35.156 -17.791 -21.402  0.00  0.00    +0.169 C 
ATOM     20  C   UNL     1      34.978 -19.171 -21.500  0.00  0.00    +0.050 C 
ATOM     21  C   UNL     1      34.836 -17.579 -23.787  0.00  0.00    +0.040 C 
ATOM     22  C   UNL     1      34.727 -19.755 -22.742  0.00  0.00    +0.004 C 
ATOM     23  C   UNL     1      34.656 -18.960 -23.886  0.00  0.00    +0.003 C 
BRANCH  19  24
ATOM     24  O   UNL     1      35.403 -17.205 -20.194  0.00  0.00    -0.503 OA
ATOM     25  H   UNL     1      35.719 -17.721 -19.478  0.00  0.00    +0.292 HD
ENDBRANCH  19  24
BRANCH  18  26
ATOM     26  O   UNL     1      35.259 -15.646 -22.465  0.00  0.00    -0.476 OA
BRANCH  26  28
ATOM     27  C   UNL     1      33.960 -13.837 -23.409  0.00  0.00    +0.040 C 
ATOM     28  C   UNL     1      34.085 -14.862 -22.268  0.00  0.00    +0.166 C 
ATOM     29  C   UNL     1      32.784 -12.883 -23.161  0.00  0.00    +0.004 C 
ATOM     30  C   UNL     1      34.170 -14.177 -20.903  0.00  0.00    +0.044 C 
ATOM     31  C   UNL     1      32.879 -12.207 -21.795  0.00  0.00    +0.000 C 
ATOM     32  C   UNL     1      33.000 -13.229 -20.670  0.00  0.00    +0.004 C 
ATOM     33  C   UNL     1      33.808 -14.528 -24.767  0.00  0.00    +0.004 C 
ENDBRANCH  26  28
ENDBRANCH  18  26
ENDBRANCH   3  20
TORSDOF 5
ENDMDL
MODEL 4
REMARK VINA RESULT:     -11.5      3.164      5.736
REMARK  Name = 445849
REMARK  5 active torsions:
REMARK  status: ('A' for Active; 'I' for Inactive)
REMARK    1  A    between atoms: C_3  and  C_20
REMARK    2  A    between atoms: C_9  and  C_14
REMARK    3  A    between atoms: C_18  and  O_26
REMARK    4  A    between atoms: C_19  and  O_24
REMARK    5  A    between atoms: O_26  and  C_28
REMARK                            x       y       z     vdW  Elec       q    Type
REMARK                         _______ _______ _______ _____ _____    ______ ____
ROOT
ATOM      1  F   UNL     1      35.101 -19.375 -23.281  0.00  0.00    -0.204 F 
ATOM      2  N   UNL     1      34.230 -14.604 -23.674  0.00  0.00    -0.312 N 
ATOM      3  C   UNL     1      34.294 -13.594 -22.753  0.00  0.00    +0.051 C 
ATOM      4  C   UNL     1      34.858 -15.536 -21.747  0.00  0.00    +0.015 C 
ATOM      5  C   UNL     1      34.569 -15.802 -23.087  0.00  0.00    +0.051 C 
ATOM      6  C   UNL     1      34.680 -14.138 -21.552  0.00  0.00    +0.016 C 
ATOM      7  C   UNL     1      35.239 -16.603 -20.910  0.00  0.00    +0.006 C 
ATOM      8  C   UNL     1      34.642 -17.088 -23.634  0.00  0.00    +0.044 C 
ATOM      9  C   UNL     1      35.316 -17.895 -21.444  0.00  0.00    +0.058 C 
ATOM     10  C   UNL     1      35.022 -18.131 -22.785  0.00  0.00    +0.144 C 
ATOM     11  H   UNL     1      33.977 -14.491 -24.619  0.00  0.00    +0.152 HD
ENDROOT
BRANCH   9  14
ATOM     12  N   UNL     1      34.816 -20.021 -20.262  0.00  0.00    -0.343 N 
ATOM     13  N   UNL     1      36.931 -19.041 -20.081  0.00  0.00    -0.285 NA
ATOM     14  C   UNL     1      35.708 -18.999 -20.581  0.00  0.00    +0.119 C 
ATOM     15  H   UNL     1      35.102 -20.759 -19.676  0.00  0.00    +0.144 HD
ATOM     16  H   UNL     1      33.900 -20.006 -20.622  0.00  0.00    +0.144 HD
ATOM     17  H   UNL     1      37.198 -19.787 -19.497  0.00  0.00    +0.188 HD
ENDBRANCH   9  14
BRANCH   3  20
ATOM     18  C   UNL     1      32.774 -10.176 -22.713  0.00  0.00    +0.172 C 
ATOM     19  C   UNL     1      33.053 -11.494 -22.361  0.00  0.00    +0.169 C 
ATOM     20  C   UNL     1      33.986 -12.225 -23.097  0.00  0.00    +0.050 C 
ATOM     21  C   UNL     1      33.420  -9.583 -23.794  0.00  0.00    +0.040 C 
ATOM     22  C   UNL     1      34.635 -11.635 -24.181  0.00  0.00    +0.004 C 
ATOM     23  C   UNL     1      34.353 -10.315 -24.530  0.00  0.00    +0.003 C 
BRANCH  19  24
ATOM     24  O   UNL     1      32.410 -12.057 -21.297  0.00  0.00    -0.503 OA
ATOM     25  H   UNL     1      32.874 -12.216 -20.499  0.00  0.00    +0.292 HD
ENDBRANCH  19  24
BRANCH  18  26
ATOM     26  O   UNL     1      31.861  -9.446 -22.000  0.00  0.00    -0.476 OA
BRANCH  26  28
ATOM     27  C   UNL     1      31.834  -7.364 -20.771  0.00  0.00    +0.040 C 
ATOM     28  C   UNL     1      31.915  -8.031 -22.155  0.00  0.00    +0.166 C 
ATOM     29  C   UNL     1      31.750  -5.837 -20.903  0.00  0.00    +0.004 C 
ATOM     30  C   UNL     1      30.763  -7.588 -23.060  0.00  0.00    +0.044 C 
ATOM     31  C   UNL     1      30.600  -5.408 -21.810  0.00  0.00    +0.000 C 
ATOM     32  C   UNL     1      30.686  -6.071 -23.180  0.00  0.00    +0.004 C 
ATOM     33  C   UNL     1      33.024  -7.757 -19.891  0.00  0.00    +0.004 C 
ENDBRANCH  26  28
ENDBRANCH  18  26
ENDBRANCH   3  20
TORSDOF 5
ENDMDL
MODEL 5
REMARK VINA RESULT:     -11.1      4.476     10.650
REMARK  Name = 445849
REMARK  5 active torsions:
REMARK  status: ('A' for Active; 'I' for Inactive)
REMARK    1  A    between atoms: C_3  and  C_20
REMARK    2  A    between atoms: C_9  and  C_14
REMARK    3  A    between atoms: C_18  and  O_26
REMARK    4  A    between atoms: C_19  and  O_24
REMARK    5  A    between atoms: O_26  and  C_28
REMARK                            x       y       z     vdW  Elec       q    Type
REMARK                         _______ _______ _______ _____ _____    ______ ____
ROOT
ATOM      1  F   UNL     1      37.526 -18.012 -22.325  0.00  0.00    -0.204 F 
ATOM      2  N   UNL     1      36.050 -20.921 -18.714  0.00  0.00    -0.312 N 
ATOM      3  C   UNL     1      34.818 -21.434 -18.411  0.00  0.00    +0.051 C 
ATOM      4  C   UNL     1      34.643 -20.163 -20.270  0.00  0.00    +0.015 C 
ATOM      5  C   UNL     1      35.974 -20.140 -19.845  0.00  0.00    +0.051 C 
ATOM      6  C   UNL     1      33.927 -20.983 -19.355  0.00  0.00    +0.016 C 
ATOM      7  C   UNL     1      34.288 -19.435 -21.423  0.00  0.00    +0.006 C 
ATOM      8  C   UNL     1      36.970 -19.423 -20.518  0.00  0.00    +0.044 C 
ATOM      9  C   UNL     1      35.273 -18.713 -22.106  0.00  0.00    +0.058 C 
ATOM     10  C   UNL     1      36.593 -18.709 -21.658  0.00  0.00    +0.144 C 
ATOM     11  H   UNL     1      36.873 -21.086 -18.197  0.00  0.00    +0.152 HD
ENDROOT
BRANCH   9  14
ATOM     12  N   UNL     1      35.316 -16.640 -23.472  0.00  0.00    -0.343 N 
ATOM     13  N   UNL     1      34.169 -18.529 -24.233  0.00  0.00    -0.285 NA
ATOM     14  C   UNL     1      34.908 -17.960 -23.296  0.00  0.00    +0.119 C 
ATOM     15  H   UNL     1      35.058 -16.149 -24.285  0.00  0.00    +0.144 HD
ATOM     16  H   UNL     1      35.864 -16.198 -22.783  0.00  0.00    +0.144 HD
ATOM     17  H   UNL     1      33.920 -18.021 -25.039  0.00  0.00    +0.188 HD
ENDBRANCH   9  14
BRANCH   3  20
ATOM     18  C   UNL     1      35.285 -23.145 -15.118  0.00  0.00    +0.172 C 
ATOM     19  C   UNL     1      35.513 -22.309 -16.207  0.00  0.00    +0.169 C 
ATOM     20  C   UNL     1      34.607 -22.291 -17.268  0.00  0.00    +0.050 C 
ATOM     21  C   UNL     1      34.161 -23.963 -15.079  0.00  0.00    +0.040 C 
ATOM     22  C   UNL     1      33.479 -23.110 -17.234  0.00  0.00    +0.004 C 
ATOM     23  C   UNL     1      33.255 -23.946 -16.140  0.00  0.00    +0.003 C 
BRANCH  19  24
ATOM     24  O   UNL     1      36.622 -21.513 -16.225  0.00  0.00    -0.503 OA
ATOM     25  H   UNL     1      37.420 -21.829 -16.599  0.00  0.00    +0.292 HD
ENDBRANCH  19  24
BRANCH  18  26
ATOM     26  O   UNL     1      36.165 -23.172 -14.069  0.00  0.00    -0.476 OA
BRANCH  26  28
ATOM     27  C   UNL     1      36.991 -24.611 -12.308  0.00  0.00    +0.040 C 
ATOM     28  C   UNL     1      36.830 -24.409 -13.825  0.00  0.00    +0.166 C 
ATOM     29  C   UNL     1      37.823 -25.865 -12.008  0.00  0.00    +0.004 C 
ATOM     30  C   UNL     1      38.184 -24.393 -14.537  0.00  0.00    +0.044 C 
ATOM     31  C   UNL     1      39.170 -25.838 -12.726  0.00  0.00    +0.000 C 
ATOM     32  C   UNL     1      39.003 -25.640 -14.228  0.00  0.00    +0.004 C 
ATOM     33  C   UNL     1      35.631 -24.694 -11.609  0.00  0.00    +0.004 C 
ENDBRANCH  26  28
ENDBRANCH  18  26
ENDBRANCH   3  20
TORSDOF 5
ENDMDL
MODEL 6
REMARK VINA RESULT:     -10.9      5.432     10.221
REMARK  Name = 445849
REMARK  5 active torsions:
REMARK  status: ('A' for Active; 'I' for Inactive)
REMARK    1  A    between atoms: C_3  and  C_20
REMARK    2  A    between atoms: C_9  and  C_14
REMARK    3  A    between atoms: C_18  and  O_26
REMARK    4  A    between atoms: C_19  and  O_24
REMARK    5  A    between atoms: O_26  and  C_28
REMARK                            x       y       z     vdW  Elec       q    Type
REMARK                         _______ _______ _______ _____ _____    ______ ____
ROOT
ATOM      1  F   UNL     1      31.218  -7.692 -19.163  0.00  0.00    -0.204 F 
ATOM      2  N   UNL     1      32.702 -11.489 -21.821  0.00  0.00    -0.312 N 
ATOM      3  C   UNL     1      33.144 -11.571 -23.113  0.00  0.00    +0.051 C 
ATOM      4  C   UNL     1      32.649  -9.417 -22.646  0.00  0.00    +0.015 C 
ATOM      5  C   UNL     1      32.391 -10.184 -21.508  0.00  0.00    +0.051 C 
ATOM      6  C   UNL     1      33.124 -10.306 -23.650  0.00  0.00    +0.016 C 
ATOM      7  C   UNL     1      32.414  -8.028 -22.595  0.00  0.00    +0.006 C 
ATOM      8  C   UNL     1      31.907  -9.631 -20.317  0.00  0.00    +0.044 C 
ATOM      9  C   UNL     1      31.930  -7.461 -21.411  0.00  0.00    +0.058 C 
ATOM     10  C   UNL     1      31.681  -8.252 -20.291  0.00  0.00    +0.144 C 
ATOM     11  H   UNL     1      32.616 -12.252 -21.204  0.00  0.00    +0.152 HD
ENDROOT
BRANCH   9  14
ATOM     12  N   UNL     1      30.415  -5.501 -21.582  0.00  0.00    -0.343 N 
ATOM     13  N   UNL     1      32.682  -5.200 -21.094  0.00  0.00    -0.285 NA
ATOM     14  C   UNL     1      31.685  -6.028 -21.356  0.00  0.00    +0.119 C 
ATOM     15  H   UNL     1      30.272  -4.527 -21.540  0.00  0.00    +0.144 HD
ATOM     16  H   UNL     1      29.661  -6.101 -21.782  0.00  0.00    +0.144 HD
ATOM     17  H   UNL     1      32.518  -4.230 -21.057  0.00  0.00    +0.188 HD
ENDBRANCH   9  14
BRANCH   3  20
ATOM     18  C   UNL     1      34.746 -14.912 -23.625  0.00  0.00    +0.172 C 
ATOM     19  C   UNL     1      34.381 -13.708 -23.029  0.00  0.00    +0.169 C 
ATOM     20  C   UNL     1      33.539 -12.826 -23.708  0.00  0.00    +0.050 C 
ATOM     21  C   UNL     1      34.279 -15.241 -24.894  0.00  0.00    +0.040 C 
ATOM     22  C   UNL     1      33.069 -13.152 -24.980  0.00  0.00    +0.004 C 
ATOM     23  C   UNL     1      33.438 -14.359 -25.573  0.00  0.00    +0.003 C 
BRANCH  19  24
ATOM     24  O   UNL     1      34.849 -13.404 -21.783  0.00  0.00    -0.503 OA
ATOM     25  H   UNL     1      34.788 -14.035 -21.093  0.00  0.00    +0.292 HD
ENDBRANCH  19  24
BRANCH  18  26
ATOM     26  O   UNL     1      35.571 -15.787 -22.971  0.00  0.00    -0.476 OA
BRANCH  26  28
ATOM     27  C   UNL     1      35.466 -17.244 -21.042  0.00  0.00    +0.040 C 
ATOM     28  C   UNL     1      34.970 -16.981 -22.475  0.00  0.00    +0.166 C 
ATOM     29  C   UNL     1      34.949 -18.593 -20.524  0.00  0.00    +0.004 C 
ATOM     30  C   UNL     1      35.322 -18.138 -23.413  0.00  0.00    +0.044 C 
ATOM     31  C   UNL     1      35.304 -19.738 -21.469  0.00  0.00    +0.000 C 
ATOM     32  C   UNL     1      34.809 -19.472 -22.886  0.00  0.00    +0.004 C 
ATOM     33  C   UNL     1      35.053 -16.115 -20.093  0.00  0.00    +0.004 C 
ENDBRANCH  26  28
ENDBRANCH  18  26
ENDBRANCH   3  20
TORSDOF 5
ENDMDL
MODEL 7
REMARK VINA RESULT:     -10.9      4.033      7.031
REMARK  Name = 445849
REMARK  5 active torsions:
REMARK  status: ('A' for Active; 'I' for Inactive)
REMARK    1  A    between atoms: C_3  and  C_20
REMARK    2  A    between atoms: C_9  and  C_14
REMARK    3  A    between atoms: C_18  and  O_26
REMARK    4  A    between atoms: C_19  and  O_24
REMARK    5  A    between atoms: O_26  and  C_28
REMARK                            x       y       z     vdW  Elec       q    Type
REMARK                         _______ _______ _______ _____ _____    ______ ____
ROOT
ATOM      1  F   UNL     1      34.835 -17.482 -25.017  0.00  0.00    -0.204 F 
ATOM      2  N   UNL     1      33.110 -13.329 -23.158  0.00  0.00    -0.312 N 
ATOM      3  C   UNL     1      33.151 -12.821 -21.888  0.00  0.00    +0.051 C 
ATOM      4  C   UNL     1      34.195 -14.824 -21.906  0.00  0.00    +0.015 C 
ATOM      5  C   UNL     1      33.740 -14.553 -23.199  0.00  0.00    +0.051 C 
ATOM      6  C   UNL     1      33.816 -13.722 -21.091  0.00  0.00    +0.016 C 
ATOM      7  C   UNL     1      34.885 -16.030 -21.669  0.00  0.00    +0.006 C 
ATOM      8  C   UNL     1      33.941 -15.431 -24.270  0.00  0.00    +0.044 C 
ATOM      9  C   UNL     1      35.092 -16.917 -22.731  0.00  0.00    +0.058 C 
ATOM     10  C   UNL     1      34.627 -16.621 -24.010  0.00  0.00    +0.144 C 
ATOM     11  H   UNL     1      32.690 -12.885 -23.930  0.00  0.00    +0.152 HD
ENDROOT
BRANCH   9  14
ATOM     12  N   UNL     1      37.143 -18.172 -22.105  0.00  0.00    -0.343 N 
ATOM     13  N   UNL     1      35.176 -19.318 -22.636  0.00  0.00    -0.285 NA
ATOM     14  C   UNL     1      35.803 -18.164 -22.488  0.00  0.00    +0.119 C 
ATOM     15  H   UNL     1      37.604 -19.027 -21.946  0.00  0.00    +0.144 HD
ATOM     16  H   UNL     1      37.627 -17.322 -21.992  0.00  0.00    +0.144 HD
ATOM     17  H   UNL     1      35.655 -20.163 -22.473  0.00  0.00    +0.188 HD
ENDBRANCH   9  14
BRANCH   3  20
ATOM     18  C   UNL     1      32.308  -9.177 -21.935  0.00  0.00    +0.172 C 
ATOM     19  C   UNL     1      32.889 -10.395 -22.275  0.00  0.00    +0.169 C 
ATOM     20  C   UNL     1      32.562 -11.545 -21.556  0.00  0.00    +0.050 C 
ATOM     21  C   UNL     1      31.402  -9.099 -20.881  0.00  0.00    +0.040 C 
ATOM     22  C   UNL     1      31.656 -11.470 -20.499  0.00  0.00    +0.004 C 
ATOM     23  C   UNL     1      31.075 -10.248 -20.161  0.00  0.00    +0.003 C 
BRANCH  19  24
ATOM     24  O   UNL     1      33.775 -10.452 -23.313  0.00  0.00    -0.503 OA
ATOM     25  H   UNL     1      34.000  -9.671 -23.780  0.00  0.00    +0.292 HD
ENDBRANCH  19  24
BRANCH  18  26
ATOM     26  O   UNL     1      32.619  -8.041 -22.632  0.00  0.00    -0.476 OA
BRANCH  26  28
ATOM     27  C   UNL     1      31.457  -6.102 -23.492  0.00  0.00    +0.040 C 
ATOM     28  C   UNL     1      31.949  -6.847 -22.239  0.00  0.00    +0.166 C 
ATOM     29  C   UNL     1      30.851  -4.742 -23.118  0.00  0.00    +0.004 C 
ATOM     30  C   UNL     1      32.911  -5.988 -21.416  0.00  0.00    +0.044 C 
ATOM     31  C   UNL     1      31.820  -3.896 -22.295  0.00  0.00    +0.000 C 
ATOM     32  C   UNL     1      32.302  -4.639 -21.055  0.00  0.00    +0.004 C 
ATOM     33  C   UNL     1      30.443  -6.938 -24.277  0.00  0.00    +0.004 C 
ENDBRANCH  26  28
ENDBRANCH  18  26
ENDBRANCH   3  20
TORSDOF 5
ENDMDL
MODEL 8
REMARK VINA RESULT:     -10.9      7.527     12.672
REMARK  Name = 445849
REMARK  5 active torsions:
REMARK  status: ('A' for Active; 'I' for Inactive)
REMARK    1  A    between atoms: C_3  and  C_20
REMARK    2  A    between atoms: C_9  and  C_14
REMARK    3  A    between atoms: C_18  and  O_26
REMARK    4  A    between atoms: C_19  and  O_24
REMARK    5  A    between atoms: O_26  and  C_28
REMARK                            x       y       z     vdW  Elec       q    Type
REMARK                         _______ _______ _______ _____ _____    ______ ____
ROOT
ATOM      1  F   UNL     1      31.248  -3.241 -24.612  0.00  0.00    -0.204 F 
ATOM      2  N   UNL     1      31.757  -7.875 -23.220  0.00  0.00    -0.312 N 
ATOM      3  C   UNL     1      31.739  -8.455 -21.980  0.00  0.00    +0.051 C 
ATOM      4  C   UNL     1      31.425  -6.230 -21.750  0.00  0.00    +0.015 C 
ATOM      5  C   UNL     1      31.568  -6.516 -23.110  0.00  0.00    +0.051 C 
ATOM      6  C   UNL     1      31.534  -7.464 -21.051  0.00  0.00    +0.016 C 
ATOM      7  C   UNL     1      31.216  -4.893 -21.357  0.00  0.00    +0.006 C 
ATOM      8  C   UNL     1      31.513  -5.528 -24.100  0.00  0.00    +0.044 C 
ATOM      9  C   UNL     1      31.159  -3.895 -22.336  0.00  0.00    +0.058 C 
ATOM     10  C   UNL     1      31.306  -4.209 -23.686  0.00  0.00    +0.144 C 
ATOM     11  H   UNL     1      31.888  -8.360 -24.067  0.00  0.00    +0.152 HD
ENDROOT
BRANCH   9  14
ATOM     12  N   UNL     1      29.731  -1.870 -22.166  0.00  0.00    -0.343 N 
ATOM     13  N   UNL     1      31.917  -1.844 -21.336  0.00  0.00    -0.285 NA
ATOM     14  C   UNL     1      30.945  -2.513 -21.932  0.00  0.00    +0.119 C 
ATOM     15  H   UNL     1      29.608  -0.935 -21.884  0.00  0.00    +0.144 HD
ATOM     16  H   UNL     1      28.997  -2.351 -22.611  0.00  0.00    +0.144 HD
ATOM     17  H   UNL     1      31.774  -0.909 -21.063  0.00  0.00    +0.188 HD
ENDBRANCH   9  14
BRANCH   3  20
ATOM     18  C   UNL     1      33.055 -11.942 -22.298  0.00  0.00    +0.172 C 
ATOM     19  C   UNL     1      32.906 -10.571 -22.492  0.00  0.00    +0.169 C 
ATOM     20  C   UNL     1      31.915  -9.877 -21.798  0.00  0.00    +0.050 C 
ATOM     21  C   UNL     1      32.221 -12.624 -21.418  0.00  0.00    +0.040 C 
ATOM     22  C   UNL     1      31.076 -10.557 -20.916  0.00  0.00    +0.004 C 
ATOM     23  C   UNL     1      31.228 -11.930 -20.725  0.00  0.00    +0.003 C 
BRANCH  19  24
ATOM     24  O   UNL     1      33.736  -9.920 -23.359  0.00  0.00    -0.503 OA
ATOM     25  H   UNL     1      33.376  -9.405 -24.055  0.00  0.00    +0.292 HD
ENDBRANCH  19  24
BRANCH  18  26
ATOM     26  O   UNL     1      34.024 -12.636 -22.972  0.00  0.00    -0.476 OA
BRANCH  26  28
ATOM     27  C   UNL     1      34.872 -14.886 -22.712  0.00  0.00    +0.040 C 
ATOM     28  C   UNL     1      33.743 -14.001 -23.268  0.00  0.00    +0.166 C 
ATOM     29  C   UNL     1      34.675 -16.350 -23.130  0.00  0.00    +0.004 C 
ATOM     30  C   UNL     1      33.599 -14.159 -24.783  0.00  0.00    +0.044 C 
ATOM     31  C   UNL     1      34.531 -16.494 -24.642  0.00  0.00    +0.000 C 
ATOM     32  C   UNL     1      33.410 -15.616 -25.187  0.00  0.00    +0.004 C 
ATOM     33  C   UNL     1      34.968 -14.777 -21.188  0.00  0.00    +0.004 C 
ENDBRANCH  26  28
ENDBRANCH  18  26
ENDBRANCH   3  20
TORSDOF 5
ENDMDL
MODEL 9
REMARK VINA RESULT:     -10.9      4.500      9.369
REMARK  Name = 445849
REMARK  5 active torsions:
REMARK  status: ('A' for Active; 'I' for Inactive)
REMARK    1  A    between atoms: C_3  and  C_20
REMARK    2  A    between atoms: C_9  and  C_14
REMARK    3  A    between atoms: C_18  and  O_26
REMARK    4  A    between atoms: C_19  and  O_24
REMARK    5  A    between atoms: O_26  and  C_28
REMARK                            x       y       z     vdW  Elec       q    Type
REMARK                         _______ _______ _______ _____ _____    ______ ____
ROOT
ATOM      1  F   UNL     1      31.220  -9.502 -20.465  0.00  0.00    -0.204 F 
ATOM      2  N   UNL     1      32.896 -13.807 -21.995  0.00  0.00    -0.312 N 
ATOM      3  C   UNL     1      33.719 -14.139 -23.036  0.00  0.00    +0.051 C 
ATOM      4  C   UNL     1      33.432 -11.898 -23.019  0.00  0.00    +0.015 C 
ATOM      5  C   UNL     1      32.702 -12.444 -21.960  0.00  0.00    +0.051 C 
ATOM      6  C   UNL     1      34.068 -12.981 -23.688  0.00  0.00    +0.016 C 
ATOM      7  C   UNL     1      33.407 -10.503 -23.211  0.00  0.00    +0.006 C 
ATOM      8  C   UNL     1      31.946 -11.660 -21.081  0.00  0.00    +0.044 C 
ATOM      9  C   UNL     1      32.655  -9.707 -22.340  0.00  0.00    +0.058 C 
ATOM     10  C   UNL     1      31.936 -10.279 -21.292  0.00  0.00    +0.144 C 
ATOM     11  H   UNL     1      32.498 -14.449 -21.363  0.00  0.00    +0.152 HD
ENDROOT
BRANCH   9  14
ATOM     12  N   UNL     1      31.612  -7.655 -23.272  0.00  0.00    -0.343 N 
ATOM     13  N   UNL     1      33.580  -7.512 -22.020  0.00  0.00    -0.285 NA
ATOM     14  C   UNL     1      32.626  -8.266 -22.538  0.00  0.00    +0.119 C 
ATOM     15  H   UNL     1      31.612  -6.678 -23.394  0.00  0.00    +0.144 HD
ATOM     16  H   UNL     1      30.894  -8.200 -23.669  0.00  0.00    +0.144 HD
ATOM     17  H   UNL     1      33.563  -6.536 -22.152  0.00  0.00    +0.188 HD
ENDBRANCH   9  14
BRANCH   3  20
ATOM     18  C   UNL     1      35.161 -17.571 -22.669  0.00  0.00    +0.172 C 
ATOM     19  C   UNL     1      34.814 -16.254 -22.380  0.00  0.00    +0.169 C 
ATOM     20  C   UNL     1      34.091 -15.507 -23.311  0.00  0.00    +0.050 C 
ATOM     21  C   UNL     1      34.791 -18.147 -23.880  0.00  0.00    +0.040 C 
ATOM     22  C   UNL     1      33.720 -16.081 -24.526  0.00  0.00    +0.004 C 
ATOM     23  C   UNL     1      34.068 -17.401 -24.812  0.00  0.00    +0.003 C 
BRANCH  19  24
ATOM     24  O   UNL     1      35.185 -15.707 -21.185  0.00  0.00    -0.503 OA
ATOM     25  H   UNL     1      35.574 -16.245 -20.524  0.00  0.00    +0.292 HD
ENDBRANCH  19  24
BRANCH  18  26
ATOM     26  O   UNL     1      35.869 -18.315 -21.765  0.00  0.00    -0.476 OA
BRANCH  26  28
ATOM     27  C   UNL     1      35.876 -20.180 -20.224  0.00  0.00    +0.040 C 
ATOM     28  C   UNL     1      35.121 -18.935 -20.722  0.00  0.00    +0.166 C 
ATOM     29  C   UNL     1      35.038 -20.952 -19.195  0.00  0.00    +0.004 C 
ATOM     30  C   UNL     1      33.733 -19.295 -21.255  0.00  0.00    +0.044 C 
ATOM     31  C   UNL     1      33.656 -21.303 -19.738  0.00  0.00    +0.000 C 
ATOM     32  C   UNL     1      32.913 -20.065 -20.228  0.00  0.00    +0.004 C 
ATOM     33  C   UNL     1      37.237 -19.808 -19.630  0.00  0.00    +0.004 C 
ENDBRANCH  26  28
ENDBRANCH  18  26
ENDBRANCH   3  20
TORSDOF 5
ENDMDL
