MODEL 1
REMARK VINA RESULT:     -12.2      0.000      0.000
REMARK  Name = 5326869
REMARK  6 active torsions:
REMARK  status: ('A' for Active; 'I' for Inactive)
REMARK    1  A    between atoms: N_2  and  C_11
REMARK    2  A    between atoms: C_3  and  C_25
REMARK    3  A    between atoms: N_5  and  C_14
REMARK    4  A    between atoms: C_14  and  C_15
REMARK    5  A    between atoms: C_15  and  C_17
REMARK    6  A    between atoms: C_23  and  N_30
REMARK                            x       y       z     vdW  Elec       q    Type
REMARK                         _______ _______ _______ _____ _____    ______ ____
ROOT
ATOM      1  O   UNL     1      36.468 -18.398 -20.009  0.00  0.00    -0.270 OA
ATOM      2  N   UNL     1      35.268 -20.413 -20.164  0.00  0.00    -0.280 N 
ATOM      3  C   UNL     1      35.721 -19.163 -20.607  0.00  0.00    +0.250 C 
ATOM      4  H   UNL     1      34.669 -20.897 -20.778  0.00  0.00    +0.155 HD
ENDROOT
BRANCH   2  11
ATOM      5  N   UNL     1      34.111 -23.112 -16.217  0.00  0.00    -0.286 N 
ATOM      6  C   UNL     1      34.888 -22.375 -17.083  0.00  0.00    +0.053 C 
ATOM      7  C   UNL     1      36.177 -22.341 -16.550  0.00  0.00    +0.015 C 
ATOM      8  C   UNL     1      34.864 -23.542 -15.157  0.00  0.00    +0.065 C 
ATOM      9  C   UNL     1      34.549 -21.743 -18.285  0.00  0.00    +0.029 C 
ATOM     10  C   UNL     1      36.148 -23.081 -15.335  0.00  0.00    +0.017 C 
ATOM     11  C   UNL     1      35.562 -21.056 -18.961  0.00  0.00    +0.052 C 
ATOM     12  C   UNL     1      37.182 -21.642 -17.250  0.00  0.00    +0.003 C 
ATOM     13  C   UNL     1      36.858 -21.006 -18.453  0.00  0.00    +0.015 C 
BRANCH   5  14
ATOM     14  C   UNL     1      32.703 -23.399 -16.386  0.00  0.00    +0.100 C 
BRANCH  14  15
ATOM     15  C   UNL     1      31.865 -23.112 -15.136  0.00  0.00    +0.048 C 
BRANCH  15  17
ATOM     16  N   UNL     1      27.681 -23.852 -15.687  0.00  0.00    -0.242 NA
ATOM     17  C   UNL     1      30.392 -23.372 -15.329  0.00  0.00    -0.017 C 
ATOM     18  C   UNL     1      29.647 -22.516 -16.118  0.00  0.00    +0.016 C 
ATOM     19  C   UNL     1      29.808 -24.464 -14.716  0.00  0.00    +0.016 C 
ATOM     20  C   UNL     1      28.299 -22.798 -16.265  0.00  0.00    +0.099 C 
ATOM     21  C   UNL     1      28.452 -24.659 -14.925  0.00  0.00    +0.099 C 
ENDBRANCH  15  17
ENDBRANCH  14  15
ENDBRANCH   5  14
ENDBRANCH   2  11
BRANCH   3  25
ATOM     22  F   UNL     1      34.310 -20.192 -25.117  0.00  0.00    -0.204 F 
ATOM     23  C   UNL     1      34.466 -16.993 -23.391  0.00  0.00    +0.050 C 
ATOM     24  C   UNL     1      34.949 -17.396 -22.147  0.00  0.00    +0.019 C 
ATOM     25  C   UNL     1      35.207 -18.733 -21.934  0.00  0.00    +0.057 C 
ATOM     26  C   UNL     1      34.250 -17.937 -24.394  0.00  0.00    +0.044 C 
ATOM     27  C   UNL     1      35.002 -19.687 -22.909  0.00  0.00    +0.034 C 
ATOM     28  C   UNL     1      34.518 -19.285 -24.154  0.00  0.00    +0.142 C 
BRANCH  23  30
ATOM     29  O   UNL     1      33.890 -12.920 -24.266  0.00  0.00    -0.350 OA
ATOM     30  N   UNL     1      34.196 -15.642 -23.633  0.00  0.00    -0.303 N 
ATOM     31  C   UNL     1      34.809 -14.610 -22.788  0.00  0.00    +0.123 C 
ATOM     32  C   UNL     1      33.905 -15.228 -25.013  0.00  0.00    +0.123 C 
ATOM     33  C   UNL     1      34.015 -13.314 -22.900  0.00  0.00    +0.164 C 
ATOM     34  C   UNL     1      33.159 -13.899 -25.006  0.00  0.00    +0.164 C 
ENDBRANCH  23  30
ENDBRANCH   3  25
TORSDOF 6
ENDMDL
MODEL 2
REMARK VINA RESULT:     -12.1      3.222     10.298
REMARK  Name = 5326869
REMARK  6 active torsions:
REMARK  status: ('A' for Active; 'I' for Inactive)
REMARK    1  A    between atoms: N_2  and  C_11
REMARK    2  A    between atoms: C_3  and  C_25
REMARK    3  A    between atoms: N_5  and  C_14
REMARK    4  A    between atoms: C_14  and  C_15
REMARK    5  A    between atoms: C_15  and  C_17
REMARK    6  A    between atoms: C_23  and  N_30
REMARK                            x       y       z     vdW  Elec       q    Type
REMARK                         _______ _______ _______ _____ _____    ______ ____
ROOT
ATOM      1  O   UNL     1      32.798 -21.247 -19.920  0.00  0.00    -0.270 OA
ATOM      2  N   UNL     1      34.895 -20.190 -19.803  0.00  0.00    -0.280 N 
ATOM      3  C   UNL     1      33.881 -21.058 -19.377  0.00  0.00    +0.250 C 
ATOM      4  H   UNL     1      35.703 -20.163 -19.242  0.00  0.00    +0.155 HD
ENDROOT
BRANCH   2  11
ATOM      5  N   UNL     1      34.927 -15.804 -22.032  0.00  0.00    -0.286 N 
ATOM      6  C   UNL     1      34.916 -17.175 -21.900  0.00  0.00    +0.053 C 
ATOM      7  C   UNL     1      34.908 -17.711 -23.189  0.00  0.00    +0.015 C 
ATOM      8  C   UNL     1      34.927 -15.458 -23.357  0.00  0.00    +0.065 C 
ATOM      9  C   UNL     1      34.910 -17.971 -20.749  0.00  0.00    +0.029 C 
ATOM     10  C   UNL     1      34.917 -16.617 -24.098  0.00  0.00    +0.017 C 
ATOM     11  C   UNL     1      34.898 -19.358 -20.924  0.00  0.00    +0.052 C 
ATOM     12  C   UNL     1      34.897 -19.113 -23.339  0.00  0.00    +0.003 C 
ATOM     13  C   UNL     1      34.892 -19.922 -22.198  0.00  0.00    +0.015 C 
BRANCH   5  14
ATOM     14  C   UNL     1      34.939 -14.854 -20.941  0.00  0.00    +0.100 C 
BRANCH  14  15
ATOM     15  C   UNL     1      33.546 -14.553 -20.377  0.00  0.00    +0.048 C 
BRANCH  15  17
ATOM     16  N   UNL     1      31.986 -10.764 -21.630  0.00  0.00    -0.242 NA
ATOM     17  C   UNL     1      32.996 -13.220 -20.819  0.00  0.00    -0.017 C 
ATOM     18  C   UNL     1      32.089 -12.558 -20.014  0.00  0.00    +0.016 C 
ATOM     19  C   UNL     1      33.409 -12.678 -22.022  0.00  0.00    +0.016 C 
ATOM     20  C   UNL     1      31.614 -11.336 -20.464  0.00  0.00    +0.099 C 
ATOM     21  C   UNL     1      32.875 -11.451 -22.381  0.00  0.00    +0.099 C 
ENDBRANCH  15  17
ENDBRANCH  14  15
ENDBRANCH   5  14
ENDBRANCH   2  11
BRANCH   3  25
ATOM     22  F   UNL     1      36.998 -22.755 -16.093  0.00  0.00    -0.204 F 
ATOM     23  C   UNL     1      33.372 -23.020 -16.225  0.00  0.00    +0.050 C 
ATOM     24  C   UNL     1      33.107 -22.328 -17.407  0.00  0.00    +0.019 C 
ATOM     25  C   UNL     1      34.162 -21.797 -18.119  0.00  0.00    +0.057 C 
ATOM     26  C   UNL     1      34.686 -23.164 -15.782  0.00  0.00    +0.044 C 
ATOM     27  C   UNL     1      35.471 -21.926 -17.701  0.00  0.00    +0.034 C 
ATOM     28  C   UNL     1      35.736 -22.618 -16.520  0.00  0.00    +0.142 C 
BRANCH  23  30
ATOM     29  O   UNL     1      30.163 -24.416 -13.894  0.00  0.00    -0.350 OA
ATOM     30  N   UNL     1      32.319 -23.568 -15.485  0.00  0.00    -0.303 N 
ATOM     31  C   UNL     1      32.544 -23.998 -14.100  0.00  0.00    +0.123 C 
ATOM     32  C   UNL     1      30.953 -23.122 -15.788  0.00  0.00    +0.123 C 
ATOM     33  C   UNL     1      31.456 -24.982 -13.684  0.00  0.00    +0.164 C 
ATOM     34  C   UNL     1      29.950 -24.152 -15.282  0.00  0.00    +0.164 C 
ENDBRANCH  23  30
ENDBRANCH   3  25
TORSDOF 6
ENDMDL
MODEL 3
REMARK VINA RESULT:     -11.8      3.512     10.358
REMARK  Name = 5326869
REMARK  6 active torsions:
REMARK  status: ('A' for Active; 'I' for Inactive)
REMARK    1  A    between atoms: N_2  and  C_11
REMARK    2  A    between atoms: C_3  and  C_25
REMARK    3  A    between atoms: N_5  and  C_14
REMARK    4  A    between atoms: C_14  and  C_15
REMARK    5  A    between atoms: C_15  and  C_17
REMARK    6  A    between atoms: C_23  and  N_30
REMARK                            x       y       z     vdW  Elec       q    Type
REMARK                         _______ _______ _______ _____ _____    ______ ____
ROOT
ATOM      1  O   UNL     1      36.662 -21.045 -19.655  0.00  0.00    -0.270 OA
ATOM      2  N   UNL     1      34.532 -20.077 -19.894  0.00  0.00    -0.280 N 
ATOM      3  C   UNL     1      35.492 -20.915 -19.310  0.00  0.00    +0.250 C 
ATOM      4  H   UNL     1      33.636 -20.099 -19.486  0.00  0.00    +0.155 HD
ENDROOT
BRANCH   2  11
ATOM      5  N   UNL     1      34.964 -15.638 -21.969  0.00  0.00    -0.286 N 
ATOM      6  C   UNL     1      34.892 -17.010 -21.882  0.00  0.00    +0.053 C 
ATOM      7  C   UNL     1      35.011 -17.511 -23.179  0.00  0.00    +0.015 C 
ATOM      8  C   UNL     1      35.125 -15.256 -23.274  0.00  0.00    +0.065 C 
ATOM      9  C   UNL     1      34.730 -17.836 -20.763  0.00  0.00    +0.029 C 
ATOM     10  C   UNL     1      35.158 -16.394 -24.047  0.00  0.00    +0.017 C 
ATOM     11  C   UNL     1      34.690 -19.217 -20.981  0.00  0.00    +0.052 C 
ATOM     12  C   UNL     1      34.969 -18.907 -23.373  0.00  0.00    +0.003 C 
ATOM     13  C   UNL     1      34.808 -19.745 -22.265  0.00  0.00    +0.015 C 
BRANCH   5  14
ATOM     14  C   UNL     1      34.886 -14.718 -20.855  0.00  0.00    +0.100 C 
BRANCH  14  15
ATOM     15  C   UNL     1      33.452 -14.441 -20.392  0.00  0.00    +0.048 C 
BRANCH  15  17
ATOM     16  N   UNL     1      31.955 -10.637 -21.677  0.00  0.00    -0.242 NA
ATOM     17  C   UNL     1      32.924 -13.103 -20.844  0.00  0.00    -0.017 C 
ATOM     18  C   UNL     1      32.031 -12.417 -20.044  0.00  0.00    +0.016 C 
ATOM     19  C   UNL     1      33.343 -12.579 -22.053  0.00  0.00    +0.016 C 
ATOM     20  C   UNL     1      31.576 -11.191 -20.503  0.00  0.00    +0.099 C 
ATOM     21  C   UNL     1      32.830 -11.347 -22.423  0.00  0.00    +0.099 C 
ENDBRANCH  15  17
ENDBRANCH  14  15
ENDBRANCH   5  14
ENDBRANCH   2  11
BRANCH   3  25
ATOM     22  F   UNL     1      31.941 -23.246 -17.001  0.00  0.00    -0.204 F 
ATOM     23  C   UNL     1      35.455 -22.894 -16.129  0.00  0.00    +0.050 C 
ATOM     24  C   UNL     1      35.908 -22.118 -17.196  0.00  0.00    +0.019 C 
ATOM     25  C   UNL     1      35.011 -21.740 -18.172  0.00  0.00    +0.057 C 
ATOM     26  C   UNL     1      34.116 -23.275 -16.063  0.00  0.00    +0.044 C 
ATOM     27  C   UNL     1      33.680 -22.103 -18.130  0.00  0.00    +0.034 C 
ATOM     28  C   UNL     1      33.227 -22.880 -17.063  0.00  0.00    +0.142 C 
BRANCH  23  30
ATOM     29  O   UNL     1      38.138 -23.823 -13.027  0.00  0.00    -0.350 OA
ATOM     30  N   UNL     1      36.345 -23.291 -15.126  0.00  0.00    -0.303 N 
ATOM     31  C   UNL     1      37.792 -23.151 -15.333  0.00  0.00    +0.123 C 
ATOM     32  C   UNL     1      35.902 -23.198 -13.728  0.00  0.00    +0.123 C 
ATOM     33  C   UNL     1      38.540 -24.070 -14.374  0.00  0.00    +0.164 C 
ATOM     34  C   UNL     1      36.751 -24.115 -12.856  0.00  0.00    +0.164 C 
ENDBRANCH  23  30
ENDBRANCH   3  25
TORSDOF 6
ENDMDL
MODEL 4
REMARK VINA RESULT:     -11.8      4.981      9.587
REMARK  Name = 5326869
REMARK  6 active torsions:
REMARK  status: ('A' for Active; 'I' for Inactive)
REMARK    1  A    between atoms: N_2  and  C_11
REMARK    2  A    between atoms: C_3  and  C_25
REMARK    3  A    between atoms: N_5  and  C_14
REMARK    4  A    between atoms: C_14  and  C_15
REMARK    5  A    between atoms: C_15  and  C_17
REMARK    6  A    between atoms: C_23  and  N_30
REMARK                            x       y       z     vdW  Elec       q    Type
REMARK                         _______ _______ _______ _____ _____    ______ ____
ROOT
ATOM      1  O   UNL     1      31.540 -12.447 -21.200  0.00  0.00    -0.270 OA
ATOM      2  N   UNL     1      33.180 -11.912 -22.797  0.00  0.00    -0.280 N 
ATOM      3  C   UNL     1      32.268 -11.641 -21.768  0.00  0.00    +0.250 C 
ATOM      4  H   UNL     1      33.686 -11.140 -23.140  0.00  0.00    +0.155 HD
ENDROOT
BRANCH   2  11
ATOM      5  N   UNL     1      34.848 -16.540 -22.783  0.00  0.00    -0.286 N 
ATOM      6  C   UNL     1      34.295 -15.379 -23.274  0.00  0.00    +0.053 C 
ATOM      7  C   UNL     1      34.004 -15.600 -24.622  0.00  0.00    +0.015 C 
ATOM      8  C   UNL     1      34.915 -17.485 -23.772  0.00  0.00    +0.065 C 
ATOM      9  C   UNL     1      34.035 -14.161 -22.634  0.00  0.00    +0.029 C 
ATOM     10  C   UNL     1      34.400 -16.933 -24.922  0.00  0.00    +0.017 C 
ATOM     11  C   UNL     1      33.458 -13.141 -23.397  0.00  0.00    +0.052 C 
ATOM     12  C   UNL     1      33.422 -14.556 -25.369  0.00  0.00    +0.003 C 
ATOM     13  C   UNL     1      33.156 -13.334 -24.743  0.00  0.00    +0.015 C 
BRANCH   5  14
ATOM     14  C   UNL     1      35.296 -16.749 -21.423  0.00  0.00    +0.100 C 
BRANCH  14  15
ATOM     15  C   UNL     1      36.284 -17.911 -21.277  0.00  0.00    +0.048 C 
BRANCH  15  17
ATOM     16  N   UNL     1      34.622 -21.313 -19.270  0.00  0.00    -0.242 NA
ATOM     17  C   UNL     1      35.699 -19.109 -20.572  0.00  0.00    -0.017 C 
ATOM     18  C   UNL     1      36.535 -19.971 -19.887  0.00  0.00    +0.016 C 
ATOM     19  C   UNL     1      34.335 -19.327 -20.617  0.00  0.00    +0.016 C 
ATOM     20  C   UNL     1      35.949 -21.056 -19.255  0.00  0.00    +0.099 C 
ATOM     21  C   UNL     1      33.848 -20.441 -19.952  0.00  0.00    +0.099 C 
ENDBRANCH  15  17
ENDBRANCH  14  15
ENDBRANCH   5  14
ENDBRANCH   2  11
BRANCH   3  25
ATOM     22  F   UNL     1      31.490  -8.269 -18.391  0.00  0.00    -0.204 F 
ATOM     23  C   UNL     1      32.317  -7.897 -21.914  0.00  0.00    +0.050 C 
ATOM     24  C   UNL     1      32.402  -9.235 -22.301  0.00  0.00    +0.019 C 
ATOM     25  C   UNL     1      32.176 -10.216 -21.358  0.00  0.00    +0.057 C 
ATOM     26  C   UNL     1      32.009  -7.571 -20.594  0.00  0.00    +0.044 C 
ATOM     27  C   UNL     1      31.870  -9.919 -20.046  0.00  0.00    +0.034 C 
ATOM     28  C   UNL     1      31.785  -8.582 -19.659  0.00  0.00    +0.142 C 
BRANCH  23  30
ATOM     29  O   UNL     1      32.995  -4.669 -24.522  0.00  0.00    -0.350 OA
ATOM     30  N   UNL     1      32.541  -6.884 -22.851  0.00  0.00    -0.303 N 
ATOM     31  C   UNL     1      31.412  -6.104 -23.372  0.00  0.00    +0.123 C 
ATOM     32  C   UNL     1      33.826  -6.172 -22.809  0.00  0.00    +0.123 C 
ATOM     33  C   UNL     1      31.806  -5.442 -24.687  0.00  0.00    +0.164 C 
ATOM     34  C   UNL     1      34.091  -5.506 -24.154  0.00  0.00    +0.164 C 
ENDBRANCH  23  30
ENDBRANCH   3  25
TORSDOF 6
ENDMDL
MODEL 5
REMARK VINA RESULT:     -11.5      3.973      8.103
REMARK  Name = 5326869
REMARK  6 active torsions:
REMARK  status: ('A' for Active; 'I' for Inactive)
REMARK    1  A    between atoms: N_2  and  C_11
REMARK    2  A    between atoms: C_3  and  C_25
REMARK    3  A    between atoms: N_5  and  C_14
REMARK    4  A    between atoms: C_14  and  C_15
REMARK    5  A    between atoms: C_15  and  C_17
REMARK    6  A    between atoms: C_23  and  N_30
REMARK                            x       y       z     vdW  Elec       q    Type
REMARK                         _______ _______ _______ _____ _____    ______ ____
ROOT
ATOM      1  O   UNL     1      32.604 -13.368 -22.399  0.00  0.00    -0.270 OA
ATOM      2  N   UNL     1      34.277 -13.880 -23.969  0.00  0.00    -0.280 N 
ATOM      3  C   UNL     1      33.481 -13.032 -23.187  0.00  0.00    +0.250 C 
ATOM      4  H   UNL     1      34.936 -13.437 -24.551  0.00  0.00    +0.155 HD
ENDROOT
BRANCH   2  11
ATOM      5  N   UNL     1      35.229 -18.374 -22.206  0.00  0.00    -0.286 N 
ATOM      6  C   UNL     1      34.764 -17.408 -23.071  0.00  0.00    +0.053 C 
ATOM      7  C   UNL     1      34.184 -18.071 -24.154  0.00  0.00    +0.015 C 
ATOM      8  C   UNL     1      34.963 -19.621 -22.705  0.00  0.00    +0.065 C 
ATOM      9  C   UNL     1      34.813 -16.012 -22.977  0.00  0.00    +0.029 C 
ATOM     10  C   UNL     1      34.316 -19.467 -23.909  0.00  0.00    +0.017 C 
ATOM     11  C   UNL     1      34.251 -15.274 -24.023  0.00  0.00    +0.052 C 
ATOM     12  C   UNL     1      33.623 -17.305 -25.196  0.00  0.00    +0.003 C 
ATOM     13  C   UNL     1      33.665 -15.909 -25.116  0.00  0.00    +0.015 C 
BRANCH   5  14
ATOM     14  C   UNL     1      35.901 -18.125 -20.950  0.00  0.00    +0.100 C 
BRANCH  14  15
ATOM     15  C   UNL     1      36.688 -19.331 -20.428  0.00  0.00    +0.048 C 
BRANCH  15  17
ATOM     16  N   UNL     1      34.279 -22.120 -18.241  0.00  0.00    -0.242 NA
ATOM     17  C   UNL     1      35.840 -20.312 -19.658  0.00  0.00    -0.017 C 
ATOM     18  C   UNL     1      34.475 -20.344 -19.869  0.00  0.00    +0.016 C 
ATOM     19  C   UNL     1      36.441 -21.166 -18.752  0.00  0.00    +0.016 C 
ATOM     20  C   UNL     1      33.740 -21.264 -19.138  0.00  0.00    +0.099 C 
ATOM     21  C   UNL     1      35.618 -22.049 -18.071  0.00  0.00    +0.099 C 
ENDBRANCH  15  17
ENDBRANCH  14  15
ENDBRANCH   5  14
ENDBRANCH   2  11
BRANCH   3  25
ATOM     22  F   UNL     1      35.606  -9.382 -25.541  0.00  0.00    -0.204 F 
ATOM     23  C   UNL     1      33.338  -9.321 -22.698  0.00  0.00    +0.050 C 
ATOM     24  C   UNL     1      33.108 -10.685 -22.523  0.00  0.00    +0.019 C 
ATOM     25  C   UNL     1      33.727 -11.579 -23.371  0.00  0.00    +0.057 C 
ATOM     26  C   UNL     1      34.182  -8.881 -23.716  0.00  0.00    +0.044 C 
ATOM     27  C   UNL     1      34.566 -11.169 -24.387  0.00  0.00    +0.034 C 
ATOM     28  C   UNL     1      34.796  -9.805 -24.562  0.00  0.00    +0.142 C 
BRANCH  23  30
ATOM     29  O   UNL     1      31.242  -6.640 -20.227  0.00  0.00    -0.350 OA
ATOM     30  N   UNL     1      32.722  -8.394 -21.850  0.00  0.00    -0.303 N 
ATOM     31  C   UNL     1      32.222  -7.125 -22.393  0.00  0.00    +0.123 C 
ATOM     32  C   UNL     1      31.998  -8.901 -20.677  0.00  0.00    +0.123 C 
ATOM     33  C   UNL     1      32.064  -6.110 -21.266  0.00  0.00    +0.164 C 
ATOM     34  C   UNL     1      31.852  -7.791 -19.642  0.00  0.00    +0.164 C 
ENDBRANCH  23  30
ENDBRANCH   3  25
TORSDOF 6
ENDMDL
MODEL 6
REMARK VINA RESULT:     -11.1      2.043      2.716
REMARK  Name = 5326869
REMARK  6 active torsions:
REMARK  status: ('A' for Active; 'I' for Inactive)
REMARK    1  A    between atoms: N_2  and  C_11
REMARK    2  A    between atoms: C_3  and  C_25
REMARK    3  A    between atoms: N_5  and  C_14
REMARK    4  A    between atoms: C_14  and  C_15
REMARK    5  A    between atoms: C_15  and  C_17
REMARK    6  A    between atoms: C_23  and  N_30
REMARK                            x       y       z     vdW  Elec       q    Type
REMARK                         _______ _______ _______ _____ _____    ______ ____
ROOT
ATOM      1  O   UNL     1      34.203 -21.142 -19.355  0.00  0.00    -0.270 OA
ATOM      2  N   UNL     1      36.291 -21.012 -18.283  0.00  0.00    -0.280 N 
ATOM      3  C   UNL     1      35.353 -20.724 -19.284  0.00  0.00    +0.250 C 
ATOM      4  H   UNL     1      37.174 -20.588 -18.385  0.00  0.00    +0.155 HD
ENDROOT
BRANCH   2  11
ATOM      5  N   UNL     1      33.624 -23.709 -15.151  0.00  0.00    -0.286 N 
ATOM      6  C   UNL     1      34.734 -23.110 -15.703  0.00  0.00    +0.053 C 
ATOM      7  C   UNL     1      35.826 -23.457 -14.905  0.00  0.00    +0.015 C 
ATOM      8  C   UNL     1      33.976 -24.419 -14.035  0.00  0.00    +0.065 C 
ATOM      9  C   UNL     1      34.853 -22.297 -16.835  0.00  0.00    +0.029 C 
ATOM     10  C   UNL     1      35.334 -24.283 -13.857  0.00  0.00    +0.017 C 
ATOM     11  C   UNL     1      36.128 -21.825 -17.161  0.00  0.00    +0.052 C 
ATOM     12  C   UNL     1      37.102 -22.969 -15.254  0.00  0.00    +0.003 C 
ATOM     13  C   UNL     1      37.236 -22.155 -16.384  0.00  0.00    +0.015 C 
BRANCH   5  14
ATOM     14  C   UNL     1      32.274 -23.612 -15.663  0.00  0.00    +0.100 C 
BRANCH  14  15
ATOM     15  C   UNL     1      31.266 -23.088 -14.635  0.00  0.00    +0.048 C 
BRANCH  15  17
ATOM     16  N   UNL     1      27.222 -23.114 -16.052  0.00  0.00    -0.242 NA
ATOM     17  C   UNL     1      29.843 -23.098 -15.133  0.00  0.00    -0.017 C 
ATOM     18  C   UNL     1      28.945 -22.166 -14.648  0.00  0.00    +0.016 C 
ATOM     19  C   UNL     1      29.455 -24.038 -16.069  0.00  0.00    +0.016 C 
ATOM     20  C   UNL     1      27.650 -22.216 -15.137  0.00  0.00    +0.099 C 
ATOM     21  C   UNL     1      28.138 -24.005 -16.495  0.00  0.00    +0.099 C 
ENDBRANCH  15  17
ENDBRANCH  14  15
ENDBRANCH   5  14
ENDBRANCH   2  11
BRANCH   3  25
ATOM     22  F   UNL     1      38.910 -18.277 -21.462  0.00  0.00    -0.204 F 
ATOM     23  C   UNL     1      35.397 -18.584 -22.359  0.00  0.00    +0.050 C 
ATOM     24  C   UNL     1      34.942 -19.413 -21.334  0.00  0.00    +0.019 C 
ATOM     25  C   UNL     1      35.837 -19.839 -20.375  0.00  0.00    +0.057 C 
ATOM     26  C   UNL     1      36.736 -18.200 -22.402  0.00  0.00    +0.044 C 
ATOM     27  C   UNL     1      37.167 -19.474 -20.395  0.00  0.00    +0.034 C 
ATOM     28  C   UNL     1      37.622 -18.645 -21.420  0.00  0.00    +0.142 C 
BRANCH  23  30
ATOM     29  O   UNL     1      32.913 -17.322 -25.508  0.00  0.00    -0.350 OA
ATOM     30  N   UNL     1      34.509 -18.137 -23.343  0.00  0.00    -0.303 N 
ATOM     31  C   UNL     1      34.661 -16.793 -23.911  0.00  0.00    +0.123 C 
ATOM     32  C   UNL     1      33.915 -19.134 -24.245  0.00  0.00    +0.123 C 
ATOM     33  C   UNL     1      33.350 -16.354 -24.554  0.00  0.00    +0.164 C 
ATOM     34  C   UNL     1      32.644 -18.571 -24.870  0.00  0.00    +0.164 C 
ENDBRANCH  23  30
ENDBRANCH   3  25
TORSDOF 6
ENDMDL
MODEL 7
REMARK VINA RESULT:     -10.6      5.350     13.220
REMARK  Name = 5326869
REMARK  6 active torsions:
REMARK  status: ('A' for Active; 'I' for Inactive)
REMARK    1  A    between atoms: N_2  and  C_11
REMARK    2  A    between atoms: C_3  and  C_25
REMARK    3  A    between atoms: N_5  and  C_14
REMARK    4  A    between atoms: C_14  and  C_15
REMARK    5  A    between atoms: C_15  and  C_17
REMARK    6  A    between atoms: C_23  and  N_30
REMARK                            x       y       z     vdW  Elec       q    Type
REMARK                         _______ _______ _______ _____ _____    ______ ____
ROOT
ATOM      1  O   UNL     1      35.000 -13.405 -20.407  0.00  0.00    -0.270 OA
ATOM      2  N   UNL     1      33.165 -13.058 -21.835  0.00  0.00    -0.280 N 
ATOM      3  C   UNL     1      34.270 -13.754 -21.328  0.00  0.00    +0.250 C 
ATOM      4  H   UNL     1      32.689 -13.488 -22.582  0.00  0.00    +0.155 HD
ENDROOT
BRANCH   2  11
ATOM      5  N   UNL     1      32.658  -8.172 -22.105  0.00  0.00    -0.286 N 
ATOM      6  C   UNL     1      32.481  -9.454 -21.637  0.00  0.00    +0.053 C 
ATOM      7  C   UNL     1      31.617  -9.378 -20.543  0.00  0.00    +0.015 C 
ATOM      8  C   UNL     1      31.936  -7.289 -21.346  0.00  0.00    +0.065 C 
ATOM      9  C   UNL     1      33.017 -10.664 -22.094  0.00  0.00    +0.029 C 
ATOM     10  C   UNL     1      31.281  -8.006 -20.371  0.00  0.00    +0.017 C 
ATOM     11  C   UNL     1      32.655 -11.830 -21.411  0.00  0.00    +0.052 C 
ATOM     12  C   UNL     1      31.267 -10.566 -19.871  0.00  0.00    +0.003 C 
ATOM     13  C   UNL     1      31.794 -11.783 -20.317  0.00  0.00    +0.015 C 
BRANCH   5  14
ATOM     14  C   UNL     1      33.480  -7.794 -23.234  0.00  0.00    +0.100 C 
BRANCH  14  15
ATOM     15  C   UNL     1      34.120  -6.409 -23.087  0.00  0.00    +0.048 C 
BRANCH  15  17
ATOM     16  N   UNL     1      32.955  -3.658 -26.158  0.00  0.00    -0.242 NA
ATOM     17  C   UNL     1      33.710  -5.442 -24.168  0.00  0.00    -0.017 C 
ATOM     18  C   UNL     1      32.443  -4.890 -24.144  0.00  0.00    +0.016 C 
ATOM     19  C   UNL     1      34.607  -5.118 -25.169  0.00  0.00    +0.016 C 
ATOM     20  C   UNL     1      32.114  -4.006 -25.159  0.00  0.00    +0.099 C 
ATOM     21  C   UNL     1      34.182  -4.224 -26.138  0.00  0.00    +0.099 C 
ENDBRANCH  15  17
ENDBRANCH  14  15
ENDBRANCH   5  14
ENDBRANCH   2  11
BRANCH   3  25
ATOM     22  F   UNL     1      34.889 -16.331 -25.373  0.00  0.00    -0.204 F 
ATOM     23  C   UNL     1      35.165 -17.348 -21.891  0.00  0.00    +0.050 C 
ATOM     24  C   UNL     1      34.868 -16.147 -21.248  0.00  0.00    +0.019 C 
ATOM     25  C   UNL     1      34.584 -15.035 -22.013  0.00  0.00    +0.057 C 
ATOM     26  C   UNL     1      35.172 -17.411 -23.284  0.00  0.00    +0.044 C 
ATOM     27  C   UNL     1      34.585 -15.070 -23.392  0.00  0.00    +0.034 C 
ATOM     28  C   UNL     1      34.881 -16.272 -24.035  0.00  0.00    +0.142 C 
BRANCH  23  30
ATOM     29  O   UNL     1      36.146 -20.896 -19.858  0.00  0.00    -0.350 OA
ATOM     30  N   UNL     1      35.456 -18.491 -21.139  0.00  0.00    -0.303 N 
ATOM     31  C   UNL     1      34.522 -19.622 -21.133  0.00  0.00    +0.123 C 
ATOM     32  C   UNL     1      36.867 -18.844 -20.931  0.00  0.00    +0.123 C 
ATOM     33  C   UNL     1      34.777 -20.495 -19.909  0.00  0.00    +0.164 C 
ATOM     34  C   UNL     1      36.997 -19.758 -19.719  0.00  0.00    +0.164 C 
ENDBRANCH  23  30
ENDBRANCH   3  25
TORSDOF 6
ENDMDL
MODEL 8
REMARK VINA RESULT:     -10.6      8.142     12.909
REMARK  Name = 5326869
REMARK  6 active torsions:
REMARK  status: ('A' for Active; 'I' for Inactive)
REMARK    1  A    between atoms: N_2  and  C_11
REMARK    2  A    between atoms: C_3  and  C_25
REMARK    3  A    between atoms: N_5  and  C_14
REMARK    4  A    between atoms: C_14  and  C_15
REMARK    5  A    between atoms: C_15  and  C_17
REMARK    6  A    between atoms: C_23  and  N_30
REMARK                            x       y       z     vdW  Elec       q    Type
REMARK                         _______ _______ _______ _____ _____    ______ ____
ROOT
ATOM      1  O   UNL     1      34.188  -7.049 -21.537  0.00  0.00    -0.270 OA
ATOM      2  N   UNL     1      31.914  -7.647 -21.515  0.00  0.00    -0.280 N 
ATOM      3  C   UNL     1      33.006  -6.802 -21.753  0.00  0.00    +0.250 C 
ATOM      4  H   UNL     1      31.029  -7.284 -21.749  0.00  0.00    +0.155 HD
ENDROOT
BRANCH   2  11
ATOM      5  N   UNL     1      32.494 -12.523 -21.822  0.00  0.00    -0.286 N 
ATOM      6  C   UNL     1      32.235 -11.296 -21.252  0.00  0.00    +0.053 C 
ATOM      7  C   UNL     1      31.948 -11.522 -19.905  0.00  0.00    +0.015 C 
ATOM      8  C   UNL     1      32.381 -13.512 -20.882  0.00  0.00    +0.065 C 
ATOM      9  C   UNL     1      32.231 -10.018 -21.823  0.00  0.00    +0.029 C 
ATOM     10  C   UNL     1      32.044 -12.924 -19.686  0.00  0.00    +0.017 C 
ATOM     11  C   UNL     1      31.926  -8.939 -20.988  0.00  0.00    +0.052 C 
ATOM     12  C   UNL     1      31.643 -10.418 -19.083  0.00  0.00    +0.003 C 
ATOM     13  C   UNL     1      31.637  -9.134 -19.639  0.00  0.00    +0.015 C 
BRANCH   5  14
ATOM     14  C   UNL     1      32.839 -12.750 -23.209  0.00  0.00    +0.100 C 
BRANCH  14  15
ATOM     15  C   UNL     1      34.283 -13.218 -23.411  0.00  0.00    +0.048 C 
BRANCH  15  17
ATOM     16  N   UNL     1      34.663 -17.475 -23.725  0.00  0.00    -0.242 NA
ATOM     17  C   UNL     1      34.418 -14.716 -23.522  0.00  0.00    -0.017 C 
ATOM     18  C   UNL     1      35.051 -15.419 -22.515  0.00  0.00    +0.016 C 
ATOM     19  C   UNL     1      33.904 -15.366 -24.629  0.00  0.00    +0.016 C 
ATOM     20  C   UNL     1      35.148 -16.794 -22.663  0.00  0.00    +0.099 C 
ATOM     21  C   UNL     1      34.053 -16.742 -24.683  0.00  0.00    +0.099 C 
ENDBRANCH  15  17
ENDBRANCH  14  15
ENDBRANCH   5  14
ENDBRANCH   2  11
BRANCH   3  25
ATOM     22  F   UNL     1      31.155  -2.369 -21.204  0.00  0.00    -0.204 F 
ATOM     23  C   UNL     1      32.659  -3.925 -24.128  0.00  0.00    +0.050 C 
ATOM     24  C   UNL     1      32.975  -5.184 -23.616  0.00  0.00    +0.019 C 
ATOM     25  C   UNL     1      32.668  -5.463 -22.300  0.00  0.00    +0.057 C 
ATOM     26  C   UNL     1      32.044  -2.975 -23.314  0.00  0.00    +0.044 C 
ATOM     27  C   UNL     1      32.061  -4.540 -21.474  0.00  0.00    +0.034 C 
ATOM     28  C   UNL     1      31.744  -3.282 -21.987  0.00  0.00    +0.142 C 
BRANCH  23  30
ATOM     29  O   UNL     1      33.351  -3.163 -28.205  0.00  0.00    -0.350 OA
ATOM     30  N   UNL     1      32.959  -3.617 -25.459  0.00  0.00    -0.303 N 
ATOM     31  C   UNL     1      33.807  -4.520 -26.247  0.00  0.00    +0.123 C 
ATOM     32  C   UNL     1      31.973  -2.851 -26.233  0.00  0.00    +0.123 C 
ATOM     33  C   UNL     1      34.391  -3.770 -27.438  0.00  0.00    +0.164 C 
ATOM     34  C   UNL     1      32.654  -2.190 -27.426  0.00  0.00    +0.164 C 
ENDBRANCH  23  30
ENDBRANCH   3  25
TORSDOF 6
ENDMDL
MODEL 9
REMARK VINA RESULT:     -10.5      2.773      5.602
REMARK  Name = 5326869
REMARK  6 active torsions:
REMARK  status: ('A' for Active; 'I' for Inactive)
REMARK    1  A    between atoms: N_2  and  C_11
REMARK    2  A    between atoms: C_3  and  C_25
REMARK    3  A    between atoms: N_5  and  C_14
REMARK    4  A    between atoms: C_14  and  C_15
REMARK    5  A    between atoms: C_15  and  C_17
REMARK    6  A    between atoms: C_23  and  N_30
REMARK                            x       y       z     vdW  Elec       q    Type
REMARK                         _______ _______ _______ _____ _____    ______ ____
ROOT
ATOM      1  O   UNL     1      32.313 -21.628 -19.742  0.00  0.00    -0.270 OA
ATOM      2  N   UNL     1      33.667 -21.646 -17.820  0.00  0.00    -0.280 N 
ATOM      3  C   UNL     1      33.336 -21.318 -19.141  0.00  0.00    +0.250 C 
ATOM      4  H   UNL     1      34.535 -21.312 -17.497  0.00  0.00    +0.155 HD
ENDROOT
BRANCH   2  11
ATOM      5  N   UNL     1      33.127 -24.431 -13.801  0.00  0.00    -0.286 N 
ATOM      6  C   UNL     1      32.772 -23.732 -14.933  0.00  0.00    +0.053 C 
ATOM      7  C   UNL     1      31.391 -23.866 -15.082  0.00  0.00    +0.015 C 
ATOM      8  C   UNL     1      32.019 -25.000 -13.231  0.00  0.00    +0.065 C 
ATOM      9  C   UNL     1      33.562 -23.001 -15.827  0.00  0.00    +0.029 C 
ATOM     10  C   UNL     1      30.929 -24.668 -14.001  0.00  0.00    +0.017 C 
ATOM     11  C   UNL     1      32.917 -22.387 -16.905  0.00  0.00    +0.052 C 
ATOM     12  C   UNL     1      30.763 -23.238 -16.177  0.00  0.00    +0.003 C 
ATOM     13  C   UNL     1      31.540 -22.502 -17.079  0.00  0.00    +0.015 C 
BRANCH   5  14
ATOM     14  C   UNL     1      34.469 -24.555 -13.275  0.00  0.00    +0.100 C 
BRANCH  14  15
ATOM     15  C   UNL     1      35.417 -25.329 -14.196  0.00  0.00    +0.048 C 
BRANCH  15  17
ATOM     16  N   UNL     1      39.539 -24.988 -13.072  0.00  0.00    -0.242 NA
ATOM     17  C   UNL     1      36.868 -25.208 -13.801  0.00  0.00    -0.017 C 
ATOM     18  C   UNL     1      37.215 -24.431 -12.712  0.00  0.00    +0.016 C 
ATOM     19  C   UNL     1      37.831 -25.878 -14.533  0.00  0.00    +0.016 C 
ATOM     20  C   UNL     1      38.560 -24.353 -12.390  0.00  0.00    +0.099 C 
ATOM     21  C   UNL     1      39.148 -25.736 -14.129  0.00  0.00    +0.099 C 
ENDBRANCH  15  17
ENDBRANCH  14  15
ENDBRANCH   5  14
ENDBRANCH   2  11
BRANCH   3  25
ATOM     22  F   UNL     1      37.909 -19.863 -19.735  0.00  0.00    -0.204 F 
ATOM     23  C   UNL     1      34.934 -19.059 -21.668  0.00  0.00    +0.050 C 
ATOM     24  C   UNL     1      33.971 -19.793 -20.975  0.00  0.00    +0.019 C 
ATOM     25  C   UNL     1      34.360 -20.534 -19.879  0.00  0.00    +0.057 C 
ATOM     26  C   UNL     1      36.263 -19.082 -21.249  0.00  0.00    +0.044 C 
ATOM     27  C   UNL     1      35.669 -20.574 -19.444  0.00  0.00    +0.034 C 
ATOM     28  C   UNL     1      36.632 -19.840 -20.137  0.00  0.00    +0.142 C 
BRANCH  23  30
ATOM     29  O   UNL     1      34.034 -16.893 -25.158  0.00  0.00    -0.350 OA
ATOM     30  N   UNL     1      34.565 -18.300 -22.783  0.00  0.00    -0.303 N 
ATOM     31  C   UNL     1      35.235 -17.023 -23.054  0.00  0.00    +0.123 C 
ATOM     32  C   UNL     1      34.063 -19.007 -23.969  0.00  0.00    +0.123 C 
ATOM     33  C   UNL     1      34.368 -16.170 -23.973  0.00  0.00    +0.164 C 
ATOM     34  C   UNL     1      33.258 -18.049 -24.839  0.00  0.00    +0.164 C 
ENDBRANCH  23  30
ENDBRANCH   3  25
TORSDOF 6
ENDMDL
