MODEL 1
REMARK VINA RESULT:     -11.5      0.000      0.000
REMARK  Name = 104758
REMARK  11 active torsions:
REMARK  status: ('A' for Active; 'I' for Inactive)
REMARK    1  A    between atoms: C_2  and  N_21
REMARK    2  A    between atoms: C_3  and  C_8
REMARK    3  A    between atoms: N_7  and  CA_10
REMARK    4  A    between atoms: CA_10  and  C_12
REMARK    5  A    between atoms: CA_10  and  CB_15
REMARK    6  A    between atoms: C_12  and  O_13
REMARK    7  A    between atoms: CB_15  and  CG_16
REMARK    8  A    between atoms: CG_16  and  CD_18
REMARK    9  A    between atoms: CD_18  and  OE1_19
REMARK   10  A    between atoms: N_21  and  C_23
REMARK   11  A    between atoms: C_23  and  C_27
REMARK                            x       y       z     vdW  Elec       q    Type
REMARK                         _______ _______ _______ _____ _____    ______ ____
ROOT
ATOM      1  S   UNL     1      35.191 -21.424 -19.138  0.00  0.00    -0.068 S 
ATOM      2  C   UNL     1      34.745 -20.197 -20.245  0.00  0.00    +0.079 C 
ATOM      3  C   UNL     1      33.557 -21.717 -18.720  0.00  0.00    +0.084 C 
ATOM      4  C   UNL     1      33.380 -20.016 -20.293  0.00  0.00    +0.022 C 
ATOM      5  C   UNL     1      32.692 -20.897 -19.410  0.00  0.00    +0.013 C 
ENDROOT
BRANCH   3   8
ATOM      6  O   UNL     1      33.831 -23.838 -17.700  0.00  0.00    -0.270 OA
ATOM      7  N   UNL     1      32.228 -22.444 -16.827  0.00  0.00    -0.293 N 
ATOM      8  C   ACE A   0      33.257 -22.723 -17.753  0.00  0.00    +0.252 C 
ATOM      9  H   UNL     1      31.784 -21.567 -16.877  0.00  0.00    +0.150 HD
BRANCH   7  10
ATOM     10  CA  UNL     1      31.791 -23.373 -15.810  0.00  0.00    +0.172 C 
BRANCH  10  12
ATOM     11  OXT UNL     1      29.571 -24.106 -15.130  0.00  0.00    -0.248 OA
ATOM     12  C   UNL     1      30.276 -23.370 -15.806  0.00  0.00    +0.332 C 
BRANCH  12  13
ATOM     13  O   UNL     1      29.770 -22.411 -16.626  0.00  0.00    -0.479 OA
ATOM     14  H   UNL     1      30.347 -21.835 -17.087  0.00  0.00    +0.295 HD
ENDBRANCH  12  13
ENDBRANCH  10  12
BRANCH  10  15
ATOM     15  CB  UNL     1      32.414 -23.085 -14.439  0.00  0.00    +0.043 C 
BRANCH  15  16
ATOM     16  CG  UNL     1      33.337 -24.176 -13.881  0.00  0.00    +0.112 C 
BRANCH  16  18
ATOM     17  OE2 UNL     1      35.551 -23.309 -13.345  0.00  0.00    -0.250 OA
ATOM     18  CD  UNL     1      34.808 -23.906 -14.112  0.00  0.00    +0.314 C 
BRANCH  18  19
ATOM     19  OE1 UNL     1      35.220 -24.377 -15.319  0.00  0.00    -0.480 OA
ATOM     20  HE1 UNL     1      35.592 -25.235 -15.385  0.00  0.00    +0.295 HD
ENDBRANCH  18  19
ENDBRANCH  16  18
ENDBRANCH  15  16
ENDBRANCH  10  15
ENDBRANCH   7  10
ENDBRANCH   3   8
BRANCH   2  21
ATOM     21  N   UNL     1      35.696 -19.500 -20.978  0.00  0.00    -0.297 N 
ATOM     22  C   UNL     1      37.001 -19.177 -20.398  0.00  0.00    +0.113 C 
BRANCH  21  23
ATOM     23  C   UNL     1      35.455 -19.071 -22.338  0.00  0.00    +0.118 C 
BRANCH  23  27
ATOM     24  O   UNL     1      33.700 -15.728 -25.846  0.00  0.00    -0.209 OA
ATOM     25  N   UNL     1      34.270 -13.512 -22.554  0.00  0.00    -0.290 N 
ATOM     26  N   UNL     1      33.599 -13.673 -24.836  0.00  0.00    -0.322 NA
ATOM     27  C   UNL     1      35.146 -17.612 -22.390  0.00  0.00    -0.002 C 
ATOM     28  C   UNL     1      34.381 -15.676 -23.609  0.00  0.00    +0.108 C 
ATOM     29  C   UNL     1      34.667 -17.043 -23.571  0.00  0.00    +0.011 C 
ATOM     30  C   UNL     1      34.569 -14.874 -22.474  0.00  0.00    +0.062 C 
ATOM     31  C   UNL     1      35.336 -16.820 -21.257  0.00  0.00    -0.001 C 
ATOM     32  C   UNL     1      35.049 -15.455 -21.297  0.00  0.00    +0.015 C 
ATOM     33  C   UNL     1      33.868 -15.031 -24.850  0.00  0.00    +0.207 C 
ATOM     34  C   UNL     1      33.803 -13.000 -23.741  0.00  0.00    +0.174 C 
ATOM     35  C   UNL     1      33.499 -11.521 -23.762  0.00  0.00    +0.085 C 
ATOM     36  H   UNL     1      34.393 -12.928 -21.771  0.00  0.00    +0.154 HD
ENDBRANCH  23  27
ENDBRANCH  21  23
ENDBRANCH   2  21
TORSDOF 11
ENDMDL
MODEL 2
REMARK VINA RESULT:     -11.5      3.092      4.376
REMARK  Name = 104758
REMARK  11 active torsions:
REMARK  status: ('A' for Active; 'I' for Inactive)
REMARK    1  A    between atoms: C_2  and  N_21
REMARK    2  A    between atoms: C_3  and  C_8
REMARK    3  A    between atoms: N_7  and  CA_10
REMARK    4  A    between atoms: CA_10  and  C_12
REMARK    5  A    between atoms: CA_10  and  CB_15
REMARK    6  A    between atoms: C_12  and  O_13
REMARK    7  A    between atoms: CB_15  and  CG_16
REMARK    8  A    between atoms: CG_16  and  CD_18
REMARK    9  A    between atoms: CD_18  and  OE1_19
REMARK   10  A    between atoms: N_21  and  C_23
REMARK   11  A    between atoms: C_23  and  C_27
REMARK                            x       y       z     vdW  Elec       q    Type
REMARK                         _______ _______ _______ _____ _____    ______ ____
ROOT
ATOM      1  S   UNL     1      36.358 -21.656 -17.558  0.00  0.00    -0.068 S 
ATOM      2  C   UNL     1      34.837 -21.612 -18.344  0.00  0.00    +0.079 C 
ATOM      3  C   UNL     1      35.752 -22.681 -16.328  0.00  0.00    +0.084 C 
ATOM      4  C   UNL     1      33.891 -22.362 -17.681  0.00  0.00    +0.022 C 
ATOM      5  C   UNL     1      34.421 -22.982 -16.513  0.00  0.00    +0.013 C 
ENDROOT
BRANCH   3   8
ATOM      6  O   UNL     1      37.553 -22.397 -14.815  0.00  0.00    -0.270 OA
ATOM      7  N   UNL     1      36.451 -24.412 -14.780  0.00  0.00    -0.293 N 
ATOM      8  C   ACE A   0      36.628 -23.104 -15.283  0.00  0.00    +0.252 C 
ATOM      9  H   UNL     1      35.723 -24.958 -15.155  0.00  0.00    +0.150 HD
BRANCH   7  10
ATOM     10  CA  UNL     1      37.278 -24.992 -13.747  0.00  0.00    +0.172 C 
BRANCH  10  12
ATOM     11  OXT UNL     1      39.068 -26.625 -13.984  0.00  0.00    -0.248 OA
ATOM     12  C   UNL     1      37.981 -26.194 -14.343  0.00  0.00    +0.332 C 
BRANCH  12  13
ATOM     13  O   UNL     1      37.239 -26.783 -15.318  0.00  0.00    -0.479 OA
ATOM     14  H   UNL     1      37.649 -27.349 -15.942  0.00  0.00    +0.295 HD
ENDBRANCH  12  13
ENDBRANCH  10  12
BRANCH  10  15
ATOM     15  CB  UNL     1      36.492 -25.306 -12.467  0.00  0.00    +0.043 C 
BRANCH  15  16
ATOM     16  CG  UNL     1      35.741 -24.126 -11.837  0.00  0.00    +0.112 C 
BRANCH  16  18
ATOM     17  OE2 UNL     1      35.497 -24.344  -9.422  0.00  0.00    -0.250 OA
ATOM     18  CD  UNL     1      36.094 -23.884 -10.386  0.00  0.00    +0.314 C 
BRANCH  18  19
ATOM     19  OE1 UNL     1      37.155 -23.043 -10.262  0.00  0.00    -0.480 OA
ATOM     20  HE1 UNL     1      37.350 -22.432 -10.946  0.00  0.00    +0.295 HD
ENDBRANCH  18  19
ENDBRANCH  16  18
ENDBRANCH  15  16
ENDBRANCH  10  15
ENDBRANCH   7  10
ENDBRANCH   3   8
BRANCH   2  21
ATOM     21  N   UNL     1      34.645 -20.885 -19.512  0.00  0.00    -0.297 N 
ATOM     22  C   UNL     1      33.306 -20.442 -19.907  0.00  0.00    +0.113 C 
BRANCH  21  23
ATOM     23  C   UNL     1      35.742 -20.525 -20.383  0.00  0.00    +0.118 C 
BRANCH  23  27
ATOM     24  O   UNL     1      33.600 -19.340 -24.917  0.00  0.00    -0.209 OA
ATOM     25  N   UNL     1      34.553 -15.795 -23.307  0.00  0.00    -0.290 N 
ATOM     26  N   UNL     1      33.621 -17.056 -25.103  0.00  0.00    -0.322 NA
ATOM     27  C   UNL     1      35.433 -19.282 -21.146  0.00  0.00    -0.002 C 
ATOM     28  C   UNL     1      34.536 -18.196 -23.105  0.00  0.00    +0.108 C 
ATOM     29  C   UNL     1      34.821 -19.367 -22.398  0.00  0.00    +0.011 C 
ATOM     30  C   UNL     1      34.856 -16.941 -22.568  0.00  0.00    +0.062 C 
ATOM     31  C   UNL     1      35.755 -18.035 -20.606  0.00  0.00    -0.001 C 
ATOM     32  C   UNL     1      35.468 -16.867 -21.315  0.00  0.00    +0.015 C 
ATOM     33  C   UNL     1      33.883 -18.244 -24.443  0.00  0.00    +0.207 C 
ATOM     34  C   UNL     1      33.952 -15.932 -24.536  0.00  0.00    +0.174 C 
ATOM     35  C   UNL     1      33.651 -14.656 -25.284  0.00  0.00    +0.085 C 
ATOM     36  H   UNL     1      34.767 -14.902 -22.953  0.00  0.00    +0.154 HD
ENDBRANCH  23  27
ENDBRANCH  21  23
ENDBRANCH   2  21
TORSDOF 11
ENDMDL
MODEL 3
REMARK VINA RESULT:     -11.1      3.090      4.859
REMARK  Name = 104758
REMARK  11 active torsions:
REMARK  status: ('A' for Active; 'I' for Inactive)
REMARK    1  A    between atoms: C_2  and  N_21
REMARK    2  A    between atoms: C_3  and  C_8
REMARK    3  A    between atoms: N_7  and  CA_10
REMARK    4  A    between atoms: CA_10  and  C_12
REMARK    5  A    between atoms: CA_10  and  CB_15
REMARK    6  A    between atoms: C_12  and  O_13
REMARK    7  A    between atoms: CB_15  and  CG_16
REMARK    8  A    between atoms: CG_16  and  CD_18
REMARK    9  A    between atoms: CD_18  and  OE1_19
REMARK   10  A    between atoms: N_21  and  C_23
REMARK   11  A    between atoms: C_23  and  C_27
REMARK                            x       y       z     vdW  Elec       q    Type
REMARK                         _______ _______ _______ _____ _____    ______ ____
ROOT
ATOM      1  S   UNL     1      34.782 -22.705 -16.825  0.00  0.00    -0.068 S 
ATOM      2  C   UNL     1      35.556 -21.661 -17.941  0.00  0.00    +0.079 C 
ATOM      3  C   UNL     1      36.116 -22.640 -15.756  0.00  0.00    +0.084 C 
ATOM      4  C   UNL     1      36.804 -21.274 -17.505  0.00  0.00    +0.022 C 
ATOM      5  C   UNL     1      37.128 -21.840 -16.239  0.00  0.00    +0.013 C 
ENDROOT
BRANCH   3   8
ATOM      6  O   UNL     1      35.026 -23.928 -14.093  0.00  0.00    -0.270 OA
ATOM      7  N   UNL     1      37.250 -23.452 -13.772  0.00  0.00    -0.293 N 
ATOM      8  C   ACE A   0      36.064 -23.376 -14.534  0.00  0.00    +0.252 C 
ATOM      9  H   UNL     1      38.058 -23.015 -14.127  0.00  0.00    +0.150 HD
BRANCH   7  10
ATOM     10  CA  UNL     1      37.345 -24.134 -12.502  0.00  0.00    +0.172 C 
BRANCH  10  12
ATOM     11  OXT UNL     1      39.137 -23.052 -11.258  0.00  0.00    -0.248 OA
ATOM     12  C   UNL     1      37.944 -23.164 -11.504  0.00  0.00    +0.332 C 
BRANCH  12  13
ATOM     13  O   UNL     1      36.994 -22.385 -10.923  0.00  0.00    -0.479 OA
ATOM     14  H   UNL     1      36.749 -22.530 -10.030  0.00  0.00    +0.295 HD
ENDBRANCH  12  13
ENDBRANCH  10  12
BRANCH  10  15
ATOM     15  CB  UNL     1      38.100 -25.465 -12.600  0.00  0.00    +0.043 C 
BRANCH  15  16
ATOM     16  CG  UNL     1      38.571 -25.865 -14.004  0.00  0.00    +0.112 C 
BRANCH  16  18
ATOM     17  OE2 UNL     1      40.694 -24.736 -13.610  0.00  0.00    -0.250 OA
ATOM     18  CD  UNL     1      39.996 -25.457 -14.309  0.00  0.00    +0.314 C 
BRANCH  18  19
ATOM     19  OE1 UNL     1      40.418 -25.962 -15.498  0.00  0.00    -0.480 OA
ATOM     20  HE1 UNL     1      39.792 -26.278 -16.121  0.00  0.00    +0.295 HD
ENDBRANCH  18  19
ENDBRANCH  16  18
ENDBRANCH  15  16
ENDBRANCH  10  15
ENDBRANCH   7  10
ENDBRANCH   3   8
BRANCH   2  21
ATOM     21  N   UNL     1      34.943 -21.287 -19.130  0.00  0.00    -0.297 N 
ATOM     22  C   UNL     1      33.503 -21.025 -19.180  0.00  0.00    +0.113 C 
BRANCH  21  23
ATOM     23  C   UNL     1      35.685 -21.132 -20.361  0.00  0.00    +0.118 C 
BRANCH  23  27
ATOM     24  O   UNL     1      33.780 -19.269 -24.772  0.00  0.00    -0.209 OA
ATOM     25  N   UNL     1      34.778 -16.010 -22.661  0.00  0.00    -0.290 N 
ATOM     26  N   UNL     1      33.883 -16.982 -24.645  0.00  0.00    -0.322 NA
ATOM     27  C   UNL     1      35.450 -19.786 -20.961  0.00  0.00    -0.002 C 
ATOM     28  C   UNL     1      34.674 -18.414 -22.787  0.00  0.00    +0.108 C 
ATOM     29  C   UNL     1      34.890 -19.679 -22.235  0.00  0.00    +0.011 C 
ATOM     30  C   UNL     1      35.012 -17.255 -22.074  0.00  0.00    +0.062 C 
ATOM     31  C   UNL     1      35.789 -18.637 -20.245  0.00  0.00    -0.001 C 
ATOM     32  C   UNL     1      35.571 -17.374 -20.799  0.00  0.00    +0.015 C 
ATOM     33  C   UNL     1      34.078 -18.257 -24.143  0.00  0.00    +0.207 C 
ATOM     34  C   UNL     1      34.226 -15.958 -23.919  0.00  0.00    +0.174 C 
ATOM     35  C   UNL     1      34.000 -14.583 -24.499  0.00  0.00    +0.085 C 
ATOM     36  H   UNL     1      35.006 -15.181 -22.181  0.00  0.00    +0.154 HD
ENDBRANCH  23  27
ENDBRANCH  21  23
ENDBRANCH   2  21
TORSDOF 11
ENDMDL
MODEL 4
REMARK VINA RESULT:     -11.0      3.250     11.094
REMARK  Name = 104758
REMARK  11 active torsions:
REMARK  status: ('A' for Active; 'I' for Inactive)
REMARK    1  A    between atoms: C_2  and  N_21
REMARK    2  A    between atoms: C_3  and  C_8
REMARK    3  A    between atoms: N_7  and  CA_10
REMARK    4  A    between atoms: CA_10  and  C_12
REMARK    5  A    between atoms: CA_10  and  CB_15
REMARK    6  A    between atoms: C_12  and  O_13
REMARK    7  A    between atoms: CB_15  and  CG_16
REMARK    8  A    between atoms: CG_16  and  CD_18
REMARK    9  A    between atoms: CD_18  and  OE1_19
REMARK   10  A    between atoms: N_21  and  C_23
REMARK   11  A    between atoms: C_23  and  C_27
REMARK                            x       y       z     vdW  Elec       q    Type
REMARK                         _______ _______ _______ _____ _____    ______ ____
ROOT
ATOM      1  S   UNL     1      34.547 -14.976 -22.513  0.00  0.00    -0.068 S 
ATOM      2  C   UNL     1      34.795 -16.650 -22.771  0.00  0.00    +0.079 C 
ATOM      3  C   UNL     1      34.027 -14.749 -24.128  0.00  0.00    +0.084 C 
ATOM      4  C   UNL     1      34.489 -17.025 -24.060  0.00  0.00    +0.022 C 
ATOM      5  C   UNL     1      34.043 -15.924 -24.846  0.00  0.00    +0.013 C 
ENDROOT
BRANCH   3   8
ATOM      6  O   UNL     1      33.106 -13.198 -25.665  0.00  0.00    -0.270 OA
ATOM      7  N   UNL     1      33.935 -12.366 -23.691  0.00  0.00    -0.293 N 
ATOM      8  C   ACE A   0      33.648 -13.442 -24.559  0.00  0.00    +0.252 C 
ATOM      9  H   UNL     1      34.361 -12.568 -22.826  0.00  0.00    +0.150 HD
BRANCH   7  10
ATOM     10  CA  UNL     1      33.641 -10.986 -24.000  0.00  0.00    +0.172 C 
BRANCH  10  12
ATOM     11  OXT UNL     1      35.271 -10.319 -25.681  0.00  0.00    -0.248 OA
ATOM     12  C   UNL     1      34.916 -10.348 -24.511  0.00  0.00    +0.332 C 
BRANCH  12  13
ATOM     13  O   UNL     1      35.625  -9.762 -23.511  0.00  0.00    -0.479 OA
ATOM     14  H   UNL     1      35.178  -9.344 -22.801  0.00  0.00    +0.295 HD
ENDBRANCH  12  13
ENDBRANCH  10  12
BRANCH  10  15
ATOM     15  CB  UNL     1      33.004 -10.238 -22.822  0.00  0.00    +0.043 C 
BRANCH  15  16
ATOM     16  CG  UNL     1      32.357 -11.117 -21.743  0.00  0.00    +0.112 C 
BRANCH  16  18
ATOM     17  OE2 UNL     1      31.370  -9.323 -20.422  0.00  0.00    -0.250 OA
ATOM     18  CD  UNL     1      31.269 -10.417 -20.959  0.00  0.00    +0.314 C 
BRANCH  18  19
ATOM     19  OE1 UNL     1      30.143 -11.176 -20.880  0.00  0.00    -0.480 OA
ATOM     20  HE1 UNL     1      30.167 -12.077 -21.137  0.00  0.00    +0.295 HD
ENDBRANCH  18  19
ENDBRANCH  16  18
ENDBRANCH  15  16
ENDBRANCH  10  15
ENDBRANCH   7  10
ENDBRANCH   3   8
BRANCH   2  21
ATOM     21  N   UNL     1      35.255 -17.480 -21.756  0.00  0.00    -0.297 N 
ATOM     22  C   UNL     1      35.526 -16.949 -20.419  0.00  0.00    +0.113 C 
BRANCH  21  23
ATOM     23  C   UNL     1      35.481 -18.894 -21.963  0.00  0.00    +0.118 C 
BRANCH  23  27
ATOM     24  O   UNL     1      36.612 -22.002 -18.011  0.00  0.00    -0.209 OA
ATOM     25  N   UNL     1      32.606 -21.995 -18.160  0.00  0.00    -0.290 N 
ATOM     26  N   UNL     1      34.626 -22.747 -17.143  0.00  0.00    -0.322 NA
ATOM     27  C   UNL     1      34.722 -19.706 -20.968  0.00  0.00    -0.002 C 
ATOM     28  C   UNL     1      34.689 -21.208 -19.080  0.00  0.00    +0.108 C 
ATOM     29  C   UNL     1      35.409 -20.450 -20.007  0.00  0.00    +0.011 C 
ATOM     30  C   UNL     1      33.288 -21.226 -19.106  0.00  0.00    +0.062 C 
ATOM     31  C   UNL     1      33.327 -19.720 -21.000  0.00  0.00    -0.001 C 
ATOM     32  C   UNL     1      32.610 -20.477 -20.072  0.00  0.00    +0.015 C 
ATOM     33  C   UNL     1      35.385 -22.014 -18.039  0.00  0.00    +0.207 C 
ATOM     34  C   UNL     1      33.328 -22.712 -17.236  0.00  0.00    +0.174 C 
ATOM     35  C   UNL     1      32.533 -23.524 -16.243  0.00  0.00    +0.085 C 
ATOM     36  H   UNL     1      31.622 -22.024 -18.157  0.00  0.00    +0.154 HD
ENDBRANCH  23  27
ENDBRANCH  21  23
ENDBRANCH   2  21
TORSDOF 11
ENDMDL
MODEL 5
REMARK VINA RESULT:     -10.9      2.371      3.288
REMARK  Name = 104758
REMARK  11 active torsions:
REMARK  status: ('A' for Active; 'I' for Inactive)
REMARK    1  A    between atoms: C_2  and  N_21
REMARK    2  A    between atoms: C_3  and  C_8
REMARK    3  A    between atoms: N_7  and  CA_10
REMARK    4  A    between atoms: CA_10  and  C_12
REMARK    5  A    between atoms: CA_10  and  CB_15
REMARK    6  A    between atoms: C_12  and  O_13
REMARK    7  A    between atoms: CB_15  and  CG_16
REMARK    8  A    between atoms: CG_16  and  CD_18
REMARK    9  A    between atoms: CD_18  and  OE1_19
REMARK   10  A    between atoms: N_21  and  C_23
REMARK   11  A    between atoms: C_23  and  C_27
REMARK                            x       y       z     vdW  Elec       q    Type
REMARK                         _______ _______ _______ _____ _____    ______ ____
ROOT
ATOM      1  S   UNL     1      34.239 -21.843 -18.263  0.00  0.00    -0.068 S 
ATOM      2  C   UNL     1      35.133 -20.862 -19.345  0.00  0.00    +0.079 C 
ATOM      3  C   UNL     1      35.614 -22.104 -17.277  0.00  0.00    +0.084 C 
ATOM      4  C   UNL     1      36.451 -20.739 -18.961  0.00  0.00    +0.022 C 
ATOM      5  C   UNL     1      36.729 -21.458 -17.764  0.00  0.00    +0.013 C 
ENDROOT
BRANCH   3   8
ATOM      6  O   UNL     1      34.392 -23.305 -15.641  0.00  0.00    -0.270 OA
ATOM      7  N   UNL     1      36.680 -23.281 -15.445  0.00  0.00    -0.293 N 
ATOM      8  C   ACE A   0      35.489 -22.920 -16.113  0.00  0.00    +0.252 C 
ATOM      9  H   UNL     1      37.535 -22.974 -15.823  0.00  0.00    +0.150 HD
BRANCH   7  10
ATOM     10  CA  UNL     1      36.713 -24.076 -14.238  0.00  0.00    +0.172 C 
BRANCH  10  12
ATOM     11  OXT UNL     1      36.423 -26.305 -15.173  0.00  0.00    -0.248 OA
ATOM     12  C   UNL     1      35.979 -25.370 -14.521  0.00  0.00    +0.332 C 
BRANCH  12  13
ATOM     13  O   UNL     1      34.757 -25.400 -13.926  0.00  0.00    -0.479 OA
ATOM     14  H   UNL     1      34.352 -26.222 -13.727  0.00  0.00    +0.295 HD
ENDBRANCH  12  13
ENDBRANCH  10  12
BRANCH  10  15
ATOM     15  CB  UNL     1      36.181 -23.317 -13.016  0.00  0.00    +0.043 C 
BRANCH  15  16
ATOM     16  CG  UNL     1      36.913 -23.581 -11.694  0.00  0.00    +0.112 C 
BRANCH  16  18
ATOM     17  OE2 UNL     1      36.164 -23.991  -9.412  0.00  0.00    -0.250 OA
ATOM     18  CD  UNL     1      36.030 -24.167 -10.614  0.00  0.00    +0.314 C 
BRANCH  18  19
ATOM     19  OE1 UNL     1      35.064 -24.968 -11.138  0.00  0.00    -0.480 OA
ATOM     20  HE1 UNL     1      34.346 -24.590 -11.608  0.00  0.00    +0.295 HD
ENDBRANCH  18  19
ENDBRANCH  16  18
ENDBRANCH  15  16
ENDBRANCH  10  15
ENDBRANCH   7  10
ENDBRANCH   3   8
BRANCH   2  21
ATOM     21  N   UNL     1      34.541 -20.287 -20.461  0.00  0.00    -0.297 N 
ATOM     22  C   UNL     1      33.088 -20.122 -20.537  0.00  0.00    +0.113 C 
BRANCH  21  23
ATOM     23  C   UNL     1      35.317 -19.821 -21.589  0.00  0.00    +0.118 C 
BRANCH  23  27
ATOM     24  O   UNL     1      33.733 -16.781 -25.437  0.00  0.00    -0.209 OA
ATOM     25  N   UNL     1      34.549 -14.250 -22.436  0.00  0.00    -0.290 N 
ATOM     26  N   UNL     1      33.812 -14.621 -24.673  0.00  0.00    -0.322 NA
ATOM     27  C   UNL     1      35.118 -18.359 -21.807  0.00  0.00    -0.002 C 
ATOM     28  C   UNL     1      34.471 -16.524 -23.232  0.00  0.00    +0.108 C 
ATOM     29  C   UNL     1      34.654 -17.895 -23.039  0.00  0.00    +0.011 C 
ATOM     30  C   UNL     1      34.747 -15.613 -22.203  0.00  0.00    +0.062 C 
ATOM     31  C   UNL     1      35.395 -17.458 -20.778  0.00  0.00    -0.001 C 
ATOM     32  C   UNL     1      35.211 -16.089 -20.973  0.00  0.00    +0.015 C 
ATOM     33  C   UNL     1      33.977 -15.988 -24.532  0.00  0.00    +0.207 C 
ATOM     34  C   UNL     1      34.093 -13.844 -23.668  0.00  0.00    +0.174 C 
ATOM     35  C   UNL     1      33.901 -12.358 -23.858  0.00  0.00    +0.085 C 
ATOM     36  H   UNL     1      34.735 -13.591 -21.730  0.00  0.00    +0.154 HD
ENDBRANCH  23  27
ENDBRANCH  21  23
ENDBRANCH   2  21
TORSDOF 11
ENDMDL
MODEL 6
REMARK VINA RESULT:     -10.9      2.001      3.192
REMARK  Name = 104758
REMARK  11 active torsions:
REMARK  status: ('A' for Active; 'I' for Inactive)
REMARK    1  A    between atoms: C_2  and  N_21
REMARK    2  A    between atoms: C_3  and  C_8
REMARK    3  A    between atoms: N_7  and  CA_10
REMARK    4  A    between atoms: CA_10  and  C_12
REMARK    5  A    between atoms: CA_10  and  CB_15
REMARK    6  A    between atoms: C_12  and  O_13
REMARK    7  A    between atoms: CB_15  and  CG_16
REMARK    8  A    between atoms: CG_16  and  CD_18
REMARK    9  A    between atoms: CD_18  and  OE1_19
REMARK   10  A    between atoms: N_21  and  C_23
REMARK   11  A    between atoms: C_23  and  C_27
REMARK                            x       y       z     vdW  Elec       q    Type
REMARK                         _______ _______ _______ _____ _____    ______ ____
ROOT
ATOM      1  S   UNL     1      33.953 -21.402 -18.931  0.00  0.00    -0.068 S 
ATOM      2  C   UNL     1      35.094 -20.537 -19.869  0.00  0.00    +0.079 C 
ATOM      3  C   UNL     1      35.172 -21.969 -17.872  0.00  0.00    +0.084 C 
ATOM      4  C   UNL     1      36.376 -20.679 -19.385  0.00  0.00    +0.022 C 
ATOM      5  C   UNL     1      36.421 -21.509 -18.228  0.00  0.00    +0.013 C 
ENDROOT
BRANCH   3   8
ATOM      6  O   UNL     1      33.763 -23.513 -16.758  0.00  0.00    -0.270 OA
ATOM      7  N   UNL     1      35.668 -22.841 -15.665  0.00  0.00    -0.293 N 
ATOM      8  C   ACE A   0      34.808 -22.818 -16.784  0.00  0.00    +0.252 C 
ATOM      9  H   UNL     1      36.484 -22.292 -15.696  0.00  0.00    +0.150 HD
BRANCH   7  10
ATOM     10  CA  UNL     1      35.417 -23.625 -14.477  0.00  0.00    +0.172 C 
BRANCH  10  12
ATOM     11  OXT UNL     1      37.488 -22.756 -13.537  0.00  0.00    -0.248 OA
ATOM     12  C   UNL     1      36.325 -23.103 -13.383  0.00  0.00    +0.332 C 
BRANCH  12  13
ATOM     13  O   UNL     1      35.684 -23.022 -12.188  0.00  0.00    -0.479 OA
ATOM     14  H   UNL     1      35.183 -22.259 -11.974  0.00  0.00    +0.295 HD
ENDBRANCH  12  13
ENDBRANCH  10  12
BRANCH  10  15
ATOM     15  CB  UNL     1      35.550 -25.133 -14.724  0.00  0.00    +0.043 C 
BRANCH  15  16
ATOM     16  CG  UNL     1      36.551 -25.872 -13.827  0.00  0.00    +0.112 C 
BRANCH  16  18
ATOM     17  OE2 UNL     1      38.549 -27.211 -14.219  0.00  0.00    -0.250 OA
ATOM     18  CD  UNL     1      37.437 -26.845 -14.574  0.00  0.00    +0.314 C 
BRANCH  18  19
ATOM     19  OE1 UNL     1      36.865 -27.250 -15.738  0.00  0.00    -0.480 OA
ATOM     20  HE1 UNL     1      37.316 -27.852 -16.298  0.00  0.00    +0.295 HD
ENDBRANCH  18  19
ENDBRANCH  16  18
ENDBRANCH  15  16
ENDBRANCH  10  15
ENDBRANCH   7  10
ENDBRANCH   3   8
BRANCH   2  21
ATOM     21  N   UNL     1      34.709 -19.796 -20.979  0.00  0.00    -0.297 N 
ATOM     22  C   UNL     1      33.299 -19.699 -21.363  0.00  0.00    +0.113 C 
BRANCH  21  23
ATOM     23  C   UNL     1      35.666 -19.086 -21.800  0.00  0.00    +0.118 C 
BRANCH  23  27
ATOM     24  O   UNL     1      34.176 -15.906 -25.571  0.00  0.00    -0.209 OA
ATOM     25  N   UNL     1      34.255 -13.599 -22.294  0.00  0.00    -0.290 N 
ATOM     26  N   UNL     1      33.862 -13.839 -24.633  0.00  0.00    -0.322 NA
ATOM     27  C   UNL     1      35.297 -17.646 -21.925  0.00  0.00    -0.002 C 
ATOM     28  C   UNL     1      34.589 -15.775 -23.273  0.00  0.00    +0.108 C 
ATOM     29  C   UNL     1      34.933 -17.125 -23.167  0.00  0.00    +0.011 C 
ATOM     30  C   UNL     1      34.607 -14.943 -22.145  0.00  0.00    +0.062 C 
ATOM     31  C   UNL     1      35.317 -16.823 -20.798  0.00  0.00    -0.001 C 
ATOM     32  C   UNL     1      34.973 -15.474 -20.907  0.00  0.00    +0.015 C 
ATOM     33  C   UNL     1      34.194 -15.182 -24.581  0.00  0.00    +0.207 C 
ATOM     34  C   UNL     1      33.906 -13.134 -23.540  0.00  0.00    +0.174 C 
ATOM     35  C   UNL     1      33.538 -11.673 -23.634  0.00  0.00    +0.085 C 
ATOM     36  H   UNL     1      34.259 -12.993 -21.518  0.00  0.00    +0.154 HD
ENDBRANCH  23  27
ENDBRANCH  21  23
ENDBRANCH   2  21
TORSDOF 11
ENDMDL
MODEL 7
REMARK VINA RESULT:     -10.9      3.975     10.960
REMARK  Name = 104758
REMARK  11 active torsions:
REMARK  status: ('A' for Active; 'I' for Inactive)
REMARK    1  A    between atoms: C_2  and  N_21
REMARK    2  A    between atoms: C_3  and  C_8
REMARK    3  A    between atoms: N_7  and  CA_10
REMARK    4  A    between atoms: CA_10  and  C_12
REMARK    5  A    between atoms: CA_10  and  CB_15
REMARK    6  A    between atoms: C_12  and  O_13
REMARK    7  A    between atoms: CB_15  and  CG_16
REMARK    8  A    between atoms: CG_16  and  CD_18
REMARK    9  A    between atoms: CD_18  and  OE1_19
REMARK   10  A    between atoms: N_21  and  C_23
REMARK   11  A    between atoms: C_23  and  C_27
REMARK                            x       y       z     vdW  Elec       q    Type
REMARK                         _______ _______ _______ _____ _____    ______ ____
ROOT
ATOM      1  S   UNL     1      34.369 -15.224 -23.777  0.00  0.00    -0.068 S 
ATOM      2  C   UNL     1      34.893 -16.164 -22.445  0.00  0.00    +0.079 C 
ATOM      3  C   UNL     1      34.088 -13.864 -22.777  0.00  0.00    +0.084 C 
ATOM      4  C   UNL     1      34.853 -15.455 -21.265  0.00  0.00    +0.022 C 
ATOM      5  C   UNL     1      34.387 -14.123 -21.457  0.00  0.00    +0.013 C 
ENDROOT
BRANCH   3   8
ATOM      6  O   UNL     1      33.423 -12.501 -24.597  0.00  0.00    -0.270 OA
ATOM      7  N   UNL     1      33.324 -11.580 -22.495  0.00  0.00    -0.293 N 
ATOM      8  C   ACE A   0      33.597 -12.660 -23.364  0.00  0.00    +0.252 C 
ATOM      9  H   UNL     1      33.464 -11.715 -21.530  0.00  0.00    +0.150 HD
BRANCH   7  10
ATOM     10  CA  UNL     1      32.853 -10.290 -22.943  0.00  0.00    +0.172 C 
BRANCH  10  12
ATOM     11  OXT UNL     1      34.153  -8.247 -22.690  0.00  0.00    -0.248 OA
ATOM     12  C   UNL     1      34.061  -9.392 -23.111  0.00  0.00    +0.332 C 
BRANCH  12  13
ATOM     13  O   UNL     1      35.074 -10.023 -23.762  0.00  0.00    -0.479 OA
ATOM     14  H   UNL     1      35.361  -9.711 -24.597  0.00  0.00    +0.295 HD
ENDBRANCH  12  13
ENDBRANCH  10  12
BRANCH  10  15
ATOM     15  CB  UNL     1      31.770  -9.705 -22.028  0.00  0.00    +0.043 C 
BRANCH  15  16
ATOM     16  CG  UNL     1      31.929 -10.001 -20.531  0.00  0.00    +0.112 C 
BRANCH  16  18
ATOM     17  OE2 UNL     1      31.719  -7.648 -19.934  0.00  0.00    -0.250 OA
ATOM     18  CD  UNL     1      32.148  -8.766 -19.685  0.00  0.00    +0.314 C 
BRANCH  18  19
ATOM     19  OE1 UNL     1      32.931  -9.031 -18.606  0.00  0.00    -0.480 OA
ATOM     20  HE1 UNL     1      33.401  -8.337 -18.186  0.00  0.00    +0.295 HD
ENDBRANCH  18  19
ENDBRANCH  16  18
ENDBRANCH  15  16
ENDBRANCH  10  15
ENDBRANCH   7  10
ENDBRANCH   3   8
BRANCH   2  21
ATOM     21  N   UNL     1      35.299 -17.483 -22.603  0.00  0.00    -0.297 N 
ATOM     22  C   UNL     1      34.559 -18.395 -23.477  0.00  0.00    +0.113 C 
BRANCH  21  23
ATOM     23  C   UNL     1      36.462 -18.015 -21.927  0.00  0.00    +0.118 C 
BRANCH  23  27
ATOM     24  O   UNL     1      32.098 -20.273 -20.374  0.00  0.00    -0.209 OA
ATOM     25  N   UNL     1      34.960 -22.016 -18.175  0.00  0.00    -0.290 N 
ATOM     26  N   UNL     1      32.659 -21.800 -18.760  0.00  0.00    -0.322 NA
ATOM     27  C   UNL     1      36.073 -19.065 -20.941  0.00  0.00    -0.002 C 
ATOM     28  C   UNL     1      34.378 -20.408 -19.872  0.00  0.00    +0.108 C 
ATOM     29  C   UNL     1      34.732 -19.424 -20.798  0.00  0.00    +0.011 C 
ATOM     30  C   UNL     1      35.356 -21.037 -19.088  0.00  0.00    +0.062 C 
ATOM     31  C   UNL     1      37.051 -19.686 -20.164  0.00  0.00    -0.001 C 
ATOM     32  C   UNL     1      36.695 -20.670 -19.240  0.00  0.00    +0.015 C 
ATOM     33  C   UNL     1      32.958 -20.820 -19.690  0.00  0.00    +0.207 C 
ATOM     34  C   UNL     1      33.626 -22.333 -18.071  0.00  0.00    +0.174 C 
ATOM     35  C   UNL     1      33.264 -23.398 -17.065  0.00  0.00    +0.085 C 
ATOM     36  H   UNL     1      35.627 -22.473 -17.613  0.00  0.00    +0.154 HD
ENDBRANCH  23  27
ENDBRANCH  21  23
ENDBRANCH   2  21
TORSDOF 11
ENDMDL
MODEL 8
REMARK VINA RESULT:     -10.6      1.846      2.600
REMARK  Name = 104758
REMARK  11 active torsions:
REMARK  status: ('A' for Active; 'I' for Inactive)
REMARK    1  A    between atoms: C_2  and  N_21
REMARK    2  A    between atoms: C_3  and  C_8
REMARK    3  A    between atoms: N_7  and  CA_10
REMARK    4  A    between atoms: CA_10  and  C_12
REMARK    5  A    between atoms: CA_10  and  CB_15
REMARK    6  A    between atoms: C_12  and  O_13
REMARK    7  A    between atoms: CB_15  and  CG_16
REMARK    8  A    between atoms: CG_16  and  CD_18
REMARK    9  A    between atoms: CD_18  and  OE1_19
REMARK   10  A    between atoms: N_21  and  C_23
REMARK   11  A    between atoms: C_23  and  C_27
REMARK                            x       y       z     vdW  Elec       q    Type
REMARK                         _______ _______ _______ _____ _____    ______ ____
ROOT
ATOM      1  S   UNL     1      35.585 -21.341 -19.489  0.00  0.00    -0.068 S 
ATOM      2  C   UNL     1      34.827 -20.140 -20.445  0.00  0.00    +0.079 C 
ATOM      3  C   UNL     1      34.097 -21.785 -18.769  0.00  0.00    +0.084 C 
ATOM      4  C   UNL     1      33.470 -20.080 -20.219  0.00  0.00    +0.022 C 
ATOM      5  C   UNL     1      33.047 -21.034 -19.249  0.00  0.00    +0.013 C 
ENDROOT
BRANCH   3   8
ATOM      6  O   UNL     1      33.591 -23.967 -17.998  0.00  0.00    -0.270 OA
ATOM      7  N   UNL     1      34.620 -22.537 -16.525  0.00  0.00    -0.293 N 
ATOM      8  C   ACE A   0      34.080 -22.829 -17.796  0.00  0.00    +0.252 C 
ATOM      9  H   UNL     1      35.001 -21.641 -16.377  0.00  0.00    +0.150 HD
BRANCH   7  10
ATOM     10  CA  UNL     1      34.646 -23.479 -15.429  0.00  0.00    +0.172 C 
BRANCH  10  12
ATOM     11  OXT UNL     1      32.266 -23.164 -15.030  0.00  0.00    -0.248 OA
ATOM     12  C   UNL     1      33.405 -23.245 -14.593  0.00  0.00    +0.332 C 
BRANCH  12  13
ATOM     13  O   UNL     1      33.694 -23.171 -13.267  0.00  0.00    -0.479 OA
ATOM     14  H   UNL     1      34.582 -23.070 -12.985  0.00  0.00    +0.295 HD
ENDBRANCH  12  13
ENDBRANCH  10  12
BRANCH  10  15
ATOM     15  CB  UNL     1      35.953 -23.419 -14.628  0.00  0.00    +0.043 C 
BRANCH  15  16
ATOM     16  CG  UNL     1      36.753 -24.725 -14.554  0.00  0.00    +0.112 C 
BRANCH  16  18
ATOM     17  OE2 UNL     1      38.673 -24.869 -13.060  0.00  0.00    -0.250 OA
ATOM     18  CD  UNL     1      38.195 -24.534 -14.135  0.00  0.00    +0.314 C 
BRANCH  18  19
ATOM     19  OE1 UNL     1      38.914 -23.895 -15.095  0.00  0.00    -0.480 OA
ATOM     20  HE1 UNL     1      38.575 -23.826 -15.967  0.00  0.00    +0.295 HD
ENDBRANCH  18  19
ENDBRANCH  16  18
ENDBRANCH  15  16
ENDBRANCH  10  15
ENDBRANCH   7  10
ENDBRANCH   3   8
BRANCH   2  21
ATOM     21  N   UNL     1      35.553 -19.351 -21.328  0.00  0.00    -0.297 N 
ATOM     22  C   UNL     1      36.724 -18.599 -20.871  0.00  0.00    +0.113 C 
BRANCH  21  23
ATOM     23  C   UNL     1      35.200 -19.237 -22.726  0.00  0.00    +0.118 C 
BRANCH  23  27
ATOM     24  O   UNL     1      34.985 -14.705 -20.282  0.00  0.00    -0.209 OA
ATOM     25  N   UNL     1      33.906 -13.859 -24.050  0.00  0.00    -0.290 N 
ATOM     26  N   UNL     1      34.325 -13.136 -21.817  0.00  0.00    -0.322 NA
ATOM     27  C   UNL     1      34.859 -17.828 -23.078  0.00  0.00    -0.002 C 
ATOM     28  C   UNL     1      34.599 -15.515 -22.442  0.00  0.00    +0.108 C 
ATOM     29  C   UNL     1      34.920 -16.832 -22.102  0.00  0.00    +0.011 C 
ATOM     30  C   UNL     1      34.218 -15.188 -23.751  0.00  0.00    +0.062 C 
ATOM     31  C   UNL     1      34.481 -17.509 -24.383  0.00  0.00    -0.001 C 
ATOM     32  C   UNL     1      34.161 -16.192 -24.720  0.00  0.00    +0.015 C 
ATOM     33  C   UNL     1      34.652 -14.424 -21.430  0.00  0.00    +0.207 C 
ATOM     34  C   UNL     1      33.980 -12.916 -23.052  0.00  0.00    +0.174 C 
ATOM     35  C   UNL     1      33.629 -11.499 -23.439  0.00  0.00    +0.085 C 
ATOM     36  H   UNL     1      33.637 -13.603 -24.961  0.00  0.00    +0.154 HD
ENDBRANCH  23  27
ENDBRANCH  21  23
ENDBRANCH   2  21
TORSDOF 11
ENDMDL
MODEL 9
REMARK VINA RESULT:     -10.5      1.597      2.412
REMARK  Name = 104758
REMARK  11 active torsions:
REMARK  status: ('A' for Active; 'I' for Inactive)
REMARK    1  A    between atoms: C_2  and  N_21
REMARK    2  A    between atoms: C_3  and  C_8
REMARK    3  A    between atoms: N_7  and  CA_10
REMARK    4  A    between atoms: CA_10  and  C_12
REMARK    5  A    between atoms: CA_10  and  CB_15
REMARK    6  A    between atoms: C_12  and  O_13
REMARK    7  A    between atoms: CB_15  and  CG_16
REMARK    8  A    between atoms: CG_16  and  CD_18
REMARK    9  A    between atoms: CD_18  and  OE1_19
REMARK   10  A    between atoms: N_21  and  C_23
REMARK   11  A    between atoms: C_23  and  C_27
REMARK                            x       y       z     vdW  Elec       q    Type
REMARK                         _______ _______ _______ _____ _____    ______ ____
ROOT
ATOM      1  S   UNL     1      34.853 -21.355 -19.143  0.00  0.00    -0.068 S 
ATOM      2  C   UNL     1      34.493 -20.149 -20.304  0.00  0.00    +0.079 C 
ATOM      3  C   UNL     1      33.202 -21.516 -18.718  0.00  0.00    +0.084 C 
ATOM      4  C   UNL     1      33.144 -19.877 -20.364  0.00  0.00    +0.022 C 
ATOM      5  C   UNL     1      32.396 -20.669 -19.446  0.00  0.00    +0.013 C 
ENDROOT
BRANCH   3   8
ATOM      6  O   UNL     1      33.531 -23.446 -17.385  0.00  0.00    -0.270 OA
ATOM      7  N   UNL     1      31.591 -22.260 -17.067  0.00  0.00    -0.293 N 
ATOM      8  C   ACE A   0      32.833 -22.455 -17.708  0.00  0.00    +0.252 C 
ATOM      9  H   UNL     1      31.051 -21.479 -17.328  0.00  0.00    +0.150 HD
BRANCH   7  10
ATOM     10  CA  UNL     1      31.067 -23.142 -16.048  0.00  0.00    +0.172 C 
BRANCH  10  12
ATOM     11  OXT UNL     1      28.894 -22.130 -16.472  0.00  0.00    -0.248 OA
ATOM     12  C   UNL     1      29.556 -23.105 -16.142  0.00  0.00    +0.332 C 
BRANCH  12  13
ATOM     13  O   UNL     1      29.000 -24.310 -15.852  0.00  0.00    -0.479 OA
ATOM     14  H   UNL     1      28.089 -24.458 -16.011  0.00  0.00    +0.295 HD
ENDBRANCH  12  13
ENDBRANCH  10  12
BRANCH  10  15
ATOM     15  CB  UNL     1      31.608 -22.818 -14.650  0.00  0.00    +0.043 C 
BRANCH  15  16
ATOM     16  CG  UNL     1      32.106 -24.016 -13.832  0.00  0.00    +0.112 C 
BRANCH  16  18
ATOM     17  OE2 UNL     1      30.506 -25.843 -14.030  0.00  0.00    -0.250 OA
ATOM     18  CD  UNL     1      31.001 -24.940 -13.369  0.00  0.00    +0.314 C 
BRANCH  18  19
ATOM     19  OE1 UNL     1      30.576 -24.624 -12.117  0.00  0.00    -0.480 OA
ATOM     20  HE1 UNL     1      30.641 -25.256 -11.427  0.00  0.00    +0.295 HD
ENDBRANCH  18  19
ENDBRANCH  16  18
ENDBRANCH  15  16
ENDBRANCH  10  15
ENDBRANCH   7  10
ENDBRANCH   3   8
BRANCH   2  21
ATOM     21  N   UNL     1      35.491 -19.554 -21.065  0.00  0.00    -0.297 N 
ATOM     22  C   UNL     1      36.539 -18.753 -20.430  0.00  0.00    +0.113 C 
BRANCH  21  23
ATOM     23  C   UNL     1      35.549 -19.697 -22.503  0.00  0.00    +0.118 C 
BRANCH  23  27
ATOM     24  O   UNL     1      35.404 -14.592 -21.817  0.00  0.00    -0.209 OA
ATOM     25  N   UNL     1      33.166 -15.224 -25.083  0.00  0.00    -0.290 N 
ATOM     26  N   UNL     1      34.107 -13.718 -23.493  0.00  0.00    -0.322 NA
ATOM     27  C   UNL     1      34.922 -18.527 -23.182  0.00  0.00    -0.002 C 
ATOM     28  C   UNL     1      34.527 -16.151 -23.324  0.00  0.00    +0.108 C 
ATOM     29  C   UNL     1      35.119 -17.241 -22.680  0.00  0.00    +0.011 C 
ATOM     30  C   UNL     1      33.739 -16.340 -24.468  0.00  0.00    +0.062 C 
ATOM     31  C   UNL     1      34.138 -18.722 -24.321  0.00  0.00    -0.001 C 
ATOM     32  C   UNL     1      33.548 -17.632 -24.963  0.00  0.00    +0.015 C 
ATOM     33  C   UNL     1      34.715 -14.763 -22.819  0.00  0.00    +0.207 C 
ATOM     34  C   UNL     1      33.390 -13.978 -24.547  0.00  0.00    +0.174 C 
ATOM     35  C   UNL     1      32.742 -12.814 -25.257  0.00  0.00    +0.085 C 
ATOM     36  H   UNL     1      32.609 -15.329 -25.888  0.00  0.00    +0.154 HD
ENDBRANCH  23  27
ENDBRANCH  21  23
ENDBRANCH   2  21
TORSDOF 11
ENDMDL
