MODEL 1
REMARK VINA RESULT:     -11.7      0.000      0.000
REMARK  Name = 9963057
REMARK  12 active torsions:
REMARK  status: ('A' for Active; 'I' for Inactive)
REMARK    1  A    between atoms: N_1  and  C_4
REMARK    2  A    between atoms: N_1  and  C_21
REMARK    3  A    between atoms: C_12  and  O_14
REMARK    4  A    between atoms: O_14  and  C_15
REMARK    5  A    between atoms: C_15  and  C_18
REMARK    6  A    between atoms: C_21  and  C_22
REMARK    7  A    between atoms: C_22  and  C_23
REMARK    8  A    between atoms: C_22  and  O_35
REMARK    9  A    between atoms: C_26  and  C_31
REMARK   10  A    between atoms: C_28  and  O_29
REMARK   11  A    between atoms: C_31  and  C_32
REMARK   12  A    between atoms: C_32  and  O_33
REMARK                            x       y       z     vdW  Elec       q    Type
REMARK                         _______ _______ _______ _____ _____    ______ ____
ROOT
ATOM      1  N   UNL     1      32.933 -22.535 -18.071  0.00  0.00    +0.387 N 
ATOM      2  H   UNL     1      32.711 -23.121 -18.875  0.00  0.00    -0.084 HD
ATOM      3  H   UNL     1      32.088 -22.086 -17.714  0.00  0.00    -0.084 HD
ENDROOT
BRANCH   1   4
ATOM      4  C   UNL     1      33.877 -21.495 -18.481  0.00  0.00    -0.057 C 
ATOM      5  C   UNL     1      35.305 -22.043 -18.455  0.00  0.00    -0.016 C 
ATOM      6  C   UNL     1      33.536 -20.988 -19.888  0.00  0.00    +0.005 C 
ATOM      7  C   UNL     1      36.306 -20.933 -18.773  0.00  0.00    +0.024 C 
ATOM      8  C   UNL     1      34.606 -20.097 -20.471  0.00  0.00    -0.025 C 
ATOM      9  C   UNL     1      35.921 -20.103 -19.972  0.00  0.00    -0.026 C 
ATOM     10  C   UNL     1      34.293 -19.290 -21.576  0.00  0.00    +0.032 C 
ATOM     11  C   UNL     1      36.887 -19.275 -20.563  0.00  0.00    -0.001 C 
ATOM     12  C   UNL     1      35.264 -18.479 -22.162  0.00  0.00    +0.139 C 
ATOM     13  C   UNL     1      36.560 -18.470 -21.654  0.00  0.00    +0.037 C 
BRANCH  12  14
ATOM     14  O   UNL     1      34.946 -17.698 -23.229  0.00  0.00    -0.466 OA
BRANCH  14  15
ATOM     15  C   UNL     1      35.070 -16.287 -23.062  0.00  0.00    +0.290 C 
BRANCH  15  18
ATOM     16  O   UNL     1      34.764 -16.039 -25.399  0.00  0.00    -0.271 OA
ATOM     17  N   UNL     1      33.738 -14.439 -24.064  0.00  0.00    -0.273 N 
ATOM     18  C   UNL     1      34.515 -15.578 -24.281  0.00  0.00    +0.270 C 
ATOM     19  C   UNL     1      33.175 -13.729 -25.205  0.00  0.00    +0.115 C 
ATOM     20  C   UNL     1      33.411 -13.874 -22.758  0.00  0.00    +0.115 C 
ENDBRANCH  15  18
ENDBRANCH  14  15
ENDBRANCH  12  14
ENDBRANCH   1   4
BRANCH   1  21
ATOM     21  C   UNL     1      33.502 -23.362 -17.018  0.00  0.00    -0.047 C 
BRANCH  21  22
ATOM     22  C   UNL     1      33.088 -22.845 -15.635  0.00  0.00    +0.112 C 
BRANCH  22  23
ATOM     23  C   UNL     1      31.864 -23.568 -15.117  0.00  0.00    +0.002 C 
ATOM     24  C   UNL     1      30.623 -23.356 -15.719  0.00  0.00    -0.003 C 
ATOM     25  C   UNL     1      31.976 -24.447 -14.040  0.00  0.00    +0.001 C 
ATOM     26  C   UNL     1      29.495 -24.023 -15.241  0.00  0.00    +0.014 C 
ATOM     27  C   UNL     1      30.847 -25.112 -13.561  0.00  0.00    +0.036 C 
ATOM     28  C   UNL     1      29.607 -24.900 -14.163  0.00  0.00    +0.130 C 
BRANCH  28  29
ATOM     29  O   UNL     1      28.514 -25.559 -13.685  0.00  0.00    -0.506 OA
ATOM     30  H   UNL     1      27.874 -25.898 -14.280  0.00  0.00    +0.292 HD
ENDBRANCH  28  29
BRANCH  26  31
ATOM     31  C   UNL     1      28.174 -23.785 -15.896  0.00  0.00    +0.061 C 
BRANCH  31  32
ATOM     32  C   UNL     1      27.516 -22.477 -15.451  0.00  0.00    +0.142 C 
BRANCH  32  33
ATOM     33  O   UNL     1      27.195 -21.692 -16.592  0.00  0.00    -0.382 OA
ATOM     34  H   UNL     1      27.942 -21.110 -16.806  0.00  0.00    +0.210 HD
ENDBRANCH  32  33
ENDBRANCH  31  32
ENDBRANCH  26  31
ENDBRANCH  22  23
BRANCH  22  35
ATOM     35  O   UNL     1      34.148 -23.034 -14.697  0.00  0.00    -0.382 OA
ATOM     36  H   UNL     1      34.459 -23.951 -14.743  0.00  0.00    +0.211 HD
ENDBRANCH  22  35
ENDBRANCH  21  22
ENDBRANCH   1  21
TORSDOF 12
ENDMDL
MODEL 2
REMARK VINA RESULT:     -11.3      3.651     10.983
REMARK  Name = 9963057
REMARK  12 active torsions:
REMARK  status: ('A' for Active; 'I' for Inactive)
REMARK    1  A    between atoms: N_1  and  C_4
REMARK    2  A    between atoms: N_1  and  C_21
REMARK    3  A    between atoms: C_12  and  O_14
REMARK    4  A    between atoms: O_14  and  C_15
REMARK    5  A    between atoms: C_15  and  C_18
REMARK    6  A    between atoms: C_21  and  C_22
REMARK    7  A    between atoms: C_22  and  C_23
REMARK    8  A    between atoms: C_22  and  O_35
REMARK    9  A    between atoms: C_26  and  C_31
REMARK   10  A    between atoms: C_28  and  O_29
REMARK   11  A    between atoms: C_31  and  C_32
REMARK   12  A    between atoms: C_32  and  O_33
REMARK                            x       y       z     vdW  Elec       q    Type
REMARK                         _______ _______ _______ _____ _____    ______ ____
ROOT
ATOM      1  N   UNL     1      35.591 -21.254 -19.623  0.00  0.00    +0.387 N 
ATOM      2  H   UNL     1      35.575 -22.064 -20.243  0.00  0.00    -0.084 HD
ATOM      3  H   UNL     1      36.554 -20.982 -19.419  0.00  0.00    -0.084 HD
ENDROOT
BRANCH   1   4
ATOM      4  C   UNL     1      34.925 -21.598 -18.367  0.00  0.00    -0.057 C 
ATOM      5  C   UNL     1      33.956 -22.760 -18.588  0.00  0.00    -0.016 C 
ATOM      6  C   UNL     1      35.959 -21.975 -17.298  0.00  0.00    +0.005 C 
ATOM      7  C   UNL     1      33.173 -23.051 -17.307  0.00  0.00    +0.024 C 
ATOM      8  C   UNL     1      35.339 -22.575 -16.060  0.00  0.00    -0.025 C 
ATOM      9  C   UNL     1      34.042 -23.119 -16.076  0.00  0.00    -0.026 C 
ATOM     10  C   UNL     1      36.099 -22.643 -14.882  0.00  0.00    +0.032 C 
ATOM     11  C   UNL     1      33.518 -23.687 -14.906  0.00  0.00    -0.001 C 
ATOM     12  C   UNL     1      35.571 -23.220 -13.727  0.00  0.00    +0.139 C 
ATOM     13  C   UNL     1      34.279 -23.740 -13.739  0.00  0.00    +0.037 C 
BRANCH  12  14
ATOM     14  O   UNL     1      36.317 -23.276 -12.591  0.00  0.00    -0.466 OA
BRANCH  14  15
ATOM     15  C   UNL     1      36.823 -24.553 -12.208  0.00  0.00    +0.290 C 
BRANCH  15  18
ATOM     16  O   UNL     1      39.092 -23.898 -12.023  0.00  0.00    -0.271 OA
ATOM     17  N   UNL     1      38.648 -25.610 -13.528  0.00  0.00    -0.273 N 
ATOM     18  C   UNL     1      38.288 -24.653 -12.578  0.00  0.00    +0.270 C 
ATOM     19  C   UNL     1      40.047 -25.750 -13.910  0.00  0.00    +0.115 C 
ATOM     20  C   UNL     1      37.728 -26.529 -14.194  0.00  0.00    +0.115 C 
ENDBRANCH  15  18
ENDBRANCH  14  15
ENDBRANCH  12  14
ENDBRANCH   1   4
BRANCH   1  21
ATOM     21  C   UNL     1      34.920 -20.140 -20.274  0.00  0.00    -0.047 C 
BRANCH  21  22
ATOM     22  C   UNL     1      35.933 -19.228 -20.977  0.00  0.00    +0.112 C 
BRANCH  22  23
ATOM     23  C   UNL     1      35.315 -18.529 -22.168  0.00  0.00    +0.002 C 
ATOM     24  C   UNL     1      35.394 -17.141 -22.279  0.00  0.00    -0.003 C 
ATOM     25  C   UNL     1      34.668 -19.272 -23.155  0.00  0.00    +0.001 C 
ATOM     26  C   UNL     1      34.825 -16.496 -23.377  0.00  0.00    +0.014 C 
ATOM     27  C   UNL     1      34.098 -18.627 -24.253  0.00  0.00    +0.036 C 
ATOM     28  C   UNL     1      34.176 -17.239 -24.363  0.00  0.00    +0.130 C 
BRANCH  28  29
ATOM     29  O   UNL     1      33.616 -16.625 -25.443  0.00  0.00    -0.506 OA
ATOM     30  H   UNL     1      32.984 -15.944 -25.319  0.00  0.00    +0.292 HD
ENDBRANCH  28  29
BRANCH  26  31
ATOM     31  C   UNL     1      34.918 -15.009 -23.481  0.00  0.00    +0.061 C 
BRANCH  31  32
ATOM     32  C   UNL     1      33.669 -14.296 -22.956  0.00  0.00    +0.142 C 
BRANCH  32  33
ATOM     33  O   UNL     1      32.764 -14.069 -24.030  0.00  0.00    -0.382 OA
ATOM     34  H   UNL     1      33.137 -13.403 -24.630  0.00  0.00    +0.210 HD
ENDBRANCH  32  33
ENDBRANCH  31  32
ENDBRANCH  26  31
ENDBRANCH  22  23
BRANCH  22  35
ATOM     35  O   UNL     1      36.413 -18.232 -20.074  0.00  0.00    -0.382 OA
ATOM     36  H   UNL     1      36.301 -18.543 -19.162  0.00  0.00    +0.211 HD
ENDBRANCH  22  35
ENDBRANCH  21  22
ENDBRANCH   1  21
TORSDOF 12
ENDMDL
MODEL 3
REMARK VINA RESULT:     -11.2      2.315     10.609
REMARK  Name = 9963057
REMARK  12 active torsions:
REMARK  status: ('A' for Active; 'I' for Inactive)
REMARK    1  A    between atoms: N_1  and  C_4
REMARK    2  A    between atoms: N_1  and  C_21
REMARK    3  A    between atoms: C_12  and  O_14
REMARK    4  A    between atoms: O_14  and  C_15
REMARK    5  A    between atoms: C_15  and  C_18
REMARK    6  A    between atoms: C_21  and  C_22
REMARK    7  A    between atoms: C_22  and  C_23
REMARK    8  A    between atoms: C_22  and  O_35
REMARK    9  A    between atoms: C_26  and  C_31
REMARK   10  A    between atoms: C_28  and  O_29
REMARK   11  A    between atoms: C_31  and  C_32
REMARK   12  A    between atoms: C_32  and  O_33
REMARK                            x       y       z     vdW  Elec       q    Type
REMARK                         _______ _______ _______ _____ _____    ______ ____
ROOT
ATOM      1  N   UNL     1      35.609 -17.415 -23.183  0.00  0.00    +0.387 N 
ATOM      2  H   UNL     1      36.154 -17.542 -24.035  0.00  0.00    -0.084 HD
ATOM      3  H   UNL     1      35.921 -16.582 -22.683  0.00  0.00    -0.084 HD
ENDROOT
BRANCH   1   4
ATOM      4  C   UNL     1      35.795 -18.578 -22.316  0.00  0.00    -0.057 C 
ATOM      5  C   UNL     1      36.933 -18.319 -21.327  0.00  0.00    -0.016 C 
ATOM      6  C   UNL     1      34.501 -18.892 -21.555  0.00  0.00    +0.005 C 
ATOM      7  C   UNL     1      37.209 -19.571 -20.494  0.00  0.00    +0.024 C 
ATOM      8  C   UNL     1      34.689 -19.920 -20.466  0.00  0.00    -0.025 C 
ATOM      9  C   UNL     1      35.961 -20.209 -19.938  0.00  0.00    -0.026 C 
ATOM     10  C   UNL     1      33.560 -20.558 -19.929  0.00  0.00    +0.032 C 
ATOM     11  C   UNL     1      36.081 -21.155 -18.910  0.00  0.00    -0.001 C 
ATOM     12  C   UNL     1      33.692 -21.489 -18.899  0.00  0.00    +0.139 C 
ATOM     13  C   UNL     1      34.953 -21.789 -18.392  0.00  0.00    +0.037 C 
BRANCH  12  14
ATOM     14  O   UNL     1      32.589 -22.103 -18.391  0.00  0.00    -0.466 OA
BRANCH  14  15
ATOM     15  C   UNL     1      32.764 -22.876 -17.205  0.00  0.00    +0.290 C 
BRANCH  15  18
ATOM     16  O   UNL     1      30.484 -22.346 -16.838  0.00  0.00    -0.271 OA
ATOM     17  N   UNL     1      31.657 -23.123 -14.991  0.00  0.00    -0.273 N 
ATOM     18  C   UNL     1      31.533 -22.754 -16.331  0.00  0.00    +0.270 C 
ATOM     19  C   UNL     1      30.498 -23.032 -14.112  0.00  0.00    +0.115 C 
ATOM     20  C   UNL     1      32.876 -23.623 -14.359  0.00  0.00    +0.115 C 
ENDBRANCH  15  18
ENDBRANCH  14  15
ENDBRANCH  12  14
ENDBRANCH   1   4
BRANCH   1  21
ATOM     21  C   UNL     1      34.206 -17.252 -23.532  0.00  0.00    -0.047 C 
BRANCH  21  22
ATOM     22  C   UNL     1      34.045 -16.269 -24.698  0.00  0.00    +0.112 C 
BRANCH  22  23
ATOM     23  C   UNL     1      33.807 -14.859 -24.204  0.00  0.00    +0.002 C 
ATOM     24  C   UNL     1      33.737 -14.602 -22.835  0.00  0.00    -0.003 C 
ATOM     25  C   UNL     1      33.656 -13.816 -25.118  0.00  0.00    +0.001 C 
ATOM     26  C   UNL     1      33.517 -13.302 -22.380  0.00  0.00    +0.014 C 
ATOM     27  C   UNL     1      33.435 -12.516 -24.663  0.00  0.00    +0.036 C 
ATOM     28  C   UNL     1      33.365 -12.260 -23.294  0.00  0.00    +0.130 C 
BRANCH  28  29
ATOM     29  O   UNL     1      33.151 -10.984 -22.865  0.00  0.00    -0.506 OA
ATOM     30  H   UNL     1      33.876 -10.443 -22.620  0.00  0.00    +0.292 HD
ENDBRANCH  28  29
BRANCH  26  31
ATOM     31  C   UNL     1      33.445 -13.045 -20.911  0.00  0.00    +0.061 C 
BRANCH  31  32
ATOM     32  C   UNL     1      32.041 -13.256 -20.337  0.00  0.00    +0.142 C 
BRANCH  32  33
ATOM     33  O   UNL     1      31.163 -12.262 -20.850  0.00  0.00    -0.382 OA
ATOM     34  H   UNL     1      30.455 -12.689 -21.359  0.00  0.00    +0.210 HD
ENDBRANCH  32  33
ENDBRANCH  31  32
ENDBRANCH  26  31
ENDBRANCH  22  23
BRANCH  22  35
ATOM     35  O   UNL     1      35.219 -16.265 -25.509  0.00  0.00    -0.382 OA
ATOM     36  H   UNL     1      35.563 -17.169 -25.583  0.00  0.00    +0.211 HD
ENDBRANCH  22  35
ENDBRANCH  21  22
ENDBRANCH   1  21
TORSDOF 12
ENDMDL
MODEL 4
REMARK VINA RESULT:     -11.1      2.673     10.714
REMARK  Name = 9963057
REMARK  12 active torsions:
REMARK  status: ('A' for Active; 'I' for Inactive)
REMARK    1  A    between atoms: N_1  and  C_4
REMARK    2  A    between atoms: N_1  and  C_21
REMARK    3  A    between atoms: C_12  and  O_14
REMARK    4  A    between atoms: O_14  and  C_15
REMARK    5  A    between atoms: C_15  and  C_18
REMARK    6  A    between atoms: C_21  and  C_22
REMARK    7  A    between atoms: C_22  and  C_23
REMARK    8  A    between atoms: C_22  and  O_35
REMARK    9  A    between atoms: C_26  and  C_31
REMARK   10  A    between atoms: C_28  and  O_29
REMARK   11  A    between atoms: C_31  and  C_32
REMARK   12  A    between atoms: C_32  and  O_33
REMARK                            x       y       z     vdW  Elec       q    Type
REMARK                         _______ _______ _______ _____ _____    ______ ____
ROOT
ATOM      1  N   UNL     1      35.697 -17.414 -22.816  0.00  0.00    +0.387 N 
ATOM      2  H   UNL     1      35.531 -17.664 -23.791  0.00  0.00    -0.084 HD
ATOM      3  H   UNL     1      36.555 -16.868 -22.730  0.00  0.00    -0.084 HD
ENDROOT
BRANCH   1   4
ATOM      4  C   UNL     1      35.840 -18.637 -22.026  0.00  0.00    -0.057 C 
ATOM      5  C   UNL     1      37.001 -18.493 -21.041  0.00  0.00    -0.016 C 
ATOM      6  C   UNL     1      34.542 -18.937 -21.265  0.00  0.00    +0.005 C 
ATOM      7  C   UNL     1      37.228 -19.805 -20.291  0.00  0.00    +0.024 C 
ATOM      8  C   UNL     1      34.695 -20.038 -20.244  0.00  0.00    -0.025 C 
ATOM      9  C   UNL     1      35.959 -20.418 -19.755  0.00  0.00    -0.026 C 
ATOM     10  C   UNL     1      33.544 -20.654 -19.728  0.00  0.00    +0.032 C 
ATOM     11  C   UNL     1      36.048 -21.430 -18.788  0.00  0.00    -0.001 C 
ATOM     12  C   UNL     1      33.645 -21.652 -18.759  0.00  0.00    +0.139 C 
ATOM     13  C   UNL     1      34.897 -22.041 -18.292  0.00  0.00    +0.037 C 
BRANCH  12  14
ATOM     14  O   UNL     1      32.522 -22.244 -18.272  0.00  0.00    -0.466 OA
BRANCH  14  15
ATOM     15  C   UNL     1      32.641 -22.944 -17.035  0.00  0.00    +0.290 C 
BRANCH  15  18
ATOM     16  O   UNL     1      30.355 -22.360 -16.811  0.00  0.00    -0.271 OA
ATOM     17  N   UNL     1      31.389 -23.172 -14.897  0.00  0.00    -0.273 N 
ATOM     18  C   UNL     1      31.360 -22.796 -16.240  0.00  0.00    +0.270 C 
ATOM     19  C   UNL     1      30.179 -23.056 -14.093  0.00  0.00    +0.115 C 
ATOM     20  C   UNL     1      32.553 -23.704 -14.192  0.00  0.00    +0.115 C 
ENDBRANCH  15  18
ENDBRANCH  14  15
ENDBRANCH  12  14
ENDBRANCH   1   4
BRANCH   1  21
ATOM     21  C   UNL     1      34.583 -16.614 -22.332  0.00  0.00    -0.047 C 
BRANCH  21  22
ATOM     22  C   UNL     1      35.078 -15.484 -21.422  0.00  0.00    +0.112 C 
BRANCH  22  23
ATOM     23  C   UNL     1      34.235 -14.237 -21.579  0.00  0.00    +0.002 C 
ATOM     24  C   UNL     1      34.356 -13.455 -22.727  0.00  0.00    -0.003 C 
ATOM     25  C   UNL     1      33.339 -13.870 -20.576  0.00  0.00    +0.001 C 
ATOM     26  C   UNL     1      33.578 -12.305 -22.872  0.00  0.00    +0.014 C 
ATOM     27  C   UNL     1      32.563 -12.720 -20.720  0.00  0.00    +0.036 C 
ATOM     28  C   UNL     1      32.683 -11.938 -21.868  0.00  0.00    +0.130 C 
BRANCH  28  29
ATOM     29  O   UNL     1      31.917 -10.818 -21.994  0.00  0.00    -0.506 OA
ATOM     30  H   UNL     1      32.063 -10.084 -21.430  0.00  0.00    +0.292 HD
ENDBRANCH  28  29
BRANCH  26  31
ATOM     31  C   UNL     1      33.719 -11.479 -24.108  0.00  0.00    +0.061 C 
BRANCH  31  32
ATOM     32  C   UNL     1      34.745 -10.353 -23.958  0.00  0.00    +0.142 C 
BRANCH  32  33
ATOM     33  O   UNL     1      34.119  -9.212 -23.384  0.00  0.00    -0.382 OA
ATOM     34  H   UNL     1      34.701  -8.830 -22.707  0.00  0.00    +0.210 HD
ENDBRANCH  32  33
ENDBRANCH  31  32
ENDBRANCH  26  31
ENDBRANCH  22  23
BRANCH  22  35
ATOM     35  O   UNL     1      35.025 -15.888 -20.054  0.00  0.00    -0.382 OA
ATOM     36  H   UNL     1      35.069 -15.105 -19.484  0.00  0.00    +0.211 HD
ENDBRANCH  22  35
ENDBRANCH  21  22
ENDBRANCH   1  21
TORSDOF 12
ENDMDL
MODEL 5
REMARK VINA RESULT:     -11.0      3.631     11.194
REMARK  Name = 9963057
REMARK  12 active torsions:
REMARK  status: ('A' for Active; 'I' for Inactive)
REMARK    1  A    between atoms: N_1  and  C_4
REMARK    2  A    between atoms: N_1  and  C_21
REMARK    3  A    between atoms: C_12  and  O_14
REMARK    4  A    between atoms: O_14  and  C_15
REMARK    5  A    between atoms: C_15  and  C_18
REMARK    6  A    between atoms: C_21  and  C_22
REMARK    7  A    between atoms: C_22  and  C_23
REMARK    8  A    between atoms: C_22  and  O_35
REMARK    9  A    between atoms: C_26  and  C_31
REMARK   10  A    between atoms: C_28  and  O_29
REMARK   11  A    between atoms: C_31  and  C_32
REMARK   12  A    between atoms: C_32  and  O_33
REMARK                            x       y       z     vdW  Elec       q    Type
REMARK                         _______ _______ _______ _____ _____    ______ ____
ROOT
ATOM      1  N   UNL     1      36.315 -18.699 -21.510  0.00  0.00    +0.387 N 
ATOM      2  H   UNL     1      36.817 -19.457 -21.972  0.00  0.00    -0.084 HD
ATOM      3  H   UNL     1      36.970 -18.084 -21.026  0.00  0.00    -0.084 HD
ENDROOT
BRANCH   1   4
ATOM      4  C   UNL     1      35.389 -19.264 -20.529  0.00  0.00    -0.057 C 
ATOM      5  C   UNL     1      34.131 -19.779 -21.231  0.00  0.00    -0.016 C 
ATOM      6  C   UNL     1      36.061 -20.404 -19.754  0.00  0.00    +0.005 C 
ATOM      7  C   UNL     1      33.111 -20.267 -20.202  0.00  0.00    +0.024 C 
ATOM      8  C   UNL     1      35.094 -21.191 -18.903  0.00  0.00    -0.025 C 
ATOM      9  C   UNL     1      33.708 -21.158 -19.141  0.00  0.00    -0.026 C 
ATOM     10  C   UNL     1      35.598 -22.020 -17.889  0.00  0.00    +0.032 C 
ATOM     11  C   UNL     1      32.851 -21.926 -18.339  0.00  0.00    -0.001 C 
ATOM     12  C   UNL     1      34.737 -22.788 -17.104  0.00  0.00    +0.139 C 
ATOM     13  C   UNL     1      33.364 -22.738 -17.328  0.00  0.00    +0.037 C 
BRANCH  12  14
ATOM     14  O   UNL     1      35.238 -23.584 -16.122  0.00  0.00    -0.466 OA
BRANCH  14  15
ATOM     15  C   UNL     1      35.859 -22.935 -15.013  0.00  0.00    +0.290 C 
BRANCH  15  18
ATOM     16  O   UNL     1      38.181 -22.796 -15.463  0.00  0.00    -0.271 OA
ATOM     17  N   UNL     1      37.516 -24.539 -14.079  0.00  0.00    -0.273 N 
ATOM     18  C   UNL     1      37.289 -23.416 -14.876  0.00  0.00    +0.270 C 
ATOM     19  C   UNL     1      38.877 -25.033 -13.910  0.00  0.00    +0.115 C 
ATOM     20  C   UNL     1      36.490 -25.289 -13.360  0.00  0.00    +0.115 C 
ENDBRANCH  15  18
ENDBRANCH  14  15
ENDBRANCH  12  14
ENDBRANCH   1   4
BRANCH   1  21
ATOM     21  C   UNL     1      35.597 -17.923 -22.510  0.00  0.00    -0.047 C 
BRANCH  21  22
ATOM     22  C   UNL     1      35.663 -16.426 -22.188  0.00  0.00    +0.112 C 
BRANCH  22  23
ATOM     23  C   UNL     1      34.811 -15.616 -23.142  0.00  0.00    +0.002 C 
ATOM     24  C   UNL     1      34.531 -14.279 -22.862  0.00  0.00    -0.003 C 
ATOM     25  C   UNL     1      34.306 -16.208 -24.300  0.00  0.00    +0.001 C 
ATOM     26  C   UNL     1      33.745 -13.533 -23.742  0.00  0.00    +0.014 C 
ATOM     27  C   UNL     1      33.520 -15.463 -25.178  0.00  0.00    +0.036 C 
ATOM     28  C   UNL     1      33.240 -14.125 -24.899  0.00  0.00    +0.130 C 
BRANCH  28  29
ATOM     29  O   UNL     1      32.471 -13.410 -25.768  0.00  0.00    -0.506 OA
ATOM     30  H   UNL     1      31.984 -12.670 -25.463  0.00  0.00    +0.292 HD
ENDBRANCH  28  29
BRANCH  26  31
ATOM     31  C   UNL     1      33.455 -12.103 -23.428  0.00  0.00    +0.061 C 
BRANCH  31  32
ATOM     32  C   UNL     1      34.205 -11.128 -24.340  0.00  0.00    +0.142 C 
BRANCH  32  33
ATOM     33  O   UNL     1      35.110 -10.351 -23.566  0.00  0.00    -0.382 OA
ATOM     34  H   UNL     1      35.012  -9.414 -23.799  0.00  0.00    +0.210 HD
ENDBRANCH  32  33
ENDBRANCH  31  32
ENDBRANCH  26  31
ENDBRANCH  22  23
BRANCH  22  35
ATOM     35  O   UNL     1      35.200 -16.183 -20.861  0.00  0.00    -0.382 OA
ATOM     36  H   UNL     1      35.466 -15.291 -20.584  0.00  0.00    +0.211 HD
ENDBRANCH  22  35
ENDBRANCH  21  22
ENDBRANCH   1  21
TORSDOF 12
ENDMDL
MODEL 6
REMARK VINA RESULT:     -10.7      2.440      4.647
REMARK  Name = 9963057
REMARK  12 active torsions:
REMARK  status: ('A' for Active; 'I' for Inactive)
REMARK    1  A    between atoms: N_1  and  C_4
REMARK    2  A    between atoms: N_1  and  C_21
REMARK    3  A    between atoms: C_12  and  O_14
REMARK    4  A    between atoms: O_14  and  C_15
REMARK    5  A    between atoms: C_15  and  C_18
REMARK    6  A    between atoms: C_21  and  C_22
REMARK    7  A    between atoms: C_22  and  C_23
REMARK    8  A    between atoms: C_22  and  O_35
REMARK    9  A    between atoms: C_26  and  C_31
REMARK   10  A    between atoms: C_28  and  O_29
REMARK   11  A    between atoms: C_31  and  C_32
REMARK   12  A    between atoms: C_32  and  O_33
REMARK                            x       y       z     vdW  Elec       q    Type
REMARK                         _______ _______ _______ _____ _____    ______ ____
ROOT
ATOM      1  N   UNL     1      33.367 -22.884 -18.005  0.00  0.00    +0.387 N 
ATOM      2  H   UNL     1      33.973 -23.697 -17.897  0.00  0.00    -0.084 HD
ATOM      3  H   UNL     1      32.660 -23.060 -18.720  0.00  0.00    -0.084 HD
ENDROOT
BRANCH   1   4
ATOM      4  C   UNL     1      34.174 -21.736 -18.418  0.00  0.00    -0.057 C 
ATOM      5  C   UNL     1      35.654 -22.122 -18.459  0.00  0.00    -0.016 C 
ATOM      6  C   UNL     1      33.725 -21.234 -19.797  0.00  0.00    +0.005 C 
ATOM      7  C   UNL     1      36.513 -20.898 -18.780  0.00  0.00    +0.024 C 
ATOM      8  C   UNL     1      34.667 -20.216 -20.392  0.00  0.00    -0.025 C 
ATOM      9  C   UNL     1      35.993 -20.087 -19.939  0.00  0.00    -0.026 C 
ATOM     10  C   UNL     1      34.224 -19.421 -21.460  0.00  0.00    +0.032 C 
ATOM     11  C   UNL     1      36.838 -19.142 -20.541  0.00  0.00    -0.001 C 
ATOM     12  C   UNL     1      35.077 -18.492 -22.057  0.00  0.00    +0.139 C 
ATOM     13  C   UNL     1      36.382 -18.351 -21.595  0.00  0.00    +0.037 C 
BRANCH  12  14
ATOM     14  O   UNL     1      34.633 -17.725 -23.089  0.00  0.00    -0.466 OA
BRANCH  14  15
ATOM     15  C   UNL     1      35.028 -16.354 -23.097  0.00  0.00    +0.290 C 
BRANCH  15  18
ATOM     16  O   UNL     1      34.655 -16.172 -25.430  0.00  0.00    -0.271 OA
ATOM     17  N   UNL     1      33.729 -14.494 -24.118  0.00  0.00    -0.273 N 
ATOM     18  C   UNL     1      34.458 -15.667 -24.320  0.00  0.00    +0.270 C 
ATOM     19  C   UNL     1      33.154 -13.802 -25.264  0.00  0.00    +0.115 C 
ATOM     20  C   UNL     1      33.464 -13.875 -22.822  0.00  0.00    +0.115 C 
ENDBRANCH  15  18
ENDBRANCH  14  15
ENDBRANCH  12  14
ENDBRANCH   1   4
BRANCH   1  21
ATOM     21  C   UNL     1      32.698 -22.615 -16.742  0.00  0.00    -0.047 C 
BRANCH  21  22
ATOM     22  C   UNL     1      32.972 -23.735 -15.731  0.00  0.00    +0.112 C 
BRANCH  22  23
ATOM     23  C   UNL     1      34.414 -23.726 -15.272  0.00  0.00    +0.002 C 
ATOM     24  C   UNL     1      35.083 -24.930 -15.052  0.00  0.00    -0.003 C 
ATOM     25  C   UNL     1      35.074 -22.514 -15.069  0.00  0.00    +0.001 C 
ATOM     26  C   UNL     1      36.412 -24.921 -14.629  0.00  0.00    +0.014 C 
ATOM     27  C   UNL     1      36.403 -22.505 -14.645  0.00  0.00    +0.036 C 
ATOM     28  C   UNL     1      37.071 -23.709 -14.425  0.00  0.00    +0.130 C 
BRANCH  28  29
ATOM     29  O   UNL     1      38.370 -23.683 -14.012  0.00  0.00    -0.506 OA
ATOM     30  H   UNL     1      38.901 -22.930 -14.182  0.00  0.00    +0.292 HD
ENDBRANCH  28  29
BRANCH  26  31
ATOM     31  C   UNL     1      37.113 -26.219 -14.397  0.00  0.00    +0.061 C 
BRANCH  31  32
ATOM     32  C   UNL     1      37.259 -26.561 -12.912  0.00  0.00    +0.142 C 
BRANCH  32  33
ATOM     33  O   UNL     1      38.550 -26.177 -12.459  0.00  0.00    -0.382 OA
ATOM     34  H   UNL     1      38.615 -25.208 -12.450  0.00  0.00    +0.210 HD
ENDBRANCH  32  33
ENDBRANCH  31  32
ENDBRANCH  26  31
ENDBRANCH  22  23
BRANCH  22  35
ATOM     35  O   UNL     1      32.138 -23.583 -14.583  0.00  0.00    -0.382 OA
ATOM     36  H   UNL     1      32.557 -22.972 -13.958  0.00  0.00    +0.211 HD
ENDBRANCH  22  35
ENDBRANCH  21  22
ENDBRANCH   1  21
TORSDOF 12
ENDMDL
MODEL 7
REMARK VINA RESULT:     -10.7      2.114     10.577
REMARK  Name = 9963057
REMARK  12 active torsions:
REMARK  status: ('A' for Active; 'I' for Inactive)
REMARK    1  A    between atoms: N_1  and  C_4
REMARK    2  A    between atoms: N_1  and  C_21
REMARK    3  A    between atoms: C_12  and  O_14
REMARK    4  A    between atoms: O_14  and  C_15
REMARK    5  A    between atoms: C_15  and  C_18
REMARK    6  A    between atoms: C_21  and  C_22
REMARK    7  A    between atoms: C_22  and  C_23
REMARK    8  A    between atoms: C_22  and  O_35
REMARK    9  A    between atoms: C_26  and  C_31
REMARK   10  A    between atoms: C_28  and  O_29
REMARK   11  A    between atoms: C_31  and  C_32
REMARK   12  A    between atoms: C_32  and  O_33
REMARK                            x       y       z     vdW  Elec       q    Type
REMARK                         _______ _______ _______ _____ _____    ______ ____
ROOT
ATOM      1  N   UNL     1      34.600 -18.695 -22.138  0.00  0.00    +0.387 N 
ATOM      2  H   UNL     1      33.955 -18.076 -21.647  0.00  0.00    -0.084 HD
ATOM      3  H   UNL     1      34.144 -19.109 -22.952  0.00  0.00    -0.084 HD
ENDROOT
BRANCH   1   4
ATOM      4  C   UNL     1      35.015 -19.769 -21.236  0.00  0.00    -0.057 C 
ATOM      5  C   UNL     1      36.182 -19.302 -20.365  0.00  0.00    -0.016 C 
ATOM      6  C   UNL     1      33.842 -20.207 -20.350  0.00  0.00    +0.005 C 
ATOM      7  C   UNL     1      36.695 -20.454 -19.501  0.00  0.00    +0.024 C 
ATOM      8  C   UNL     1      34.258 -21.133 -19.233  0.00  0.00    -0.025 C 
ATOM      9  C   UNL     1      35.596 -21.218 -18.806  0.00  0.00    -0.026 C 
ATOM     10  C   UNL     1      33.275 -21.882 -18.568  0.00  0.00    +0.032 C 
ATOM     11  C   UNL     1      35.929 -22.077 -17.748  0.00  0.00    -0.001 C 
ATOM     12  C   UNL     1      33.617 -22.724 -17.509  0.00  0.00    +0.139 C 
ATOM     13  C   UNL     1      34.944 -22.823 -17.102  0.00  0.00    +0.037 C 
BRANCH  12  14
ATOM     14  O   UNL     1      32.654 -23.448 -16.876  0.00  0.00    -0.466 OA
BRANCH  14  15
ATOM     15  C   UNL     1      32.018 -22.840 -15.754  0.00  0.00    +0.290 C 
BRANCH  15  18
ATOM     16  O   UNL     1      29.889 -22.353 -16.674  0.00  0.00    -0.271 OA
ATOM     17  N   UNL     1      29.930 -23.972 -15.011  0.00  0.00    -0.273 N 
ATOM     18  C   UNL     1      30.518 -23.029 -15.854  0.00  0.00    +0.270 C 
ATOM     19  C   UNL     1      28.492 -24.195 -15.077  0.00  0.00    +0.115 C 
ATOM     20  C   UNL     1      30.642 -24.800 -14.040  0.00  0.00    +0.115 C 
ENDBRANCH  15  18
ENDBRANCH  14  15
ENDBRANCH  12  14
ENDBRANCH   1   4
BRANCH   1  21
ATOM     21  C   UNL     1      35.750 -17.927 -22.588  0.00  0.00    -0.047 C 
BRANCH  21  22
ATOM     22  C   UNL     1      35.648 -16.469 -22.124  0.00  0.00    +0.112 C 
BRANCH  22  23
ATOM     23  C   UNL     1      34.804 -15.644 -23.072  0.00  0.00    +0.002 C 
ATOM     24  C   UNL     1      34.443 -14.342 -22.728  0.00  0.00    -0.003 C 
ATOM     25  C   UNL     1      34.388 -16.186 -24.288  0.00  0.00    +0.001 C 
ATOM     26  C   UNL     1      33.665 -13.581 -23.602  0.00  0.00    +0.014 C 
ATOM     27  C   UNL     1      33.609 -15.427 -25.160  0.00  0.00    +0.036 C 
ATOM     28  C   UNL     1      33.248 -14.124 -24.817  0.00  0.00    +0.130 C 
BRANCH  28  29
ATOM     29  O   UNL     1      32.488 -13.395 -25.682  0.00  0.00    -0.506 OA
ATOM     30  H   UNL     1      31.738 -12.929 -25.368  0.00  0.00    +0.292 HD
ENDBRANCH  28  29
BRANCH  26  31
ATOM     31  C   UNL     1      33.287 -12.188 -23.219  0.00  0.00    +0.061 C 
BRANCH  31  32
ATOM     32  C   UNL     1      32.783 -12.083 -21.778  0.00  0.00    +0.142 C 
BRANCH  32  33
ATOM     33  O   UNL     1      31.534 -12.753 -21.660  0.00  0.00    -0.382 OA
ATOM     34  H   UNL     1      31.034 -12.377 -20.917  0.00  0.00    +0.210 HD
ENDBRANCH  32  33
ENDBRANCH  31  32
ENDBRANCH  26  31
ENDBRANCH  22  23
BRANCH  22  35
ATOM     35  O   UNL     1      35.058 -16.402 -20.827  0.00  0.00    -0.382 OA
ATOM     36  H   UNL     1      35.377 -17.143 -20.288  0.00  0.00    +0.211 HD
ENDBRANCH  22  35
ENDBRANCH  21  22
ENDBRANCH   1  21
TORSDOF 12
ENDMDL
MODEL 8
REMARK VINA RESULT:     -10.6      3.995     11.426
REMARK  Name = 9963057
REMARK  12 active torsions:
REMARK  status: ('A' for Active; 'I' for Inactive)
REMARK    1  A    between atoms: N_1  and  C_4
REMARK    2  A    between atoms: N_1  and  C_21
REMARK    3  A    between atoms: C_12  and  O_14
REMARK    4  A    between atoms: O_14  and  C_15
REMARK    5  A    between atoms: C_15  and  C_18
REMARK    6  A    between atoms: C_21  and  C_22
REMARK    7  A    between atoms: C_22  and  C_23
REMARK    8  A    between atoms: C_22  and  O_35
REMARK    9  A    between atoms: C_26  and  C_31
REMARK   10  A    between atoms: C_28  and  O_29
REMARK   11  A    between atoms: C_31  and  C_32
REMARK   12  A    between atoms: C_32  and  O_33
REMARK                            x       y       z     vdW  Elec       q    Type
REMARK                         _______ _______ _______ _____ _____    ______ ____
ROOT
ATOM      1  N   UNL     1      34.585 -13.600 -23.554  0.00  0.00    +0.387 N 
ATOM      2  H   UNL     1      35.349 -13.509 -24.223  0.00  0.00    -0.084 HD
ATOM      3  H   UNL     1      34.845 -13.183 -22.660  0.00  0.00    -0.084 HD
ENDROOT
BRANCH   1   4
ATOM      4  C   UNL     1      34.297 -15.018 -23.343  0.00  0.00    -0.057 C 
ATOM      5  C   UNL     1      34.599 -15.810 -24.617  0.00  0.00    -0.016 C 
ATOM      6  C   UNL     1      35.129 -15.566 -22.177  0.00  0.00    +0.005 C 
ATOM      7  C   UNL     1      34.194 -17.274 -24.442  0.00  0.00    +0.024 C 
ATOM      8  C   UNL     1      35.069 -17.070 -22.062  0.00  0.00    -0.025 C 
ATOM      9  C   UNL     1      34.668 -17.876 -23.143  0.00  0.00    -0.026 C 
ATOM     10  C   UNL     1      35.480 -17.678 -20.866  0.00  0.00    +0.032 C 
ATOM     11  C   UNL     1      34.651 -19.270 -22.995  0.00  0.00    -0.001 C 
ATOM     12  C   UNL     1      35.470 -19.067 -20.734  0.00  0.00    +0.139 C 
ATOM     13  C   UNL     1      35.053 -19.862 -21.798  0.00  0.00    +0.037 C 
BRANCH  12  14
ATOM     14  O   UNL     1      35.867 -19.643 -19.568  0.00  0.00    -0.466 OA
BRANCH  14  15
ATOM     15  C   UNL     1      36.228 -21.022 -19.614  0.00  0.00    +0.290 C 
BRANCH  15  18
ATOM     16  O   UNL     1      36.845 -21.731 -17.439  0.00  0.00    -0.271 OA
ATOM     17  N   UNL     1      34.649 -22.158 -18.062  0.00  0.00    -0.273 N 
ATOM     18  C   UNL     1      35.939 -21.670 -18.276  0.00  0.00    +0.270 C 
ATOM     19  C   UNL     1      34.321 -22.782 -16.787  0.00  0.00    +0.115 C 
ATOM     20  C   UNL     1      33.550 -22.092 -19.022  0.00  0.00    +0.115 C 
ENDBRANCH  15  18
ENDBRANCH  14  15
ENDBRANCH  12  14
ENDBRANCH   1   4
BRANCH   1  21
ATOM     21  C   UNL     1      33.413 -12.907 -24.069  0.00  0.00    -0.047 C 
BRANCH  21  22
ATOM     22  C   UNL     1      33.513 -11.400 -23.807  0.00  0.00    +0.112 C 
BRANCH  22  23
ATOM     23  C   UNL     1      32.798 -11.011 -22.531  0.00  0.00    +0.002 C 
ATOM     24  C   UNL     1      32.596  -9.664 -22.229  0.00  0.00    -0.003 C 
ATOM     25  C   UNL     1      32.343 -11.998 -21.658  0.00  0.00    +0.001 C 
ATOM     26  C   UNL     1      31.937  -9.305 -21.053  0.00  0.00    +0.014 C 
ATOM     27  C   UNL     1      31.686 -11.639 -20.481  0.00  0.00    +0.036 C 
ATOM     28  C   UNL     1      31.483 -10.293 -20.179  0.00  0.00    +0.130 C 
BRANCH  28  29
ATOM     29  O   UNL     1      30.837  -9.959 -19.026  0.00  0.00    -0.506 OA
ATOM     30  H   UNL     1      30.999  -9.130 -18.621  0.00  0.00    +0.292 HD
ENDBRANCH  28  29
BRANCH  26  31
ATOM     31  C   UNL     1      31.728  -7.860 -20.745  0.00  0.00    +0.061 C 
BRANCH  31  32
ATOM     32  C   UNL     1      33.037  -7.113 -20.475  0.00  0.00    +0.142 C 
BRANCH  32  33
ATOM     33  O   UNL     1      33.485  -7.399 -19.156  0.00  0.00    -0.382 OA
ATOM     34  H   UNL     1      34.372  -7.792 -19.194  0.00  0.00    +0.210 HD
ENDBRANCH  32  33
ENDBRANCH  31  32
ENDBRANCH  26  31
ENDBRANCH  22  23
BRANCH  22  35
ATOM     35  O   UNL     1      34.879 -11.005 -23.691  0.00  0.00    -0.382 OA
ATOM     36  H   UNL     1      35.399 -11.742 -23.333  0.00  0.00    +0.211 HD
ENDBRANCH  22  35
ENDBRANCH  21  22
ENDBRANCH   1  21
TORSDOF 12
ENDMDL
MODEL 9
REMARK VINA RESULT:     -10.6      4.055      7.442
REMARK  Name = 9963057
REMARK  12 active torsions:
REMARK  status: ('A' for Active; 'I' for Inactive)
REMARK    1  A    between atoms: N_1  and  C_4
REMARK    2  A    between atoms: N_1  and  C_21
REMARK    3  A    between atoms: C_12  and  O_14
REMARK    4  A    between atoms: O_14  and  C_15
REMARK    5  A    between atoms: C_15  and  C_18
REMARK    6  A    between atoms: C_21  and  C_22
REMARK    7  A    between atoms: C_22  and  C_23
REMARK    8  A    between atoms: C_22  and  O_35
REMARK    9  A    between atoms: C_26  and  C_31
REMARK   10  A    between atoms: C_28  and  O_29
REMARK   11  A    between atoms: C_31  and  C_32
REMARK   12  A    between atoms: C_32  and  O_33
REMARK                            x       y       z     vdW  Elec       q    Type
REMARK                         _______ _______ _______ _____ _____    ______ ____
ROOT
ATOM      1  N   UNL     1      36.291 -17.527 -22.186  0.00  0.00    +0.387 N 
ATOM      2  H   UNL     1      37.281 -17.376 -21.993  0.00  0.00    -0.084 HD
ATOM      3  H   UNL     1      36.176 -18.135 -22.997  0.00  0.00    -0.084 HD
ENDROOT
BRANCH   1   4
ATOM      4  C   UNL     1      35.656 -16.240 -22.472  0.00  0.00    -0.057 C 
ATOM      5  C   UNL     1      34.711 -16.376 -23.667  0.00  0.00    -0.016 C 
ATOM      6  C   UNL     1      34.882 -15.740 -21.245  0.00  0.00    +0.005 C 
ATOM      7  C   UNL     1      34.130 -15.012 -24.042  0.00  0.00    +0.024 C 
ATOM      8  C   UNL     1      34.005 -14.549 -21.544  0.00  0.00    -0.025 C 
ATOM      9  C   UNL     1      33.618 -14.231 -22.859  0.00  0.00    -0.026 C 
ATOM     10  C   UNL     1      33.518 -13.777 -20.478  0.00  0.00    +0.032 C 
ATOM     11  C   UNL     1      32.781 -13.128 -23.083  0.00  0.00    -0.001 C 
ATOM     12  C   UNL     1      32.678 -12.689 -20.713  0.00  0.00    +0.139 C 
ATOM     13  C   UNL     1      32.313 -12.363 -22.016  0.00  0.00    +0.037 C 
BRANCH  12  14
ATOM     14  O   UNL     1      32.217 -11.947 -19.670  0.00  0.00    -0.466 OA
BRANCH  14  15
ATOM     15  C   UNL     1      31.431 -10.800 -19.986  0.00  0.00    +0.290 C 
BRANCH  15  18
ATOM     16  O   UNL     1      32.679  -9.460 -18.482  0.00  0.00    -0.271 OA
ATOM     17  N   UNL     1      32.297  -8.544 -20.582  0.00  0.00    -0.273 N 
ATOM     18  C   UNL     1      32.188  -9.543 -19.613  0.00  0.00    +0.270 C 
ATOM     19  C   UNL     1      33.024  -7.321 -20.272  0.00  0.00    +0.115 C 
ATOM     20  C   UNL     1      31.743  -8.612 -21.932  0.00  0.00    +0.115 C 
ENDBRANCH  15  18
ENDBRANCH  14  15
ENDBRANCH  12  14
ENDBRANCH   1   4
BRANCH   1  21
ATOM     21  C   UNL     1      35.671 -18.162 -21.033  0.00  0.00    -0.047 C 
BRANCH  21  22
ATOM     22  C   UNL     1      35.034 -19.500 -21.426  0.00  0.00    +0.112 C 
BRANCH  22  23
ATOM     23  C   UNL     1      34.851 -20.401 -20.224  0.00  0.00    +0.002 C 
ATOM     24  C   UNL     1      35.958 -20.788 -19.469  0.00  0.00    -0.003 C 
ATOM     25  C   UNL     1      33.577 -20.844 -19.871  0.00  0.00    +0.001 C 
ATOM     26  C   UNL     1      35.790 -21.619 -18.361  0.00  0.00    +0.014 C 
ATOM     27  C   UNL     1      33.408 -21.675 -18.764  0.00  0.00    +0.036 C 
ATOM     28  C   UNL     1      34.516 -22.063 -18.009  0.00  0.00    +0.130 C 
BRANCH  28  29
ATOM     29  O   UNL     1      34.334 -22.874 -16.929  0.00  0.00    -0.506 OA
ATOM     30  H   UNL     1      35.042 -23.403 -16.616  0.00  0.00    +0.292 HD
ENDBRANCH  28  29
BRANCH  26  31
ATOM     31  C   UNL     1      36.986 -22.024 -17.564  0.00  0.00    +0.061 C 
BRANCH  31  32
ATOM     32  C   UNL     1      37.103 -21.265 -16.239  0.00  0.00    +0.142 C 
BRANCH  32  33
ATOM     33  O   UNL     1      36.671 -22.099 -15.172  0.00  0.00    -0.382 OA
ATOM     34  H   UNL     1      37.078 -22.976 -15.261  0.00  0.00    +0.210 HD
ENDBRANCH  32  33
ENDBRANCH  31  32
ENDBRANCH  26  31
ENDBRANCH  22  23
BRANCH  22  35
ATOM     35  O   UNL     1      33.754 -19.285 -22.021  0.00  0.00    -0.382 OA
ATOM     36  H   UNL     1      33.779 -18.476 -22.555  0.00  0.00    +0.211 HD
ENDBRANCH  22  35
ENDBRANCH  21  22
ENDBRANCH   1  21
TORSDOF 12
ENDMDL
